REMARK  Name = molecules/AAKJLRGGTJKAMG-UHFFFAOYSA-N.pdb
REMARK                            x       y       z     vdW  Elec       q    Type
REMARK                         _______ _______ _______ _____ _____    ______ ____
ROOT
ATOM      1  C   LIG    1       -1.883  -1.452  -0.107  0.00  0.00    +0.164 A 
ATOM      2  C   LIG    1       -1.056  -2.481   0.254  0.00  0.00    +0.078 A 
ATOM      3  C   LIG    1        0.309  -2.317   0.270  0.00  0.00    +0.080 A 
ATOM      4  N   LIG    1        1.146  -3.303   0.617  0.00  0.00    -0.235 NA
ATOM      5  C   LIG    1        2.489  -3.120   0.624  0.00  0.00    +0.223 A 
ATOM      6  N   LIG    1        2.983  -1.926   0.277  0.00  0.00    -0.220 NA
ATOM      7  C   LIG    1        2.221  -0.879  -0.086  0.00  0.00    +0.134 A 
ATOM      8  C   LIG    1        0.856  -1.075  -0.090  0.00  0.00    +0.044 A 
ATOM      9  C   LIG    1        0.005  -0.054  -0.451  0.00  0.00    +0.062 A 
ATOM     10  C   LIG    1       -1.385  -0.194  -0.475  0.00  0.00    +0.163 A 
ENDROOT
BRANCH   7  11
ATOM     11  N   LIG    1        2.766   0.375  -0.412  0.00  0.00    -0.299 N 
ATOM     12  H   LIG    1        2.156   1.222  -0.644  0.00  0.00    +0.154 HD
BRANCH  11  13
ATOM     13  C   LIG    1        4.158   0.577  -0.447  0.00  0.00    +0.034 A 
ATOM     14  C   LIG    1        4.641   1.874  -0.225  0.00  0.00    +0.040 A 
ATOM     15  C   LIG    1        5.978   2.179  -0.210  0.00  0.00    +0.026 A 
ATOM     16  C   LIG    1        6.877   1.135  -0.429  0.00  0.00    +0.017 A 
ATOM     17  C   LIG    1        6.453  -0.144  -0.651  0.00  0.00    +0.003 A 
ATOM     18  C   LIG    1        5.073  -0.401  -0.656  0.00  0.00    +0.023 A 
BRANCH  15  19
ATOM     19  C   LIG    1        6.500   3.496   0.015  0.00  0.00    -0.070 C 
ATOM     20  C   LIG    1        6.943   4.605   0.185  0.00  0.00    +0.009 C 
ENDBRANCH  15  19
ENDBRANCH  11  13
ENDBRANCH   7  11
BRANCH   1  21
ATOM     21  O   LIG    1       -3.260  -1.601  -0.129  0.00  0.00    -0.486 OA
BRANCH  21  22
ATOM     22  C   LIG    1       -3.938  -2.771   0.203  0.00  0.00    +0.257 C 
BRANCH  22  23
ATOM     23  C   LIG    1       -5.432  -2.498   0.044  0.00  0.00    +0.200 C 
BRANCH  23  25
ATOM     24  C   LIG    1       -7.486  -3.481   0.249  0.00  0.00    +0.194 C 
ATOM     25  O   LIG    1       -6.102  -3.650   0.370  0.00  0.00    -0.380 OA
ENDBRANCH  23  25
ENDBRANCH  22  23
ENDBRANCH  21  22
ENDBRANCH   1  21
BRANCH  10  26
ATOM     26  O   LIG    1       -2.261   0.794  -0.823  0.00  0.00    -0.486 OA
BRANCH  26  27
ATOM     27  C   LIG    1       -2.144   2.095  -1.190  0.00  0.00    +0.257 C 
BRANCH  27  28
ATOM     28  C   LIG    1       -1.562   2.960  -0.114  0.00  0.00    +0.200 C 
BRANCH  28  29
ATOM     29  O   LIG    1       -2.366   2.933   1.042  0.00  0.00    -0.380 OA
ATOM     30  C   LIG    1       -1.781   3.751   2.009  0.00  0.00    +0.194 C 
ENDBRANCH  28  29
ENDBRANCH  27  28
ENDBRANCH  26  27
ENDBRANCH  10  26
TORSDOF 11
