REMARK  Name = molecules/AAOVKJBEBIDNHE-UHFFFAOYSA-N.pdb
REMARK                            x       y       z     vdW  Elec       q    Type
REMARK                         _______ _______ _______ _____ _____    ______ ____
ROOT
ATOM      1  C   LIG    1       -3.698   0.103  -1.190  0.00  0.00    +0.138 C 
ATOM      2  N   LIG    1       -2.584  -0.415  -0.483  0.00  0.00    -0.272 N 
ATOM      3  C   LIG    1       -1.722   0.560   0.134  0.00  0.00    +0.045 A 
ATOM      4  C   LIG    1       -2.388   1.705   0.485  0.00  0.00    +0.025 A 
ATOM      5  C   LIG    1       -1.734   2.711   1.187  0.00  0.00    +0.022 A 
ATOM      6  C   LIG    1       -0.387   2.507   1.516  0.00  0.00    +0.042 A 
ATOM      7 CL   LIG    1        0.455   3.752   2.390  0.00  0.00    -0.084 Cl
ATOM      8  C   LIG    1        0.277   1.376   1.171  0.00  0.00    +0.032 A 
ATOM      9  C   LIG    1       -0.400   0.390   0.466  0.00  0.00    +0.023 A 
ATOM     10  C   LIG    1        0.448  -0.735   0.122  0.00  0.00    +0.075 C 
ATOM     11  N   LIG    1        0.017  -1.978   0.140  0.00  0.00    -0.273 NA
ATOM     12  C   LIG    1       -1.296  -2.522   0.467  0.00  0.00    +0.238 C 
ATOM     13  C   LIG    1       -2.350  -1.832  -0.371  0.00  0.00    +0.241 C 
ATOM     14  O   LIG    1       -3.124  -2.543  -1.056  0.00  0.00    -0.273 OA
ENDROOT
BRANCH  10  15
ATOM     15  C   LIG    1        1.823  -0.473  -0.229  0.00  0.00    +0.001 A 
ATOM     16  C   LIG    1        2.633  -1.639  -0.238  0.00  0.00    +0.010 A 
ATOM     17  C   LIG    1        3.974  -1.506  -0.468  0.00  0.00    +0.001 A 
ATOM     18  C   LIG    1        4.604  -0.304  -0.695  0.00  0.00    +0.000 A 
ATOM     19  C   LIG    1        3.799   0.810  -0.683  0.00  0.00    +0.001 A 
ATOM     20  C   LIG    1        2.440   0.705  -0.455  0.00  0.00    +0.010 A 
ENDBRANCH  10  15
TORSDOF 1
