REMARK  Name = molecules/ABJKWBDEJIDSJZ-UHFFFAOYSA-N.pdb
REMARK                            x       y       z     vdW  Elec       q    Type
REMARK                         _______ _______ _______ _____ _____    ______ ____
ROOT
ATOM      1  N   LIG    1        1.136  -0.330  -0.136  0.00  0.00    -0.297 NA
ATOM      2  C   LIG    1        1.605   0.145  -1.370  0.00  0.00    +0.105 C 
ENDROOT
BRANCH   1   3
ATOM      3  C   LIG    1        2.237  -0.736   0.757  0.00  0.00    +0.120 C 
BRANCH   3   4
ATOM      4  C   LIG    1        3.426  -1.150   0.032  0.00  0.00    -0.026 A 
ATOM      5  C   LIG    1        4.501  -0.257   0.082  0.00  0.00    -0.013 A 
ATOM      6  C   LIG    1        4.271   1.028   0.564  0.00  0.00    +0.009 A 
ATOM      7  C   LIG    1        5.223   2.000   0.524  0.00  0.00    +0.001 A 
ATOM      8  C   LIG    1        6.444   1.686  -0.014  0.00  0.00    +0.001 A 
ATOM      9  C   LIG    1        6.659   0.417  -0.477  0.00  0.00    +0.008 A 
ATOM     10  C   LIG    1        5.687  -0.604  -0.437  0.00  0.00    -0.018 A 
ATOM     11  C   LIG    1        5.911  -1.809  -1.028  0.00  0.00    +0.008 A 
ATOM     12  C   LIG    1        4.820  -2.715  -1.090  0.00  0.00    +0.001 A 
ATOM     13  C   LIG    1        3.571  -2.363  -0.547  0.00  0.00    +0.005 A 
ENDBRANCH   3   4
ENDBRANCH   1   3
BRANCH   1  14
ATOM     14  C   LIG    1        0.238   0.487   0.620  0.00  0.00    +0.119 C 
BRANCH  14  15
ATOM     15  C   LIG    1       -1.192   0.360   0.376  0.00  0.00    -0.033 A 
ATOM     16  C   LIG    1       -1.920  -0.659   0.988  0.00  0.00    +0.005 A 
ATOM     17  C   LIG    1       -3.266  -0.736   0.862  0.00  0.00    +0.004 A 
ATOM     18  C   LIG    1       -3.957   0.202   0.109  0.00  0.00    -0.042 A 
ATOM     19  C   LIG    1       -3.266   1.199  -0.500  0.00  0.00    +0.004 A 
ATOM     20  C   LIG    1       -1.889   1.278  -0.364  0.00  0.00    +0.005 A 
BRANCH  18  21
ATOM     21  C   LIG    1       -5.452   0.166   0.161  0.00  0.00    -0.013 C 
ATOM     22  C   LIG    1       -5.822   0.451   1.630  0.00  0.00    +0.015 C 
ATOM     23  C   LIG    1       -6.071  -1.135  -0.183  0.00  0.00    +0.015 C 
ATOM     24  C   LIG    1       -5.992   1.316  -0.628  0.00  0.00    +0.015 C 
ENDBRANCH  18  21
ENDBRANCH  14  15
ENDBRANCH   1  14
TORSDOF 5
