REMARK  Name = molecules/ACEWLPOYLGNNHV-HNNXBMFYSA-N.pdb
REMARK                            x       y       z     vdW  Elec       q    Type
REMARK                         _______ _______ _______ _____ _____    ______ ____
ROOT
ATOM      1  C   LIG    1       -1.079  -0.391   1.183  0.00  0.00    +0.125 C 
ATOM      2  C   LIG    1       -1.026  -1.771   1.813  0.00  0.00    +0.024 C 
ENDROOT
BRANCH   1   3
ATOM      3  C   LIG    1        0.270  -0.044   0.637  0.00  0.00    -0.034 A 
ATOM      4  C   LIG    1        0.988   1.007   1.159  0.00  0.00    +0.005 A 
ATOM      5  C   LIG    1        2.215   1.321   0.661  0.00  0.00    +0.004 A 
ATOM      6  C   LIG    1        2.761   0.594  -0.373  0.00  0.00    -0.047 A 
ATOM      7  C   LIG    1        2.062  -0.461  -0.910  0.00  0.00    +0.004 A 
ATOM      8  C   LIG    1        0.820  -0.767  -0.395  0.00  0.00    +0.005 A 
BRANCH   6   9
ATOM      9  C   LIG    1        4.087   0.963  -0.884  0.00  0.00    +0.038 C 
BRANCH   9  10
ATOM     10  C   LIG    1        5.223   0.269  -0.193  0.00  0.00    -0.013 C 
ATOM     11  C   LIG    1        5.193  -1.222  -0.367  0.00  0.00    +0.007 C 
ATOM     12  C   LIG    1        6.512   0.768  -0.848  0.00  0.00    +0.007 C 
ENDBRANCH   9  10
ENDBRANCH   6   9
ENDBRANCH   1   3
BRANCH   1  13
ATOM     13  C   LIG    1       -2.086  -0.336   0.097  0.00  0.00    +0.315 C 
ATOM     14  O   LIG    1       -2.752  -1.346  -0.216  0.00  0.00    -0.250 OA
BRANCH  13  15
ATOM     15  O   LIG    1       -2.291   0.840  -0.577  0.00  0.00    -0.458 OA
BRANCH  15  16
ATOM     16  C   LIG    1       -3.236   0.925  -1.608  0.00  0.00    +0.287 C 
BRANCH  16  17
ATOM     17  C   LIG    1       -4.621   0.617  -1.204  0.00  0.00    +0.079 A 
ATOM     18  N   LIG    1       -5.336   1.532  -0.486  0.00  0.00    -0.256 NA
ATOM     19  C   LIG    1       -6.600   1.294  -0.092  0.00  0.00    +0.111 A 
ATOM     20  C   LIG    1       -7.270   0.122  -0.376  0.00  0.00    +0.020 A 
ATOM     21  C   LIG    1       -6.577  -0.825  -1.100  0.00  0.00    +0.003 A 
ATOM     22  C   LIG    1       -5.273  -0.562  -1.499  0.00  0.00    +0.027 A 
ENDBRANCH  16  17
ENDBRANCH  15  16
ENDBRANCH  13  15
ENDBRANCH   1  13
TORSDOF 7
