REMARK  Name = molecules/ACRHBAYQBXXRTO-OAQYLSRUSA-N.pdb
REMARK                            x       y       z     vdW  Elec       q    Type
REMARK                         _______ _______ _______ _____ _____    ______ ____
ROOT
ATOM      1  C   LIG    1       -0.241  -1.143   0.071  0.00  0.00    +0.034 C 
ENDROOT
BRANCH   1   2
ATOM      2  C   LIG    1       -0.483   0.321   0.072  0.00  0.00    +0.085 C 
BRANCH   2   3
ATOM      3  N   LIG    1       -1.520   0.865  -0.661  0.00  0.00    -0.305 NA
ATOM      4  C   LIG    1       -1.118   1.566  -1.873  0.00  0.00    +0.104 C 
BRANCH   3   5
ATOM      5  C   LIG    1       -2.866   0.811  -0.420  0.00  0.00    +0.092 C 
BRANCH   5   6
ATOM      6  C   LIG    1       -3.657  -0.447  -0.491  0.00  0.00    +0.038 C 
ATOM      7  C   LIG    1       -3.650  -1.213   0.811  0.00  0.00    +0.045 C 
ATOM      8  C   LIG    1       -5.067  -0.815   0.937  0.00  0.00    -0.040 A 
ATOM      9  C   LIG    1       -6.256  -0.862   1.691  0.00  0.00    +0.053 A 
ATOM     10  C   LIG    1       -7.415  -0.244   1.290  0.00  0.00    +0.162 A 
ATOM     11  C   LIG    1       -7.434   0.460   0.094  0.00  0.00    +0.162 A 
ATOM     12  C   LIG    1       -6.283   0.516  -0.653  0.00  0.00    +0.053 A 
ATOM     13  C   LIG    1       -5.111  -0.119  -0.229  0.00  0.00    -0.036 A 
BRANCH  10  14
ATOM     14  O   LIG    1       -8.587  -0.291   2.032  0.00  0.00    -0.491 OA
ATOM     15  C   LIG    1       -8.653  -0.987   3.258  0.00  0.00    +0.277 C 
ENDBRANCH  10  14
BRANCH  11  16
ATOM     16  O   LIG    1       -8.562   1.105  -0.372  0.00  0.00    -0.491 OA
ATOM     17  C   LIG    1       -8.616   1.824  -1.573  0.00  0.00    +0.277 C 
ENDBRANCH  11  16
ENDBRANCH   5   6
ENDBRANCH   3   5
ENDBRANCH   2   3
ENDBRANCH   1   2
BRANCH   1  18
ATOM     18  C   LIG    1        0.932  -1.587   0.928  0.00  0.00    +0.109 C 
BRANCH  18  19
ATOM     19  N   LIG    1        2.180  -1.000   0.485  0.00  0.00    -0.301 N 
ATOM     20  C   LIG    1        2.639   0.227   1.085  0.00  0.00    +0.112 C 
ATOM     21  C   LIG    1        3.344   1.162   0.153  0.00  0.00    +0.054 C 
ATOM     22  C   LIG    1        4.678   0.553  -0.200  0.00  0.00    -0.039 A 
ATOM     23  C   LIG    1        5.755   1.249   0.298  0.00  0.00    +0.053 A 
ATOM     24  C   LIG    1        7.046   0.816   0.060  0.00  0.00    +0.162 A 
ATOM     25  C   LIG    1        7.249  -0.335  -0.691  0.00  0.00    +0.162 A 
ATOM     26  C   LIG    1        6.180  -1.054  -1.203  0.00  0.00    +0.053 A 
ATOM     27  C   LIG    1        4.901  -0.595  -0.948  0.00  0.00    -0.032 A 
ATOM     28  C   LIG    1        3.843  -1.423  -1.536  0.00  0.00    +0.131 C 
ATOM     29  C   LIG    1        2.832  -1.797  -0.527  0.00  0.00    +0.220 C 
ATOM     30  O   LIG    1        2.448  -3.019  -0.521  0.00  0.00    -0.275 OA
BRANCH  24  31
ATOM     31  O   LIG    1        8.149   1.496   0.548  0.00  0.00    -0.491 OA
ATOM     32  C   LIG    1        7.921   2.665   1.309  0.00  0.00    +0.277 C 
ENDBRANCH  24  31
BRANCH  25  33
ATOM     33  O   LIG    1        8.562  -0.727  -0.901  0.00  0.00    -0.491 OA
ATOM     34  C   LIG    1        8.786  -1.897  -1.663  0.00  0.00    +0.277 C 
ENDBRANCH  25  33
ENDBRANCH  18  19
ENDBRANCH   1  18
TORSDOF 10
