REMARK  Name = molecules/ACTRVOBWPAIOHC-XIXRPRMCSA-N.pdb
REMARK                            x       y       z     vdW  Elec       q    Type
REMARK                         _______ _______ _______ _____ _____    ______ ____
ROOT
ATOM      1  C   LIG    1       -0.672   0.598  -0.701  0.00  0.00    +0.175 C 
ENDROOT
BRANCH   1   2
ATOM      2  C   LIG    1       -1.418  -0.581  -0.301  0.00  0.00    +0.319 C 
ATOM      3  O   LIG    1       -2.533  -0.419   0.296  0.00  0.00    -0.250 OA
BRANCH   2   4
ATOM      4  O   LIG    1       -1.032  -1.901  -0.508  0.00  0.00    -0.480 OA
ATOM      5  H   LIG    1       -1.172  -2.556   0.266  0.00  0.00    +0.295 HD
ENDBRANCH   2   4
ENDBRANCH   1   2
BRANCH   1   6
ATOM      6  S   LIG    1       -1.709   2.073  -0.376  0.00  0.00    -0.162 S 
ATOM      7  H   LIG    1       -1.208   2.736   0.757  0.00  0.00    +0.102 HD
ENDBRANCH   1   6
BRANCH   1   8
ATOM      8  C   LIG    1        0.647   0.816  -0.054  0.00  0.00    +0.175 C 
BRANCH   8   9
ATOM      9  S   LIG    1        0.420   1.147   1.736  0.00  0.00    -0.162 S 
ATOM     10  H   LIG    1        0.590  -0.036   2.443  0.00  0.00    +0.102 HD
ENDBRANCH   8   9
BRANCH   8  11
ATOM     11  C   LIG    1        1.640  -0.258  -0.266  0.00  0.00    +0.319 C 
ATOM     12  O   LIG    1        2.726  -0.037  -0.910  0.00  0.00    -0.250 OA
BRANCH  11  13
ATOM     13  O   LIG    1        1.425  -1.540   0.228  0.00  0.00    -0.480 OA
ATOM     14  H   LIG    1        1.723  -2.334  -0.352  0.00  0.00    +0.295 HD
ENDBRANCH  11  13
ENDBRANCH   8  11
ENDBRANCH   1   8
TORSDOF 7
