REMARK  Name = molecules/ACWBQPMHZXGDFX-QFIPXVFZSA-N.pdb
REMARK                            x       y       z     vdW  Elec       q    Type
REMARK                         _______ _______ _______ _____ _____    ______ ____
ROOT
ATOM      1  C   LIG    1       -0.083   0.115   0.672  0.00  0.00    -0.030 A 
ATOM      2  C   LIG    1        0.968   0.500   1.487  0.00  0.00    +0.006 A 
ATOM      3  C   LIG    1        2.198   0.853   0.998  0.00  0.00    +0.009 A 
ATOM      4  C   LIG    1        2.436   0.835  -0.371  0.00  0.00    -0.017 A 
ATOM      5  C   LIG    1        1.378   0.449  -1.179  0.00  0.00    +0.009 A 
ATOM      6  C   LIG    1        0.144   0.095  -0.684  0.00  0.00    +0.006 A 
ENDROOT
BRANCH   4   7
ATOM      7  C   LIG    1        3.722   1.209  -0.924  0.00  0.00    -0.007 A 
ATOM      8  C   LIG    1        4.837   0.452  -0.743  0.00  0.00    +0.028 A 
ATOM      9  C   LIG    1        6.079   0.842  -1.268  0.00  0.00    +0.012 A 
ATOM     10  C   LIG    1        6.180   2.008  -1.980  0.00  0.00    +0.001 A 
ATOM     11  C   LIG    1        5.070   2.780  -2.172  0.00  0.00    +0.001 A 
ATOM     12  C   LIG    1        3.835   2.384  -1.645  0.00  0.00    +0.009 A 
BRANCH   8  13
ATOM     13  C   LIG    1        4.761  -0.795  -0.023  0.00  0.00    +0.180 A 
ATOM     14  N   LIG    1        3.660  -1.368   0.458  0.00  0.00    -0.108 NA
ATOM     15  N   LIG    1        3.947  -2.508   1.046  0.00  0.00    -0.023 NA
ATOM     16  N   LIG    1        5.249  -2.657   0.934  0.00  0.00    -0.046 NA
ATOM     17  N   LIG    1        5.774  -1.626   0.285  0.00  0.00    -0.239 N 
ATOM     18  H   LIG    1        6.806  -1.520   0.073  0.00  0.00    +0.192 HD
ENDBRANCH   8  13
ENDBRANCH   4   7
BRANCH   1  19
ATOM     19  C   LIG    1       -1.382  -0.252   1.308  0.00  0.00    +0.143 C 
BRANCH  19  20
ATOM     20  N   LIG    1       -2.372  -0.733   0.416  0.00  0.00    -0.283 N 
ATOM     21  C   LIG    1       -3.197   0.242  -0.268  0.00  0.00    +0.217 C 
ATOM     22  O   LIG    1       -4.093  -0.130  -1.098  0.00  0.00    -0.276 OA
BRANCH  20  23
ATOM     23  C   LIG    1       -2.671  -2.103   0.171  0.00  0.00    +0.187 C 
BRANCH  23  24
ATOM     24  C   LIG    1       -1.580  -2.943  -0.378  0.00  0.00    +0.014 C 
ATOM     25  C   LIG    1       -0.398  -3.158   0.568  0.00  0.00    +0.009 C 
ATOM     26  C   LIG    1       -2.143  -4.363  -0.645  0.00  0.00    +0.009 C 
ENDBRANCH  23  24
BRANCH  23  27
ATOM     27  C   LIG    1       -3.275  -2.731   1.412  0.00  0.00    +0.326 C 
ATOM     28  O   LIG    1       -3.390  -2.044   2.459  0.00  0.00    -0.249 OA
BRANCH  27  29
ATOM     29  O   LIG    1       -3.710  -4.037   1.443  0.00  0.00    -0.479 OA
ATOM     30  H   LIG    1       -3.551  -4.667   2.226  0.00  0.00    +0.295 HD
ENDBRANCH  27  29
ENDBRANCH  23  27
ENDBRANCH  20  23
BRANCH  21  31
ATOM     31  C   LIG    1       -2.991   1.672   0.008  0.00  0.00    +0.096 C 
BRANCH  31  32
ATOM     32  C   LIG    1       -3.939   2.508  -0.841  0.00  0.00    +0.009 C 
BRANCH  32  33
ATOM     33  C   LIG    1       -3.665   3.962  -0.501  0.00  0.00    -0.003 C 
ATOM     34  C   LIG    1       -3.905   4.221   0.971  0.00  0.00    +0.004 C 
ENDBRANCH  32  33
ENDBRANCH  31  32
ENDBRANCH  21  31
ENDBRANCH  19  20
ENDBRANCH   1  19
TORSDOF 11
