REMARK  Name = molecules/ACWZRVQXLIRSDF-UHFFFAOYSA-N.pdb
REMARK                            x       y       z     vdW  Elec       q    Type
REMARK                         _______ _______ _______ _____ _____    ______ ____
ROOT
ATOM      1  C   LIG    1        0.030   0.666   0.353  0.00  0.00    +0.065 A 
ATOM      2  C   LIG    1       -0.757   0.103   1.339  0.00  0.00    +0.082 A 
ATOM      3  C   LIG    1       -1.616   0.880   2.124  0.00  0.00    +0.172 A 
ATOM      4  F   LIG    1       -2.377   0.302   3.082  0.00  0.00    -0.201 F 
ATOM      5  C   LIG    1       -1.704   2.240   1.937  0.00  0.00    +0.126 A 
ATOM      6  N   LIG    1       -2.417   3.234   2.516  0.00  0.00    -0.233 NA
ATOM      7  C   LIG    1       -2.120   4.409   1.943  0.00  0.00    +0.200 A 
ATOM      8  N   LIG    1       -1.204   4.135   0.991  0.00  0.00    -0.333 N 
ATOM      9  C   LIG    1       -0.587   5.108   0.109  0.00  0.00    +0.150 C 
ATOM     10  C   LIG    1       -0.925   2.816   0.959  0.00  0.00    +0.072 A 
ATOM     11  C   LIG    1       -0.073   2.033   0.182  0.00  0.00    +0.043 A 
ENDROOT
BRANCH   1  12
ATOM     12  C   LIG    1        0.924  -0.148  -0.460  0.00  0.00    +0.269 C 
ATOM     13  O   LIG    1        0.945  -1.395  -0.223  0.00  0.00    -0.268 OA
ATOM     14  N   LIG    1        1.749   0.349  -1.470  0.00  0.00    -0.190 N 
ATOM     15  H   LIG    1        1.742   1.370  -1.676  0.00  0.00    +0.183 HD
BRANCH  14  16
ATOM     16  O   LIG    1        2.564  -0.418  -2.205  0.00  0.00    -0.277 OA
BRANCH  16  17
ATOM     17  C   LIG    1        3.754  -0.725  -1.560  0.00  0.00    +0.218 C 
BRANCH  17  18
ATOM     18  C   LIG    1        4.576  -1.587  -2.495  0.00  0.00    +0.186 C 
BRANCH  18  19
ATOM     19  O   LIG    1        5.774  -1.875  -1.802  0.00  0.00    -0.393 OA
ATOM     20  H   LIG    1        6.245  -0.991  -1.716  0.00  0.00    +0.209 HD
ENDBRANCH  18  19
ENDBRANCH  17  18
ENDBRANCH  16  17
ENDBRANCH  14  16
ENDBRANCH   1  12
BRANCH   2  21
ATOM     21  N   LIG    1       -0.678  -1.303   1.545  0.00  0.00    -0.309 N 
ATOM     22  H   LIG    1        0.045  -1.634   2.228  0.00  0.00    +0.152 HD
BRANCH  21  23
ATOM     23  C   LIG    1       -1.523  -2.230   0.875  0.00  0.00    +0.067 A 
ATOM     24  C   LIG    1       -1.378  -3.590   1.146  0.00  0.00    +0.145 A 
ATOM     25  F   LIG    1       -0.431  -3.982   2.042  0.00  0.00    -0.204 F 
ATOM     26  C   LIG    1       -2.200  -4.489   0.497  0.00  0.00    +0.055 A 
ATOM     27  C   LIG    1       -3.163  -4.068  -0.418  0.00  0.00    +0.021 A 
ATOM     28  C   LIG    1       -3.275  -2.708  -0.660  0.00  0.00    +0.017 A 
ATOM     29 BR   LIG    1       -4.240  -5.379  -1.253  0.00  0.00    -0.050 Br
ATOM     30  C   LIG    1       -2.464  -1.796  -0.021  0.00  0.00    +0.027 A 
ENDBRANCH  21  23
ENDBRANCH   2  21
TORSDOF 7
