REMARK  Name = molecules/ADBFDJQRBQZXAB-UHFFFAOYSA-N.pdb
REMARK                            x       y       z     vdW  Elec       q    Type
REMARK                         _______ _______ _______ _____ _____    ______ ____
ROOT
ATOM      1  P   LIG    1        0.219   0.316  -0.096  0.00  0.00    +0.651 P 
ATOM      2  O   LIG    1        0.697   0.707  -1.494  0.00  0.00    -0.194 OA
ENDROOT
BRANCH   1   3
ATOM      3  O   LIG    1        1.398   0.599   1.089  0.00  0.00    -0.382 OA
BRANCH   3   4
ATOM      4  C   LIG    1        2.630   0.028   1.182  0.00  0.00    +0.176 A 
ATOM      5  C   LIG    1        3.464   0.376   2.215  0.00  0.00    +0.050 A 
ATOM      6  C   LIG    1        4.707  -0.182   2.334  0.00  0.00    +0.004 A 
ATOM      7  C   LIG    1        5.151  -1.108   1.416  0.00  0.00    +0.004 A 
ATOM      8  C   LIG    1        4.314  -1.465   0.369  0.00  0.00    +0.049 A 
ATOM      9  C   LIG    1        3.049  -0.890   0.259  0.00  0.00    +0.162 A 
BRANCH   9  10
ATOM     10  O   LIG    1        2.263  -1.289  -0.810  0.00  0.00    -0.491 OA
ATOM     11  C   LIG    1        2.700  -2.238  -1.763  0.00  0.00    +0.277 C 
ENDBRANCH   9  10
ENDBRANCH   3   4
ENDBRANCH   1   3
BRANCH   1  12
ATOM     12  O   LIG    1       -1.106   1.368   0.255  0.00  0.00    -0.382 OA
BRANCH  12  13
ATOM     13  C   LIG    1       -0.808   2.738   0.276  0.00  0.00    +0.176 A 
ATOM     14  C   LIG    1       -1.805   3.673   0.549  0.00  0.00    +0.162 A 
ATOM     15  C   LIG    1       -1.548   5.025   0.577  0.00  0.00    +0.049 A 
ATOM     16  C   LIG    1       -0.264   5.470   0.328  0.00  0.00    +0.004 A 
ATOM     17  C   LIG    1        0.745   4.580   0.055  0.00  0.00    +0.004 A 
ATOM     18  C   LIG    1        0.453   3.236   0.035  0.00  0.00    +0.050 A 
BRANCH  14  19
ATOM     19  O   LIG    1       -3.077   3.189   0.793  0.00  0.00    -0.491 OA
ATOM     20  C   LIG    1       -4.119   4.074   1.073  0.00  0.00    +0.277 C 
ENDBRANCH  14  19
ENDBRANCH  12  13
ENDBRANCH   1  12
BRANCH   1  21
ATOM     21  O   LIG    1       -0.273  -1.308  -0.117  0.00  0.00    -0.382 OA
BRANCH  21  22
ATOM     22  C   LIG    1       -1.411  -1.799  -0.689  0.00  0.00    +0.176 A 
ATOM     23  C   LIG    1       -1.645  -3.155  -0.606  0.00  0.00    +0.162 A 
ATOM     24  C   LIG    1       -2.769  -3.690  -1.162  0.00  0.00    +0.049 A 
ATOM     25  C   LIG    1       -3.680  -2.896  -1.808  0.00  0.00    +0.004 A 
ATOM     26  C   LIG    1       -3.448  -1.548  -1.891  0.00  0.00    +0.004 A 
ATOM     27  C   LIG    1       -2.325  -1.001  -1.338  0.00  0.00    +0.050 A 
BRANCH  23  28
ATOM     28  O   LIG    1       -0.749  -3.989   0.039  0.00  0.00    -0.491 OA
ATOM     29  C   LIG    1       -0.992  -5.377   0.122  0.00  0.00    +0.277 C 
ENDBRANCH  23  28
ENDBRANCH  21  22
ENDBRANCH   1  21
TORSDOF 9
