REMARK  Name = molecules/ADEBPBSSDYVVLD-FQEVSTJZSA-N.pdb
REMARK                            x       y       z     vdW  Elec       q    Type
REMARK                         _______ _______ _______ _____ _____    ______ ____
ROOT
ATOM      1  O   LIG    1       -1.833  -2.869  -0.497  0.00  0.00    -0.292 OA
ATOM      2  C   LIG    1       -2.072  -2.056   0.446  0.00  0.00    +0.167 C 
ATOM      3  C   LIG    1       -1.583  -2.033   1.817  0.00  0.00    +0.065 C 
ATOM      4  C   LIG    1       -2.129  -0.800   2.433  0.00  0.00    +0.047 C 
ATOM      5  C   LIG    1       -3.000  -0.192   1.412  0.00  0.00    -0.033 A 
ATOM      6  C   LIG    1       -3.814   0.949   1.425  0.00  0.00    +0.053 A 
ATOM      7  C   LIG    1       -4.558   1.345   0.342  0.00  0.00    +0.162 A 
ATOM      8  C   LIG    1       -4.529   0.618  -0.822  0.00  0.00    +0.162 A 
ATOM      9  C   LIG    1       -3.732  -0.505  -0.844  0.00  0.00    +0.061 A 
ATOM     10  C   LIG    1       -2.966  -0.924   0.251  0.00  0.00    +0.025 A 
ENDROOT
BRANCH   7  11
ATOM     11  O   LIG    1       -5.361   2.477   0.367  0.00  0.00    -0.491 OA
ATOM     12  C   LIG    1       -5.427   3.261   1.543  0.00  0.00    +0.277 C 
ENDBRANCH   7  11
BRANCH   8  13
ATOM     13  O   LIG    1       -5.272   0.998  -1.931  0.00  0.00    -0.491 OA
ATOM     14  C   LIG    1       -5.211   0.221  -3.105  0.00  0.00    +0.277 C 
ENDBRANCH   8  13
BRANCH   3  15
ATOM     15  C   LIG    1       -0.114  -2.208   2.016  0.00  0.00    +0.015 C 
BRANCH  15  16
ATOM     16  C   LIG    1        0.791  -1.208   1.404  0.00  0.00    -0.008 C 
ATOM     17  C   LIG    1        2.210  -1.581   1.767  0.00  0.00    +0.019 C 
ATOM     18  C   LIG    1        2.909  -2.104   0.542  0.00  0.00    +0.085 C 
ATOM     19  N   LIG    1        3.074  -1.053  -0.420  0.00  0.00    -0.298 NA
ATOM     20  C   LIG    1        1.855  -0.360  -0.667  0.00  0.00    +0.085 C 
ATOM     21  C   LIG    1        0.673  -1.167  -0.087  0.00  0.00    +0.019 C 
BRANCH  19  22
ATOM     22  C   LIG    1        4.200  -0.248  -0.072  0.00  0.00    +0.119 C 
BRANCH  22  23
ATOM     23  C   LIG    1        4.628   0.726  -1.075  0.00  0.00    -0.033 A 
ATOM     24  C   LIG    1        5.330   1.852  -0.685  0.00  0.00    +0.005 A 
ATOM     25  C   LIG    1        5.747   2.796  -1.600  0.00  0.00    +0.000 A 
ATOM     26  C   LIG    1        5.455   2.606  -2.916  0.00  0.00    +0.000 A 
ATOM     27  C   LIG    1        4.756   1.489  -3.320  0.00  0.00    +0.000 A 
ATOM     28  C   LIG    1        4.330   0.528  -2.401  0.00  0.00    +0.005 A 
ENDBRANCH  22  23
ENDBRANCH  19  22
ENDBRANCH  15  16
ENDBRANCH   3  15
TORSDOF 6
