REMARK  Name = molecules/ADIMAYPTOBDMTL-HNNXBMFYSA-N.pdb
REMARK                            x       y       z     vdW  Elec       q    Type
REMARK                         _______ _______ _______ _____ _____    ______ ____
ROOT
ATOM      1 CL   LIG    1       -1.117   4.395  -0.411  0.00  0.00    -0.084 Cl
ATOM      2  C   LIG    1       -1.512   2.706  -0.197  0.00  0.00    +0.042 A 
ATOM      3  C   LIG    1       -2.812   2.331   0.102  0.00  0.00    +0.022 A 
ATOM      4  C   LIG    1       -3.174   1.004   0.286  0.00  0.00    +0.025 A 
ATOM      5  C   LIG    1       -2.225   0.015   0.172  0.00  0.00    +0.043 A 
ATOM      6  N   LIG    1       -2.713  -1.323   0.267  0.00  0.00    -0.281 N 
ATOM      7  H   LIG    1       -3.542  -1.438   0.854  0.00  0.00    +0.155 HD
ATOM      8  C   LIG    1       -2.092  -2.411  -0.429  0.00  0.00    +0.269 C 
ATOM      9  O   LIG    1       -2.585  -3.540  -0.227  0.00  0.00    -0.270 OA
ATOM     10  C   LIG    1       -0.931  -2.368  -1.367  0.00  0.00    +0.320 C 
ATOM     11  N   LIG    1        0.187  -1.635  -0.781  0.00  0.00    -0.243 NA
ATOM     12  C   LIG    1        0.229  -0.445  -0.235  0.00  0.00    +0.078 C 
ATOM     13  C   LIG    1       -0.912   0.403  -0.124  0.00  0.00    +0.023 A 
ATOM     14  C   LIG    1       -0.555   1.721  -0.312  0.00  0.00    +0.032 A 
ENDROOT
BRANCH  12  15
ATOM     15  C   LIG    1        1.534  -0.029   0.233  0.00  0.00    +0.001 A 
ATOM     16  C   LIG    1        1.729   1.088   0.985  0.00  0.00    +0.010 A 
ATOM     17  C   LIG    1        3.026   1.494   1.323  0.00  0.00    +0.001 A 
ATOM     18  C   LIG    1        4.086   0.757   0.895  0.00  0.00    +0.000 A 
ATOM     19  C   LIG    1        3.888  -0.368   0.142  0.00  0.00    +0.001 A 
ATOM     20  C   LIG    1        2.648  -0.789  -0.205  0.00  0.00    +0.010 A 
ENDBRANCH  12  15
BRANCH  10  21
ATOM     21  O   LIG    1       -0.500  -3.677  -1.536  0.00  0.00    -0.364 OA
ATOM     22  H   LIG    1       -0.497  -4.200  -0.691  0.00  0.00    +0.212 HD
ENDBRANCH  10  21
TORSDOF 2
