REMARK  Name = molecules/AEMRFAOFKBGASW-UHFFFAOYSA-N.pdb
REMARK                            x       y       z     vdW  Elec       q    Type
REMARK                         _______ _______ _______ _____ _____    ______ ____
ROOT
ATOM      1  C   LIG    1        0.905  -0.414  -0.001  0.00  0.00    +0.330 C 
ATOM      2  O   LIG    1        1.522  -1.486  -0.046  0.00  0.00    -0.248 OA
ENDROOT
BRANCH   1   3
ATOM      3  O   LIG    1        1.580   0.771   0.118  0.00  0.00    -0.479 OA
ATOM      4  H   LIG    1        1.349   1.392   0.879  0.00  0.00    +0.295 HD
ENDBRANCH   1   3
BRANCH   1   5
ATOM      5  C   LIG    1       -0.578  -0.378  -0.073  0.00  0.00    +0.276 C 
BRANCH   5   6
ATOM      6  O   LIG    1       -1.070   0.909  -0.005  0.00  0.00    -0.384 OA
ATOM      7  H   LIG    1       -1.851   1.028  -0.596  0.00  0.00    +0.210 HD
ENDBRANCH   5   6
ENDBRANCH   1   5
TORSDOF 3
