REMARK  Name = molecules/AEOCXXJPGCBFJA-UHFFFAOYSA-N.pdb
REMARK                            x       y       z     vdW  Elec       q    Type
REMARK                         _______ _______ _______ _____ _____    ______ ____
ROOT
ATOM      1  C   LIG    1        1.233   0.174   0.251  0.00  0.00    +0.006 A 
ATOM      2  C   LIG    1       -0.063  -0.285   0.144  0.00  0.00    +0.033 A 
ATOM      3  C   LIG    1       -1.070   0.640  -0.070  0.00  0.00    +0.042 A 
ATOM      4  N   LIG    1       -0.774   1.946  -0.170  0.00  0.00    -0.260 NA
ATOM      5  C   LIG    1        0.469   2.449  -0.075  0.00  0.00    +0.111 A 
ATOM      6  C   LIG    1        1.488   1.526   0.141  0.00  0.00    +0.030 A 
ENDROOT
BRANCH   1   7
ATOM      7  C   LIG    1        2.334  -0.750   0.477  0.00  0.00    +0.077 C 
ATOM      8  S   LIG    1        2.575  -1.310   1.981  0.00  0.00    -0.035 S 
BRANCH   7   9
ATOM      9  N   LIG    1        3.193  -1.172  -0.571  0.00  0.00    -0.352 N 
ATOM     10  H   LIG    1        4.232  -1.292  -0.443  0.00  0.00    +0.143 HD
ATOM     11  H   LIG    1        2.752  -1.365  -1.501  0.00  0.00    +0.143 HD
ENDBRANCH   7   9
ENDBRANCH   1   7
BRANCH   3  12
ATOM     12  C   LIG    1       -2.502   0.229  -0.198  0.00  0.00    +0.052 C 
ATOM     13  C   LIG    1       -2.639  -1.266  -0.060  0.00  0.00    +0.010 C 
ENDBRANCH   3  12
TORSDOF 3
