REMARK  Name = molecules/AEUTYOVWOVBAKS-UWVGGRQHSA-N.pdb
REMARK                            x       y       z     vdW  Elec       q    Type
REMARK                         _______ _______ _______ _____ _____    ______ ____
ROOT
ATOM      1  C   LIG    1        0.459  -0.388   0.690  0.00  0.00    +0.096 C 
ENDROOT
BRANCH   1   2
ATOM      2  N   LIG    1        1.624  -1.042   0.173  0.00  0.00    -0.310 NA
ATOM      3  H   LIG    1        1.396  -1.929  -0.299  0.00  0.00    +0.122 HD
BRANCH   2   4
ATOM      4  CA  LIG    1        2.597  -0.225  -0.453  0.00  0.00    +0.079 C 
BRANCH   4   5
ATOM      5  C   LIG    1        3.170   0.776   0.535  0.00  0.00    +0.017 C 
ATOM      6  C   LIG    1        4.212   1.609  -0.212  0.00  0.00    +0.005 C 
ENDBRANCH   4   5
BRANCH   4   7
ATOM      7  C   LIG    1        3.704  -1.150  -0.957  0.00  0.00    +0.174 C 
BRANCH   7   8
ATOM      8  O   LIG    1        4.275  -1.849   0.101  0.00  0.00    -0.393 OA
ATOM      9  H   LIG    1        3.607  -2.297   0.654  0.00  0.00    +0.209 HD
ENDBRANCH   7   8
ENDBRANCH   4   7
ENDBRANCH   2   4
ENDBRANCH   1   2
BRANCH   1  10
ATOM     10  C   LIG    1       -0.361   0.144  -0.482  0.00  0.00    +0.096 C 
BRANCH  10  11
ATOM     11  N   LIG    1       -1.535   0.799  -0.087  0.00  0.00    -0.310 NA
ATOM     12  H   LIG    1       -1.733   1.718  -0.511  0.00  0.00    +0.122 HD
BRANCH  11  13
ATOM     13  CA  LIG    1       -2.595   0.110   0.503  0.00  0.00    +0.079 C 
BRANCH  13  14
ATOM     14  C   LIG    1       -3.592   1.131   1.009  0.00  0.00    +0.017 C 
ATOM     15  C   LIG    1       -4.788   0.552   1.672  0.00  0.00    +0.005 C 
ENDBRANCH  13  14
BRANCH  13  16
ATOM     16  C   LIG    1       -3.209  -0.920  -0.379  0.00  0.00    +0.174 C 
BRANCH  16  17
ATOM     17  O   LIG    1       -2.239  -1.862  -0.709  0.00  0.00    -0.393 OA
ATOM     18  H   LIG    1       -2.636  -2.388  -1.465  0.00  0.00    +0.209 HD
ENDBRANCH  16  17
ENDBRANCH  13  16
ENDBRANCH  11  13
ENDBRANCH  10  11
ENDBRANCH   1  10
TORSDOF 11
