REMARK  Name = molecules/AFSYRVDDZGJTIL-OCAPTIKFSA-N.pdb
REMARK                            x       y       z     vdW  Elec       q    Type
REMARK                         _______ _______ _______ _____ _____    ______ ____
ROOT
ATOM      1  O   LIG    1        0.690   0.553  -0.573  0.00  0.00    -0.380 OA
ENDROOT
BRANCH   1   2
ATOM      2  C   LIG    1       -0.596   1.006  -0.479  0.00  0.00    +0.162 C 
BRANCH   2   3
ATOM      3  C   LIG    1       -1.529   0.117   0.281  0.00  0.00    +0.059 C 
BRANCH   3   5
ATOM      4  C   LIG    1       -3.938   0.021   0.992  0.00  0.00    +0.037 C 
ATOM      5  C   LIG    1       -2.900   0.808   0.262  0.00  0.00    +0.114 C 
BRANCH   5   6
ATOM      6  O   LIG    1       -2.742   2.042   0.894  0.00  0.00    -0.392 OA
ATOM      7  H   LIG    1       -2.837   2.797   0.266  0.00  0.00    +0.210 HD
ENDBRANCH   5   6
ENDBRANCH   3   5
ENDBRANCH   2   3
ENDBRANCH   1   2
BRANCH   1   8
ATOM      8  C   LIG    1        0.873  -0.645  -1.182  0.00  0.00    +0.162 C 
BRANCH   8   9
ATOM      9  C   LIG    1        2.354  -0.967  -1.186  0.00  0.00    +0.059 C 
BRANCH   9  10
ATOM     10  C   LIG    1        2.895  -1.040   0.226  0.00  0.00    +0.114 C 
ATOM     11  C   LIG    1        2.718   0.256   0.963  0.00  0.00    +0.037 C 
BRANCH  10  12
ATOM     12  O   LIG    1        4.246  -1.365   0.223  0.00  0.00    -0.392 OA
ATOM     13  H   LIG    1        4.458  -2.163  -0.289  0.00  0.00    +0.210 HD
ENDBRANCH  10  12
ENDBRANCH   9  10
ENDBRANCH   8   9
ENDBRANCH   1   8
TORSDOF 8
