REMARK  Name = molecules/AGBQKNBQESQNJD-ZETCQYMHSA-N.pdb
REMARK                            x       y       z     vdW  Elec       q    Type
REMARK                         _______ _______ _______ _____ _____    ______ ____
ROOT
ATOM      1  C   LIG    1        0.169  -0.255  -0.741  0.00  0.00    +0.002 C 
ENDROOT
BRANCH   1   2
ATOM      2  C   LIG    1       -0.326  -0.920   0.519  0.00  0.00    +0.015 C 
BRANCH   2   3
ATOM      3  C   LIG    1       -1.834  -0.964   0.606  0.00  0.00    +0.058 C 
ATOM      4  C   LIG    1       -2.337   0.406   0.629  0.00  0.00    +0.026 C 
ATOM      5  C   LIG    1       -3.696   0.579   0.050  0.00  0.00    +0.082 C 
ATOM      6  S   LIG    1       -3.661  -0.214  -1.607  0.00  0.00    -0.093 S 
ATOM      7  S   LIG    1       -2.357  -1.803  -0.938  0.00  0.00    -0.090 S 
ENDBRANCH   2   3
ENDBRANCH   1   2
BRANCH   1   8
ATOM      8  C   LIG    1        1.673  -0.253  -0.788  0.00  0.00    +0.011 C 
BRANCH   8   9
ATOM      9  C   LIG    1        2.234   0.516   0.365  0.00  0.00    +0.120 C 
BRANCH   9  10
ATOM     10  C   LIG    1        3.721   0.533   0.348  0.00  0.00    +0.305 C 
ATOM     11  O   LIG    1        4.405  -0.120   1.163  0.00  0.00    -0.251 OA
BRANCH  10  12
ATOM     12  O   LIG    1        4.346   1.318  -0.632  0.00  0.00    -0.481 OA
ATOM     13  H   LIG    1        4.659   0.758  -1.445  0.00  0.00    +0.295 HD
ENDBRANCH  10  12
ENDBRANCH   9  10
ENDBRANCH   8   9
ENDBRANCH   1   8
TORSDOF 6
