REMARK  Name = molecules/AGJBLWCLQCKRJP-IBGZPJMESA-N.pdb
REMARK                            x       y       z     vdW  Elec       q    Type
REMARK                         _______ _______ _______ _____ _____    ______ ____
ROOT
ATOM      1  C   LIG    1       -1.854  -0.806  -0.358  0.00  0.00    +0.131 C 
ENDROOT
BRANCH   1   4
ATOM      2  C   LIG    1       -4.027  -3.697   0.593  0.00  0.00    +0.000 A 
ATOM      3  C   LIG    1       -3.162  -2.636   0.737  0.00  0.00    +0.004 A 
ATOM      4  C   LIG    1       -2.771  -1.952  -0.384  0.00  0.00    -0.033 A 
ATOM      5  C   LIG    1       -3.265  -2.366  -1.599  0.00  0.00    +0.004 A 
ATOM      6  C   LIG    1       -4.131  -3.431  -1.735  0.00  0.00    +0.000 A 
ATOM      7  C   LIG    1       -4.521  -4.110  -0.626  0.00  0.00    +0.000 A 
ENDBRANCH   1   4
BRANCH   1   8
ATOM      8  C   LIG    1       -2.288   0.300   0.555  0.00  0.00    +0.007 C 
ATOM      9  C   LIG    1       -1.262   1.407   0.481  0.00  0.00    +0.004 C 
ATOM     10  C   LIG    1       -1.918   2.775   0.607  0.00  0.00    +0.000 C 
ATOM     11  C   LIG    1       -2.892   3.058  -0.499  0.00  0.00    +0.000 C 
ATOM     12  C   LIG    1       -3.606   1.815  -0.943  0.00  0.00    +0.000 C 
ATOM     13  C   LIG    1       -3.636   0.862   0.240  0.00  0.00    +0.004 C 
ENDBRANCH   1   8
BRANCH   1  14
ATOM     14  C   LIG    1       -0.519  -1.297   0.135  0.00  0.00    +0.315 C 
ATOM     15  O   LIG    1       -0.311  -2.474   0.479  0.00  0.00    -0.250 OA
BRANCH  14  16
ATOM     16  O   LIG    1        0.507  -0.396   0.201  0.00  0.00    -0.463 OA
BRANCH  16  17
ATOM     17  C   LIG    1        1.823  -0.711   0.644  0.00  0.00    +0.247 C 
BRANCH  17  18
ATOM     18  C   LIG    1        2.653   0.544   0.562  0.00  0.00    +0.125 C 
BRANCH  18  19
ATOM     19  N   LIG    1        4.004   0.432   0.973  0.00  0.00    -0.300 NA
BRANCH  19  20
ATOM     20  C   LIG    1        4.653   1.726   0.836  0.00  0.00    +0.081 C 
ATOM     21  C   LIG    1        6.085   1.698   1.250  0.00  0.00    +0.020 C 
ENDBRANCH  19  20
BRANCH  19  22
ATOM     22  C   LIG    1        4.701  -0.605   0.294  0.00  0.00    +0.081 C 
ATOM     23  C   LIG    1        4.905  -0.345  -1.184  0.00  0.00    +0.020 C 
ENDBRANCH  19  22
ENDBRANCH  18  19
ENDBRANCH  17  18
ENDBRANCH  16  17
ENDBRANCH  14  16
ENDBRANCH   1  14
TORSDOF 9
