REMARK  Name = molecules/AGMMTXLNIQSRCG-SECBINFHSA-N.pdb
REMARK                            x       y       z     vdW  Elec       q    Type
REMARK                         _______ _______ _______ _____ _____    ______ ____
ROOT
ATOM      1  O   LIG    1        0.108   2.658   0.102  0.00  0.00    -0.270 OA
ATOM      2  C   LIG    1        0.528   1.475   0.049  0.00  0.00    +0.247 C 
ATOM      3  N   LIG    1        1.910   1.151   0.079  0.00  0.00    -0.293 N 
ATOM      4  C   LIG    1        2.298  -0.180   0.483  0.00  0.00    +0.158 C 
ATOM      5  N   LIG    1        1.401  -1.171  -0.072  0.00  0.00    -0.325 N 
ATOM      6  C   LIG    1        0.017  -0.880  -0.103  0.00  0.00    +0.042 A 
ATOM      7  C   LIG    1       -0.884  -1.931  -0.194  0.00  0.00    +0.045 A 
ATOM      8  C   LIG    1       -2.232  -1.647  -0.225  0.00  0.00    +0.069 A 
ATOM      9  C   LIG    1       -2.737  -0.365  -0.169  0.00  0.00    +0.124 A 
ATOM     10  C   LIG    1       -1.825   0.669  -0.078  0.00  0.00    +0.045 A 
ATOM     11 CL   LIG    1       -3.330  -3.009  -0.340  0.00  0.00    -0.081 Cl
ATOM     12  H   LIG    1        1.763  -2.098  -0.450  0.00  0.00    +0.148 HD
ATOM     13  H   LIG    1        2.621   1.858  -0.184  0.00  0.00    +0.151 HD
ATOM     14  C   LIG    1       -0.473   0.411  -0.046  0.00  0.00    +0.059 A 
ENDROOT
BRANCH   9  15
ATOM     15  S   LIG    1       -4.458  -0.148  -0.216  0.00  0.00    +0.057 S 
ATOM     16  O   LIG    1       -5.047  -0.857   0.992  0.00  0.00    -0.153 OA
ATOM     17  O   LIG    1       -4.969  -0.786  -1.473  0.00  0.00    -0.153 OA
BRANCH  15  18
ATOM     18  N   LIG    1       -4.935   1.485  -0.139  0.00  0.00    -0.203 NA
ATOM     19  H   LIG    1       -4.249   2.118  -0.650  0.00  0.00    +0.144 HD
ATOM     20  H   LIG    1       -5.827   1.578  -0.712  0.00  0.00    +0.144 HD
ENDBRANCH  15  18
ENDBRANCH   9  15
BRANCH   4  21
ATOM     21  C   LIG    1        3.697  -0.526  -0.008  0.00  0.00    +0.038 C 
ATOM     22  C   LIG    1        4.653   0.488   0.596  0.00  0.00    +0.007 C 
ENDBRANCH   4  21
TORSDOF 3
