REMARK  Name = molecules/AGPKZVBTJJNPAG-WHFBIAKZSA-N.pdb
REMARK                            x       y       z     vdW  Elec       q    Type
REMARK                         _______ _______ _______ _____ _____    ______ ____
ROOT
ATOM      1  CA  ILE A  1        0.826  -0.091  -0.537  0.00  0.00    +0.163 C 
ENDROOT
BRANCH   1   2
ATOM      2  N   ILE A  1        0.661  -1.458  -0.906  0.00  0.00    -0.318 NA
ATOM      3  H1  ILE A  1        1.150  -2.055  -0.206  0.00  0.00    +0.119 HD
ATOM      4  H2  ILE A  1        1.083  -1.675  -1.835  0.00  0.00    +0.119 HD
ENDBRANCH   1   2
BRANCH   1   5
ATOM      5  CB  ILE A  1       -0.321   0.480   0.241  0.00  0.00    +0.013 C 
ATOM      6  CG2 ILE A  1       -0.025   1.939   0.523  0.00  0.00    +0.009 C 
BRANCH   5   8
ATOM      7  CD1 ILE A  1       -2.007  -1.024  -0.816  0.00  0.00    +0.004 C 
ATOM      8  CG1 ILE A  1       -1.635   0.415  -0.493  0.00  0.00    +0.002 C 
ENDBRANCH   5   8
ENDBRANCH   1   5
BRANCH   1   9
ATOM      9  C   ILE A  1        2.045   0.039   0.302  0.00  0.00    +0.322 C 
ATOM     10  OXT ILE A  1        2.442   1.141   0.776  0.00  0.00    -0.249 OA
BRANCH   9  11
ATOM     11  O   ILE A  1        2.813  -1.074   0.604  0.00  0.00    -0.480 OA
ATOM     12  H   ILE A  1        2.741  -1.487   1.525  0.00  0.00    +0.295 HD
ENDBRANCH   9  11
ENDBRANCH   1   9
TORSDOF 5
