REMARK  Name = molecules/AHEVKYYGXVEWNO-UEPZRUIBSA-N.pdb
REMARK                            x       y       z     vdW  Elec       q    Type
REMARK                         _______ _______ _______ _____ _____    ______ ____
ROOT
ATOM      1  C   UNK    1       -1.983  -0.332   1.651  0.00  0.00    +0.190 C 
ATOM      2  C   UNK    1       -0.519  -0.317   1.357  0.00  0.00    +0.211 C 
ATOM      3  O   UNK    1        0.271  -0.010   2.264  0.00  0.00    -0.288 OA
ATOM      4  C   UNK    1       -0.025  -0.655   0.038  0.00  0.00    +0.121 C 
ATOM      5  C   UNK    1       -0.893  -1.126  -0.875  0.00  0.00    +0.127 C 
ATOM      6  C   UNK    1       -2.312  -1.304  -0.602  0.00  0.00    +0.129 C 
ATOM      7  C   UNK    1       -2.632   0.893   1.146  0.00  0.00    +0.141 C 
ATOM      8  C   UNK    1       -3.934   0.932   0.974  0.00  0.00    +0.047 C 
ATOM      9  C   UNK    1       -4.761  -0.218   1.279  0.00  0.00    +0.062 C 
ATOM     10  C   UNK    1       -4.072  -1.560   1.155  0.00  0.00    +0.020 C 
ATOM     11  C   UNK    1       -6.068  -0.314   0.555  0.00  0.00    +0.096 C 
ATOM     12  C   UNK    1       -7.166  -0.727   1.556  0.00  0.00    +0.047 C 
ATOM     13  C   UNK    1       -6.531   0.953  -0.054  0.00  0.00    -0.001 A 
ATOM     14  C   UNK    1       -5.853   2.131  -0.077  0.00  0.00    +0.069 A 
ATOM     15  C   UNK    1       -6.406   3.263  -0.652  0.00  0.00    +0.128 A 
ATOM     16  C   UNK    1       -7.655   3.211  -1.217  0.00  0.00    +0.046 A 
ATOM     17  C   UNK    1       -8.352   2.034  -1.204  0.00  0.00    +0.004 A 
ATOM     18  C   UNK    1       -7.790   0.927  -0.628  0.00  0.00    +0.007 A 
ATOM     19  C   UNK    1       -4.492   2.163   0.456  0.00  0.00    +0.197 C 
ATOM     20  O   UNK    1       -3.840   3.261   0.451  0.00  0.00    -0.287 OA
ATOM     21  C   UNK    1       -2.604  -1.476   0.845  0.00  0.00    +0.061 C 
ENDROOT
BRANCH   4  22
ATOM     22  C   UNK    1        1.363  -0.521  -0.376  0.00  0.00    +0.252 C 
ATOM     23  N   UNK    1        2.418   0.033   0.365  0.00  0.00    -0.299 N 
ATOM     24  H   UNK    1        2.288   0.427   1.315  0.00  0.00    +0.150 HD
ATOM     25  O   UNK    1        1.687  -0.944  -1.537  0.00  0.00    -0.270 OA
BRANCH  23  26
ATOM     26  C   UNK    1        3.769   0.084  -0.182  0.00  0.00    +0.189 C 
BRANCH  26  27
ATOM     27  N   UNK    1        4.537   1.173   0.371  0.00  0.00    -0.301 NA
ATOM     28  H   UNK    1        4.488   1.198   1.396  0.00  0.00    +0.123 HD
BRANCH  27  29
ATOM     29  C   UNK    1        5.907   1.129  -0.094  0.00  0.00    +0.082 C 
BRANCH  29  30
ATOM     30  C   UNK    1        6.629   0.115   0.725  0.00  0.00    +0.015 C 
BRANCH  30  31
ATOM     31  C   UNK    1        8.061  -0.119   0.355  0.00  0.00    +0.003 C 
BRANCH  31  32
ATOM     32  C   UNK    1        8.849   1.164   0.370  0.00  0.00    +0.030 C 
BRANCH  32  33
ATOM     33  C   UNK    1       10.312   0.905   0.030  0.00  0.00    +0.161 C 
BRANCH  33  34
ATOM     34  N   UNK    1       10.411   0.249  -1.273  0.00  0.00    -0.318 NA
ATOM     35  H   UNK    1       10.527  -0.785  -1.167  0.00  0.00    +0.119 HD
ATOM     36  H   UNK    1        9.594   0.507  -1.874  0.00  0.00    +0.119 HD
ENDBRANCH  33  34
BRANCH  33  37
ATOM     37  C   UNK    1       10.960   0.034   1.016  0.00  0.00    +0.322 C 
ATOM     38  O   UNK    1       11.085   0.507   2.198  0.00  0.00    -0.249 OA
BRANCH  37  39
ATOM     39  O   UNK    1       11.434  -1.222   0.772  0.00  0.00    -0.480 OA
ATOM     40  H   UNK    1       11.419  -1.918   1.513  0.00  0.00    +0.295 HD
ENDBRANCH  37  39
ENDBRANCH  33  37
ENDBRANCH  32  33
ENDBRANCH  31  32
ENDBRANCH  30  31
ENDBRANCH  29  30
ENDBRANCH  27  29
ENDBRANCH  26  27
ENDBRANCH  23  26
ENDBRANCH   4  22
BRANCH   6  41
ATOM     41  N   UNK    1       -2.961  -2.307  -1.389  0.00  0.00    -0.299 NA
ATOM     42  C   UNK    1       -2.192  -3.454  -1.720  0.00  0.00    +0.105 C 
ATOM     43  C   UNK    1       -3.717  -1.736  -2.491  0.00  0.00    +0.105 C 
ENDBRANCH   6  41
BRANCH   7  44
ATOM     44  O   UNK    1       -1.812   1.978   0.868  0.00  0.00    -0.507 OA
ATOM     45  H   UNK    1       -1.148   2.346   1.549  0.00  0.00    +0.292 HD
ENDBRANCH   7  44
BRANCH   1  46
ATOM     46  O   UNK    1       -2.268  -0.514   2.987  0.00  0.00    -0.373 OA
ATOM     47  H   UNK    1       -1.455  -0.670   3.541  0.00  0.00    +0.211 HD
ENDBRANCH   1  46
BRANCH  11  48
ATOM     48  O   UNK    1       -6.096  -1.294  -0.425  0.00  0.00    -0.384 OA
ATOM     49  H   UNK    1       -7.022  -1.623  -0.507  0.00  0.00    +0.211 HD
ENDBRANCH  11  48
BRANCH  15  50
ATOM     50  O   UNK    1       -5.637   4.430  -0.624  0.00  0.00    -0.506 OA
ATOM     51  H   UNK    1       -6.019   5.265  -1.042  0.00  0.00    +0.292 HD
ENDBRANCH  15  50
BRANCH   5  52
ATOM     52  O   UNK    1       -0.400  -1.463  -2.152  0.00  0.00    -0.509 OA
ATOM     53  H   UNK    1       -0.397  -0.772  -2.918  0.00  0.00    +0.292 HD
ENDBRANCH   5  52
TORSDOF 17
