REMARK  Name = molecules/AHHFEZNOXOZZQA-ZEBDFXRSSA-N.pdb
REMARK                            x       y       z     vdW  Elec       q    Type
REMARK                         _______ _______ _______ _____ _____    ______ ____
ROOT
ATOM      1  C   LIG    1       -1.080   0.425   0.581  0.00  0.00    +0.169 C 
ATOM      2  C   LIG    1       -1.273  -1.043   0.744  0.00  0.00    +0.176 C 
ATOM      3  C   LIG    1       -2.350  -1.646  -0.073  0.00  0.00    +0.179 C 
ATOM      4  C   LIG    1       -3.048  -0.747  -1.020  0.00  0.00    +0.201 C 
ATOM      5  C   LIG    1       -2.676   0.688  -0.958  0.00  0.00    +0.281 C 
ATOM      6  O   LIG    1       -1.291   0.773  -0.752  0.00  0.00    -0.341 OA
ENDROOT
BRANCH   2   7
ATOM      7  O   LIG    1       -1.449  -1.301   2.124  0.00  0.00    -0.387 OA
ATOM      8  H   LIG    1       -2.352  -1.701   2.227  0.00  0.00    +0.210 HD
ENDBRANCH   2   7
BRANCH   3   9
ATOM      9  O   LIG    1       -1.854  -2.804  -0.717  0.00  0.00    -0.386 OA
ATOM     10  H   LIG    1       -0.960  -3.048  -0.392  0.00  0.00    +0.210 HD
ENDBRANCH   3   9
BRANCH   4  11
ATOM     11  O   LIG    1       -4.453  -0.827  -0.907  0.00  0.00    -0.384 OA
ATOM     12  H   LIG    1       -4.737  -0.665   0.027  0.00  0.00    +0.210 HD
ENDBRANCH   4  11
BRANCH   5  13
ATOM     13  O   LIG    1       -3.280   1.390   0.079  0.00  0.00    -0.352 OA
ATOM     14  C   LIG    1       -3.936   2.527  -0.358  0.00  0.00    +0.197 C 
ENDBRANCH   5  13
BRANCH   1  15
ATOM     15  C   LIG    1        0.301   0.894   0.956  0.00  0.00    +0.140 C 
BRANCH  15  16
ATOM     16  N   LIG    1        1.295   0.276   0.130  0.00  0.00    -0.295 N 
ATOM     17  C   LIG    1        2.659   0.592   0.332  0.00  0.00    +0.324 C 
ATOM     18  O   LIG    1        2.975   1.400   1.221  0.00  0.00    -0.251 OA
ATOM     19  N   LIG    1        3.665  -0.015  -0.484  0.00  0.00    -0.140 N 
ATOM     20  H   LIG    1        0.998  -0.394  -0.603  0.00  0.00    +0.150 HD
BRANCH  19  21
ATOM     21  N   LIG    1        3.329  -0.923  -1.486  0.00  0.00    +0.053 NA
ATOM     22  O   LIG    1        3.123  -0.571  -2.651  0.00  0.00    -0.126 OA
ENDBRANCH  19  21
BRANCH  19  23
ATOM     23  C   LIG    1        5.045   0.310  -0.274  0.00  0.00    +0.155 C 
BRANCH  23  24
ATOM     24  C   LIG    1        5.664  -0.642   0.738  0.00  0.00    +0.130 C 
ATOM     25 CL   LIG    1        5.546  -2.288   0.134  0.00  0.00    -0.124 Cl
ENDBRANCH  23  24
ENDBRANCH  19  23
ENDBRANCH  15  16
ENDBRANCH   1  15
TORSDOF 9
