REMARK  Name = molecules/AHJRHEGDXFFMBM-UHFFFAOYSA-N.pdb
REMARK                            x       y       z     vdW  Elec       q    Type
REMARK                         _______ _______ _______ _____ _____    ______ ____
ROOT
ATOM      1  N   LIG    1        0.045   0.633  -0.102  0.00  0.00    -0.222 NA
ATOM      2  C   LIG    1       -0.160  -0.672   0.024  0.00  0.00    +0.222 A 
ATOM      3  N   LIG    1       -1.403  -1.154   0.009  0.00  0.00    -0.199 NA
ATOM      4  C   LIG    1       -2.436  -0.317  -0.133  0.00  0.00    +0.137 A 
ATOM      5  N   LIG    1       -3.684  -0.813  -0.160  0.00  0.00    -0.249 N 
ATOM      6  C   LIG    1       -4.709   0.015  -0.313  0.00  0.00    +0.252 C 
ATOM      7  O   LIG    1       -5.864  -0.495  -0.333  0.00  0.00    -0.270 OA
ATOM      8  C   LIG    1       -4.621   1.404  -0.453  0.00  0.00    +0.068 C 
ATOM      9  C   LIG    1       -3.346   1.922  -0.424  0.00  0.00    +0.045 C 
ATOM     10  C   LIG    1       -3.110   3.381  -0.500  0.00  0.00    +0.023 C 
ATOM     11  C   LIG    1       -5.834   2.184  -0.635  0.00  0.00    +0.162 C 
ATOM     12  O   LIG    1       -6.934   1.501  -0.619  0.00  0.00    -0.292 OA
ATOM     13  C   LIG    1       -6.017   3.606  -0.837  0.00  0.00    +0.091 C 
ATOM     14  C   LIG    1       -2.249   1.067  -0.266  0.00  0.00    +0.023 A 
ATOM     15  C   LIG    1       -0.956   1.513  -0.246  0.00  0.00    +0.122 A 
ENDROOT
BRANCH   5  16
ATOM     16  C   LIG    1       -3.892  -2.251  -0.021  0.00  0.00    +0.083 C 
ATOM     17  C   LIG    1       -4.672  -2.601   1.202  0.00  0.00    +0.023 C 
ATOM     18  C   LIG    1       -5.400  -3.875   0.839  0.00  0.00    +0.002 C 
ATOM     19  C   LIG    1       -5.669  -3.780  -0.653  0.00  0.00    +0.002 C 
ATOM     20  C   LIG    1       -4.585  -2.859  -1.192  0.00  0.00    +0.023 C 
ENDBRANCH   5  16
BRANCH   2  21
ATOM     21  N   LIG    1        0.913  -1.597   0.177  0.00  0.00    -0.268 N 
ATOM     22  H   LIG    1        0.724  -2.611   0.273  0.00  0.00    +0.156 HD
BRANCH  21  23
ATOM     23  C   LIG    1        2.251  -1.071   0.193  0.00  0.00    +0.125 A 
ATOM     24  C   LIG    1        3.329  -1.914   0.337  0.00  0.00    +0.045 A 
ATOM     25  C   LIG    1        4.623  -1.397   0.352  0.00  0.00    +0.028 A 
ATOM     26  C   LIG    1        4.864  -0.045   0.224  0.00  0.00    +0.048 A 
ATOM     27  C   LIG    1        3.738   0.763   0.080  0.00  0.00    +0.136 A 
ATOM     28  N   LIG    1        2.494   0.242   0.069  0.00  0.00    -0.238 NA
BRANCH  26  29
ATOM     29  N   LIG    1        6.178   0.499   0.236  0.00  0.00    -0.326 N 
ATOM     30  C   LIG    1        7.281  -0.412   0.389  0.00  0.00    +0.120 C 
ATOM     31  C   LIG    1        8.621   0.268   0.201  0.00  0.00    +0.100 C 
ATOM     32  N   LIG    1        8.564   1.495   1.011  0.00  0.00    -0.313 NA
ATOM     33  H   LIG    1        8.015   1.240   1.885  0.00  0.00    +0.122 HD
ATOM     34  C   LIG    1        7.723   2.415   0.261  0.00  0.00    +0.100 C 
ATOM     35  C   LIG    1        6.322   1.938   0.095  0.00  0.00    +0.120 C 
ENDBRANCH  26  29
ENDBRANCH  21  23
ENDBRANCH   2  21
TORSDOF 4
