REMARK  Name = molecules/AHLBNYSZXLDEJQ-FWEHEUNISA-N.pdb
REMARK                            x       y       z     vdW  Elec       q    Type
REMARK                         _______ _______ _______ _____ _____    ______ ____
ROOT
ATOM      1  C   LIG    1        0.515   1.047   0.455  0.00  0.00    +0.180 C 
ENDROOT
BRANCH   1   2
ATOM      2  C   LIG    1        1.429  -0.147   0.461  0.00  0.00    +0.090 C 
BRANCH   2   3
ATOM      3  C   LIG    1        2.186  -0.402  -0.754  0.00  0.00    +0.194 C 
ATOM      4  C   LIG    1        3.019  -1.649  -0.756  0.00  0.00    +0.138 C 
ATOM      5  C   LIG    1        2.757  -1.546  -2.183  0.00  0.00    +0.314 C 
ATOM      6  O   LIG    1        3.298  -1.787  -3.308  0.00  0.00    -0.250 OA
ATOM      7  O   LIG    1        1.512  -1.015  -1.856  0.00  0.00    -0.460 OA
BRANCH   4   8
ATOM      8  C   LIG    1        4.424  -1.435  -0.269  0.00  0.00    +0.018 C 
BRANCH   8   9
ATOM      9  C   LIG    1        5.238  -2.659  -0.445  0.00  0.00    +0.001 C 
BRANCH   9  10
ATOM     10  C   LIG    1        4.713  -3.867   0.259  0.00  0.00    +0.000 C 
BRANCH  10  11
ATOM     11  C   LIG    1        5.569  -5.079  -0.121  0.00  0.00    -0.000 C 
BRANCH  11  12
ATOM     12  C   LIG    1        7.014  -4.832   0.233  0.00  0.00    -0.003 C 
ATOM     13  C   LIG    1        7.808  -6.058  -0.203  0.00  0.00    +0.004 C 
ENDBRANCH  11  12
ENDBRANCH  10  11
ENDBRANCH   9  10
ENDBRANCH   8   9
ENDBRANCH   4   8
ENDBRANCH   2   3
ENDBRANCH   1   2
BRANCH   1  14
ATOM     14  C   LIG    1       -0.722   0.762  -0.421  0.00  0.00    +0.045 C 
BRANCH  14  15
ATOM     15  C   LIG    1       -1.305  -0.444   0.229  0.00  0.00    +0.004 C 
BRANCH  15  16
ATOM     16  C   LIG    1       -2.650  -0.854  -0.269  0.00  0.00    +0.000 C 
BRANCH  16  17
ATOM     17  C   LIG    1       -3.645   0.187   0.087  0.00  0.00    +0.000 C 
BRANCH  17  18
ATOM     18  C   LIG    1       -5.080  -0.343  -0.265  0.00  0.00    +0.000 C 
BRANCH  18  19
ATOM     19  C   LIG    1       -5.197  -1.630   0.462  0.00  0.00    -0.000 C 
BRANCH  19  20
ATOM     20  C   LIG    1       -6.499  -2.255   0.640  0.00  0.00    -0.000 C 
BRANCH  20  21
ATOM     21  C   LIG    1       -7.306  -2.516  -0.548  0.00  0.00    -0.000 C 
BRANCH  21  22
ATOM     22  C   LIG    1       -7.858  -1.305  -1.264  0.00  0.00    -0.000 C 
BRANCH  22  23
ATOM     23  C   LIG    1       -8.729  -0.482  -0.304  0.00  0.00    -0.003 C 
ATOM     24  C   LIG    1       -9.840  -1.417   0.172  0.00  0.00    +0.004 C 
ENDBRANCH  22  23
ENDBRANCH  21  22
ENDBRANCH  20  21
ENDBRANCH  19  20
ENDBRANCH  18  19
ENDBRANCH  17  18
ENDBRANCH  16  17
ENDBRANCH  15  16
ENDBRANCH  14  15
ENDBRANCH   1  14
BRANCH   1  25
ATOM     25  O   LIG    1        1.100   2.281   0.264  0.00  0.00    -0.460 OA
BRANCH  25  26
ATOM     26  C   LIG    1        0.609   3.271   1.322  0.00  0.00    +0.328 C 
ATOM     27  O   LIG    1       -0.182   2.967   2.023  0.00  0.00    -0.249 OA
BRANCH  26  28
ATOM     28  C   LIG    1        1.458   4.566   1.168  0.00  0.00    +0.182 C 
BRANCH  28  29
ATOM     29  N   LIG    1        2.628   4.288   1.780  0.00  0.00    -0.305 N 
ATOM     30  H   LIG    1        1.885   4.086   2.972  0.00  0.00    +0.149 HD
ATOM     31  C   LIG    1        3.721   3.978   2.514  0.00  0.00    +0.326 C 
ATOM     32  O   LIG    1        3.999   3.621   3.634  0.00  0.00    -0.280 OA
ENDBRANCH  28  29
BRANCH  28  33
ATOM     33  C   LIG    1        1.262   5.091  -0.213  0.00  0.00    +0.036 C 
BRANCH  33  34
ATOM     34  C   LIG    1        2.140   6.264  -0.492  0.00  0.00    -0.015 C 
ATOM     35  C   LIG    1        3.572   5.768  -0.535  0.00  0.00    +0.007 C 
ATOM     36  C   LIG    1        1.782   7.163  -1.633  0.00  0.00    +0.007 C 
ENDBRANCH  33  34
ENDBRANCH  28  33
ENDBRANCH  26  28
ENDBRANCH  25  26
ENDBRANCH   1  25
TORSDOF 23
