REMARK  Name = molecules/AHZBEVXBKNYXPU-UHFFFAOYSA-N.pdb
REMARK                            x       y       z     vdW  Elec       q    Type
REMARK                         _______ _______ _______ _____ _____    ______ ____
ROOT
ATOM      1  C   LIG    1        1.072   0.582   1.137  0.00  0.00    +0.002 C 
ENDROOT
BRANCH   1   2
ATOM      2  C   LIG    1        1.066   2.038   1.435  0.00  0.00    +0.019 C 
BRANCH   2   3
ATOM      3  C   LIG    1        2.276   2.709   0.868  0.00  0.00    +0.111 C 
BRANCH   3   5
ATOM      4  C   LIG    1        4.169   1.142   0.692  0.00  0.00    +0.408 C 
ATOM      5  N   LIG    1        3.517   2.189   1.383  0.00  0.00    -0.270 N 
ATOM      6  C   LIG    1        4.042   2.772   2.602  0.00  0.00    +0.135 C 
ATOM      7  O   LIG    1        3.751   0.624  -0.373  0.00  0.00    -0.226 OA
BRANCH   4   8
ATOM      8  O   LIG    1        5.377   0.588   1.168  0.00  0.00    -0.414 OA
BRANCH   8   9
ATOM      9  C   LIG    1        6.016  -0.432   0.498  0.00  0.00    +0.132 C 
ATOM     10  C   LIG    1        5.714  -1.737   0.800  0.00  0.00    +0.095 C 
ATOM     11  C   LIG    1        6.353  -2.772   0.131  0.00  0.00    +0.001 C 
ATOM     12  C   LIG    1        7.286  -2.454  -0.832  0.00  0.00    +0.071 C 
ATOM     13  N   LIG    1        7.589  -1.175  -1.135  0.00  0.00    -0.313 N 
ATOM     14  C   LIG    1        8.582  -0.913  -2.160  0.00  0.00    +0.134 C 
ATOM     15  C   LIG    1        6.956  -0.188  -0.472  0.00  0.00    +0.117 C 
ENDBRANCH   8   9
ENDBRANCH   4   8
ENDBRANCH   3   5
ENDBRANCH   2   3
ENDBRANCH   1   2
BRANCH   1  16
ATOM     16  C   LIG    1       -0.144  -0.135   1.692  0.00  0.00    +0.002 C 
BRANCH  16  17
ATOM     17  C   LIG    1       -1.442   0.372   1.160  0.00  0.00    +0.019 C 
BRANCH  17  18
ATOM     18  C   LIG    1       -1.544   0.237  -0.324  0.00  0.00    +0.111 C 
BRANCH  18  19
ATOM     19  N   LIG    1       -2.835   0.750  -0.772  0.00  0.00    -0.270 N 
ATOM     20  C   LIG    1       -3.926  -0.159  -0.838  0.00  0.00    +0.408 C 
ATOM     21  O   LIG    1       -3.813  -1.371  -0.527  0.00  0.00    -0.226 OA
ATOM     22  C   LIG    1       -2.970   2.146  -1.130  0.00  0.00    +0.135 C 
BRANCH  20  23
ATOM     23  O   LIG    1       -5.179   0.271  -1.256  0.00  0.00    -0.414 OA
BRANCH  23  24
ATOM     24  C   LIG    1       -6.262  -0.585  -1.333  0.00  0.00    +0.132 C 
ATOM     25  C   LIG    1       -7.071  -0.730  -0.229  0.00  0.00    +0.117 C 
ATOM     26  N   LIG    1       -8.146  -1.546  -0.225  0.00  0.00    -0.313 N 
ATOM     27  C   LIG    1       -8.951  -1.649   0.971  0.00  0.00    +0.134 C 
ATOM     28  C   LIG    1       -8.423  -2.229  -1.336  0.00  0.00    +0.071 C 
ATOM     29  C   LIG    1       -7.664  -2.143  -2.490  0.00  0.00    +0.001 C 
ATOM     30  C   LIG    1       -6.573  -1.302  -2.465  0.00  0.00    +0.095 C 
ENDBRANCH  23  24
ENDBRANCH  20  23
ENDBRANCH  18  19
ENDBRANCH  17  18
ENDBRANCH  16  17
ENDBRANCH   1  16
TORSDOF 11
