REMARK  Name = molecules/AIJTTZAVMXIJGM-JTQLQIEISA-N.pdb
REMARK                            x       y       z     vdW  Elec       q    Type
REMARK                         _______ _______ _______ _____ _____    ______ ____
ROOT
ATOM      1  O   LIG    1        3.199  -1.623   2.405  0.00  0.00    -0.286 OA
ATOM      2  C   LIG    1        2.920  -1.036   1.324  0.00  0.00    +0.204 A 
ATOM      3  C   LIG    1        1.638  -0.926   0.862  0.00  0.00    +0.052 A 
ATOM      4  C   LIG    1        0.586  -1.460   1.574  0.00  0.00    -0.001 A 
ATOM      5  C   LIG    1        0.850  -2.170   2.869  0.00  0.00    +0.047 C 
ATOM      6  C   LIG    1       -0.734  -1.351   1.109  0.00  0.00    +0.148 A 
ATOM      7  F   LIG    1       -1.745  -1.881   1.859  0.00  0.00    -0.203 F 
ATOM      8  C   LIG    1       -0.984  -0.702  -0.078  0.00  0.00    +0.068 A 
ATOM      9  C   LIG    1        0.094  -0.172  -0.777  0.00  0.00    +0.052 A 
ATOM     10  C   LIG    1        1.398  -0.277  -0.320  0.00  0.00    +0.055 A 
ATOM     11  N   LIG    1        2.402   0.268  -1.060  0.00  0.00    -0.343 N 
ATOM     12  C   LIG    1        3.660   0.173  -0.631  0.00  0.00    +0.105 A 
ATOM     13  C   LIG    1        3.941  -0.470   0.549  0.00  0.00    +0.122 A 
ENDROOT
BRANCH   8  14
ATOM     14  N   LIG    1       -2.295  -0.601  -0.592  0.00  0.00    -0.325 N 
ATOM     15  C   LIG    1       -3.366  -1.529  -0.291  0.00  0.00    +0.120 C 
ATOM     16  C   LIG    1       -4.372  -0.695   0.513  0.00  0.00    +0.100 C 
ATOM     17  N   LIG    1       -4.848   0.311  -0.433  0.00  0.00    -0.311 NA
ATOM     18  C   LIG    1       -3.831   1.205  -0.863  0.00  0.00    +0.068 C 
ATOM     19  C   LIG    1       -3.265   2.015   0.279  0.00  0.00    +0.025 C 
ATOM     20  H   LIG    1       -5.328  -0.120  -1.242  0.00  0.00    +0.122 HD
ATOM     21  C   LIG    1       -2.660   0.459  -1.513  0.00  0.00    +0.123 C 
ENDBRANCH   8  14
BRANCH  11  22
ATOM     22  C   LIG    1        2.022   0.927  -2.289  0.00  0.00    +0.087 C 
ATOM     23  C   LIG    1        1.577   2.369  -2.077  0.00  0.00    +0.027 C 
ATOM     24  C   LIG    1        2.840   2.036  -2.840  0.00  0.00    +0.027 C 
ENDBRANCH  11  22
BRANCH  13  25
ATOM     25  C   LIG    1        5.301  -0.590   1.043  0.00  0.00    +0.342 C 
ATOM     26  O   LIG    1        6.230  -0.090   0.366  0.00  0.00    -0.245 OA
BRANCH  25  27
ATOM     27  O   LIG    1        5.622  -1.230   2.227  0.00  0.00    -0.477 OA
ATOM     28  H   LIG    1        6.409  -0.889   2.765  0.00  0.00    +0.295 HD
ENDBRANCH  25  27
ENDBRANCH  13  25
TORSDOF 4
