REMARK  Name = molecules/AIWRTTMUVOZGPW-HSPKUQOVSA-N.pdb
REMARK                            x       y       z     vdW  Elec       q    Type
REMARK                         _______ _______ _______ _____ _____    ______ ____
ROOT
ATOM      1  C   LIG    1       -1.313   2.629   0.795  0.00  0.00    +0.166 C 
ENDROOT
BRANCH   1   2
ATOM      2  C   LIG    1       -1.903   1.227   0.886  0.00  0.00    +0.234 C 
ATOM      3  O   LIG    1       -2.764   0.981   1.762  0.00  0.00    -0.274 OA
ATOM      4  N   LIG    1       -1.520   0.147   0.019  0.00  0.00    -0.302 N 
ATOM      5  H   LIG    1       -0.866   0.320  -0.735  0.00  0.00    +0.150 HD
BRANCH   4   6
ATOM      6  C   LIG    1       -2.100  -1.150   0.235  0.00  0.00    +0.168 C 
BRANCH   6   7
ATOM      7  C   LIG    1       -3.368  -1.365  -0.576  0.00  0.00    +0.234 C 
ATOM      8  N   LIG    1       -4.425  -1.996   0.073  0.00  0.00    -0.302 N 
ATOM      9  H   LIG    1       -4.286  -2.255   1.107  0.00  0.00    +0.150 HD
ATOM     10  O   LIG    1       -3.414  -0.987  -1.746  0.00  0.00    -0.274 OA
BRANCH   8  11
ATOM     11  C   LIG    1       -5.750  -2.355  -0.454  0.00  0.00    +0.159 C 
BRANCH  11  12
ATOM     12  C   LIG    1       -6.550  -1.131  -0.381  0.00  0.00    +0.234 C 
ATOM     13  O   LIG    1       -6.107  -0.081   0.128  0.00  0.00    -0.274 OA
ATOM     14  N   LIG    1       -7.875  -1.081  -0.901  0.00  0.00    -0.302 N 
ATOM     15  H   LIG    1       -8.228  -1.953  -1.337  0.00  0.00    +0.150 HD
BRANCH  14  16
ATOM     16  C   LIG    1       -8.702   0.115  -0.881  0.00  0.00    +0.159 C 
BRANCH  16  17
ATOM     17  C   LIG    1       -9.161   0.374   0.492  0.00  0.00    +0.237 C 
ATOM     18  O   LIG    1       -8.764  -0.413   1.419  0.00  0.00    -0.274 OA
ATOM     19  N   LIG    1      -10.007   1.428   0.908  0.00  0.00    -0.288 N 
ATOM     20  C   LIG    1      -10.362   1.805   2.241  0.00  0.00    +0.162 C 
ATOM     21  C   LIG    1      -10.589   3.308   2.222  0.00  0.00    +0.033 C 
ATOM     22  C   LIG    1      -11.130   3.519   0.840  0.00  0.00    +0.021 C 
ATOM     23  C   LIG    1      -10.626   2.381  -0.025  0.00  0.00    +0.109 C 
BRANCH  20  24
ATOM     24  C   LIG    1      -11.543   1.149   2.752  0.00  0.00    +0.234 C 
ATOM     25  O   LIG    1      -12.328   1.756   3.576  0.00  0.00    -0.274 OA
ATOM     26  N   LIG    1      -11.933  -0.156   2.417  0.00  0.00    -0.303 N 
ATOM     27  H   LIG    1      -11.386  -0.730   1.750  0.00  0.00    +0.149 HD
BRANCH  26  28
ATOM     28  C   LIG    1      -13.136  -0.801   2.951  0.00  0.00    +0.156 C 
ATOM     29  C   LIG    1      -12.868  -1.369   4.334  0.00  0.00    +0.038 C 
BRANCH  28  30
ATOM     30  C   LIG    1      -13.591  -1.827   2.023  0.00  0.00    +0.231 C 
ATOM     31  N   LIG    1      -14.743  -2.591   2.363  0.00  0.00    -0.328 N 
ATOM     32  H   LIG    1      -15.641  -2.118   2.574  0.00  0.00    +0.145 HD
ATOM     33  H   LIG    1      -14.645  -3.636   2.380  0.00  0.00    +0.145 HD
ATOM     34  O   LIG    1      -12.980  -2.040   0.956  0.00  0.00    -0.274 OA
ENDBRANCH  28  30
ENDBRANCH  26  28
ENDBRANCH  20  24
ENDBRANCH  16  17
BRANCH  16  35
ATOM     35  C   LIG    1       -9.709   0.004  -1.954  0.00  0.00    +0.032 C 
BRANCH  35  36
ATOM     36  C   LIG    1      -10.634  -1.163  -1.806  0.00  0.00    +0.003 C 
BRANCH  36  37
ATOM     37  C   LIG    1      -11.624  -1.287  -2.916  0.00  0.00    +0.015 C 
BRANCH  37  38
ATOM     38  C   LIG    1      -12.541  -0.146  -3.136  0.00  0.00    +0.081 C 
BRANCH  38  39
ATOM     39  N   LIG    1      -13.291   0.134  -1.921  0.00  0.00    -0.314 NA
ATOM     40  H   LIG    1      -13.684  -0.742  -1.533  0.00  0.00    +0.122 HD
BRANCH  39  41
ATOM     41  C   LIG    1      -14.329   1.111  -2.070  0.00  0.00    +0.047 C 
ATOM     42  C   LIG    1      -14.892   1.300  -0.643  0.00  0.00    +0.023 C 
ATOM     43  C   LIG    1      -13.887   2.448  -2.543  0.00  0.00    +0.023 C 
ENDBRANCH  39  41
ENDBRANCH  38  39
ENDBRANCH  37  38
ENDBRANCH  36  37
ENDBRANCH  35  36
ENDBRANCH  16  35
ENDBRANCH  14  16
ENDBRANCH  11  12
BRANCH  11  44
ATOM     44  C   LIG    1       -6.127  -3.571   0.274  0.00  0.00    +0.034 C 
BRANCH  44  45
ATOM     45  C   LIG    1       -7.405  -4.280   0.086  0.00  0.00    -0.015 C 
ATOM     46  C   LIG    1       -8.597  -3.788   0.834  0.00  0.00    +0.007 C 
ATOM     47  C   LIG    1       -7.737  -4.783  -1.268  0.00  0.00    +0.007 C 
ENDBRANCH  44  45
ENDBRANCH  11  44
ENDBRANCH   8  11
ENDBRANCH   6   7
BRANCH   6  48
ATOM     48  C   LIG    1       -1.104  -2.221  -0.035  0.00  0.00    +0.127 C 
BRANCH  48  49
ATOM     49  C   LIG    1        0.108  -2.114   0.811  0.00  0.00    +0.213 C 
ATOM     50  O   LIG    1        0.274  -1.098   1.576  0.00  0.00    -0.276 OA
ATOM     51  N   LIG    1        1.136  -3.084   0.838  0.00  0.00    -0.329 N 
ATOM     52  H   LIG    1        2.155  -2.831   0.891  0.00  0.00    +0.145 HD
ATOM     53  H   LIG    1        0.888  -4.088   0.805  0.00  0.00    +0.145 HD
ENDBRANCH  48  49
ENDBRANCH   6  48
ENDBRANCH   4   6
ENDBRANCH   1   2
BRANCH   1  55
ATOM     54  C   LIG    1        1.216   2.056   0.847  0.00  0.00    +0.239 C 
ATOM     55  N   LIG    1        0.001   2.472   1.339  0.00  0.00    -0.291 N 
ATOM     56  C   LIG    1        0.003   2.653   2.853  0.00  0.00    +0.133 C 
ATOM     57  O   LIG    1        1.332   1.636  -0.404  0.00  0.00    -0.273 OA
BRANCH  54  58
ATOM     58  CA  LIG    1        2.457   2.018   1.579  0.00  0.00    +0.185 C 
BRANCH  58  61
ATOM     59  C   LIG    1        4.620   0.737   1.205  0.00  0.00    +0.234 C 
ATOM     60  O   LIG    1        4.758   0.535   2.447  0.00  0.00    -0.274 OA
ATOM     61  N   LIG    1        3.525   1.454   0.731  0.00  0.00    -0.301 N 
ATOM     62  H   LIG    1        3.395   1.647  -0.273  0.00  0.00    +0.150 HD
BRANCH  59  63
ATOM     63  CA  LIG    1        5.692   0.174   0.326  0.00  0.00    +0.163 C 
BRANCH  63  65
ATOM     64  C   LIG    1        8.062  -0.596   0.640  0.00  0.00    +0.234 C 
ATOM     65  N   LIG    1        7.015   0.379   0.829  0.00  0.00    -0.302 N 
ATOM     66  H   LIG    1        7.248   1.238   1.337  0.00  0.00    +0.150 HD
ATOM     67  O   LIG    1        7.714  -1.611   0.009  0.00  0.00    -0.274 OA
BRANCH  64  68
ATOM     68  CA  LIG    1        9.429  -0.446   1.117  0.00  0.00    +0.163 C 
BRANCH  68  71
ATOM     69  C   LIG    1       11.748  -1.025   0.242  0.00  0.00    +0.234 C 
ATOM     70  O   LIG    1       12.230   0.001   0.760  0.00  0.00    -0.274 OA
ATOM     71  N   LIG    1       10.361  -1.294   0.413  0.00  0.00    -0.302 N 
ATOM     72  H   LIG    1        9.937  -2.171   0.002  0.00  0.00    +0.150 HD
BRANCH  69  73
ATOM     73  CA  LIG    1       12.582  -1.938  -0.526  0.00  0.00    +0.163 C 
BRANCH  73  76
ATOM     74  C   LIG    1       14.310  -3.494   0.343  0.00  0.00    +0.211 C 
ATOM     75  C   LIG    1       15.586  -3.748   1.046  0.00  0.00    +0.109 C 
ATOM     76  N   LIG    1       13.830  -2.182   0.151  0.00  0.00    -0.304 N 
ATOM     77  H   LIG    1       14.376  -1.380   0.513  0.00  0.00    +0.149 HD
ATOM     78  O   LIG    1       13.648  -4.467  -0.088  0.00  0.00    -0.276 OA
ENDBRANCH  73  76
BRANCH  73  79
ATOM     79  C   LIG    1       12.977  -1.386  -1.899  0.00  0.00    +0.067 C 
BRANCH  79  80
ATOM     80  C   LIG    1       13.789  -0.190  -1.661  0.00  0.00    -0.045 A 
ATOM     81  C   LIG    1       15.167  -0.346  -1.502  0.00  0.00    +0.012 A 
ATOM     82  C   LIG    1       16.029   0.664  -1.242  0.00  0.00    -0.018 A 
ATOM     83  C   LIG    1       17.382   0.482  -1.097  0.00  0.00    +0.008 A 
ATOM     84  C   LIG    1       18.196   1.546  -0.834  0.00  0.00    +0.001 A 
ATOM     85  C   LIG    1       17.683   2.827  -0.709  0.00  0.00    +0.001 A 
ATOM     86  C   LIG    1       16.311   2.995  -0.860  0.00  0.00    +0.008 A 
ATOM     87  C   LIG    1       15.468   1.938  -1.126  0.00  0.00    -0.018 A 
ATOM     88  C   LIG    1       14.114   2.131  -1.277  0.00  0.00    +0.009 A 
ATOM     89  C   LIG    1       13.274   1.076  -1.546  0.00  0.00    +0.004 A 
ENDBRANCH  79  80
ENDBRANCH  73  79
ENDBRANCH  69  73
ENDBRANCH  68  71
BRANCH  68  90
ATOM     90  C   LIG    1        9.402  -0.807   2.607  0.00  0.00    +0.067 C 
BRANCH  90  91
ATOM     91  C   LIG    1       10.727  -0.638   3.252  0.00  0.00    -0.045 A 
ATOM     92  C   LIG    1       11.048   0.608   3.765  0.00  0.00    +0.005 A 
ATOM     93  C   LIG    1       12.274   0.781   4.383  0.00  0.00    +0.020 A 
ATOM     94  C   LIG    1       13.197  -0.240   4.512  0.00  0.00    +0.041 A 
ATOM     95 CL   LIG    1       14.742   0.053   5.325  0.00  0.00    -0.084 Cl
ATOM     96  C   LIG    1       12.858  -1.473   3.993  0.00  0.00    +0.020 A 
ATOM     97  C   LIG    1       11.641  -1.655   3.377  0.00  0.00    +0.005 A 
ENDBRANCH  90  91
ENDBRANCH  68  90
ENDBRANCH  64  68
ENDBRANCH  63  65
BRANCH  63  98
ATOM     98  C   LIG    1        5.521   0.709  -1.095  0.00  0.00    +0.068 C 
BRANCH  98  99
ATOM     99  C   LIG    1        6.456   0.063  -2.057  0.00  0.00    -0.027 A 
ATOM    100  C   LIG    1        7.681   0.595  -2.358  0.00  0.00    +0.006 A 
ATOM    101  C   LIG    1        8.517  -0.020  -3.296  0.00  0.00    +0.020 A 
ATOM    102  C   LIG    1        8.112  -1.181  -3.933  0.00  0.00    +0.111 A 
ATOM    103  N   LIG    1        6.898  -1.685  -3.618  0.00  0.00    -0.263 NA
ATOM    104  C   LIG    1        6.091  -1.098  -2.718  0.00  0.00    +0.114 A 
ENDBRANCH  98  99
ENDBRANCH  63  98
ENDBRANCH  59  63
ENDBRANCH  58  61
BRANCH  58 105
ATOM    105  C   LIG    1        2.959   3.346   2.131  0.00  0.00    +0.187 C 
BRANCH 105 106
ATOM    106  O   LIG    1        3.234   4.295   1.182  0.00  0.00    -0.393 OA
ATOM    107  H   LIG    1        3.666   3.983   0.383  0.00  0.00    +0.209 HD
ENDBRANCH 105 106
ENDBRANCH  58 105
ENDBRANCH  54  58
ENDBRANCH   1  55
BRANCH   1 108
ATOM    108  C   LIG    1       -1.656   3.331  -0.400  0.00  0.00    +0.067 C 
BRANCH 108 109
ATOM    109  C   LIG    1       -1.275   2.990  -1.743  0.00  0.00    -0.045 A 
ATOM    110  C   LIG    1       -0.190   3.415  -2.405  0.00  0.00    +0.007 A 
ATOM    111  C   LIG    1        0.081   3.098  -3.741  0.00  0.00    +0.045 A 
ATOM    112  C   LIG    1       -0.845   2.286  -4.420  0.00  0.00    +0.117 A 
ATOM    113  C   LIG    1       -1.963   1.842  -3.755  0.00  0.00    +0.045 A 
ATOM    114  C   LIG    1       -2.203   2.169  -2.442  0.00  0.00    +0.007 A 
BRANCH 112 115
ATOM    115  O   LIG    1       -0.586   1.970  -5.746  0.00  0.00    -0.507 OA
ATOM    116  H   LIG    1        0.235   2.298  -6.223  0.00  0.00    +0.292 HD
ENDBRANCH 112 115
ENDBRANCH 108 109
ENDBRANCH   1 108
TORSDOF 40
