REMARK  Name = molecules/AIZFEOPQVZBNGH-UHFFFAOYSA-N.pdb
REMARK                            x       y       z     vdW  Elec       q    Type
REMARK                         _______ _______ _______ _____ _____    ______ ____
ROOT
ATOM      1  O   LIG    1       -3.137  -4.268  -0.588  0.00  0.00    -0.273 OA
ATOM      2  C   LIG    1       -2.290  -3.464  -0.248  0.00  0.00    +0.239 C 
ATOM      3  C   LIG    1       -2.583  -2.625   0.959  0.00  0.00    +0.238 C 
ATOM      4  N   LIG    1       -2.434  -1.206   0.601  0.00  0.00    -0.273 NA
ATOM      5  C   LIG    1       -1.368  -0.596   0.107  0.00  0.00    +0.076 C 
ATOM      6  C   LIG    1       -0.067  -1.260  -0.174  0.00  0.00    +0.032 A 
ATOM      7  C   LIG    1        1.106  -0.649   0.094  0.00  0.00    -0.026 A 
ATOM      8  C   LIG    1        1.441   0.597   0.896  0.00  0.00    +0.036 C 
ATOM      9  C   LIG    1        2.454   1.452   0.225  0.00  0.00    +0.005 C 
ATOM     10  C   LIG    1        3.525   0.703  -0.510  0.00  0.00    +0.005 C 
ATOM     11  C   LIG    1        3.631  -0.731  -0.043  0.00  0.00    +0.043 C 
ATOM     12  C   LIG    1        2.256  -1.312  -0.281  0.00  0.00    -0.005 A 
ATOM     13  S   LIG    1        1.666  -2.763  -0.984  0.00  0.00    -0.077 S 
ATOM     14  C   LIG    1        0.012  -2.494  -0.784  0.00  0.00    +0.081 A 
ATOM     15  N   LIG    1       -1.099  -3.405  -1.042  0.00  0.00    -0.278 N 
ATOM     16  H   LIG    1       -0.934  -4.009  -1.839  0.00  0.00    +0.155 HD
ENDROOT
BRANCH   5  17
ATOM     17  C   LIG    1       -1.568   0.788  -0.184  0.00  0.00    +0.001 A 
ATOM     18  C   LIG    1       -2.710   1.398   0.361  0.00  0.00    +0.010 A 
ATOM     19  C   LIG    1       -2.900   2.741   0.174  0.00  0.00    +0.001 A 
ATOM     20  C   LIG    1       -2.014   3.542  -0.533  0.00  0.00    +0.000 A 
ATOM     21  C   LIG    1       -0.907   2.905  -1.052  0.00  0.00    +0.001 A 
ATOM     22  C   LIG    1       -0.713   1.559  -0.869  0.00  0.00    +0.010 A 
ENDBRANCH   5  17
TORSDOF 1
