REMARK  Name = molecules/AJKIRUJIDFJUKJ-UHFFFAOYSA-N.pdb
REMARK                            x       y       z     vdW  Elec       q    Type
REMARK                         _______ _______ _______ _____ _____    ______ ____
ROOT
ATOM      1  C   LIG    1       -0.005  -0.890   0.390  0.00  0.00    +0.173 C 
ENDROOT
BRANCH   1   2
ATOM      2  N   LIG    1        1.135  -0.030   0.479  0.00  0.00    -0.274 NA
ATOM      3  C   LIG    1        2.072  -0.551   1.407  0.00  0.00    +0.192 C 
ATOM      4  N   LIG    1        3.305  -1.012   0.854  0.00  0.00    -0.180 NA
ATOM      5  S   LIG    1        4.130   0.402   0.237  0.00  0.00    +0.032 S 
ATOM      6  O   LIG    1        4.780   1.141   1.356  0.00  0.00    -0.158 OA
ATOM      7  C   LIG    1        2.800   1.371  -0.497  0.00  0.00    +0.200 C 
ATOM      8  O   LIG    1        5.072   0.040  -0.862  0.00  0.00    -0.158 OA
ATOM      9  H   LIG    1        3.222  -1.750   0.141  0.00  0.00    +0.149 HD
ATOM     10  C   LIG    1        1.716   0.325  -0.775  0.00  0.00    +0.111 C 
ENDBRANCH   1   2
BRANCH   1  11
ATOM     11  N   LIG    1       -1.103  -0.334  -0.361  0.00  0.00    -0.274 NA
ATOM     12  C   LIG    1       -1.587   0.897   0.217  0.00  0.00    +0.111 C 
ATOM     13  C   LIG    1       -2.723   1.398  -0.680  0.00  0.00    +0.200 C 
ATOM     14  S   LIG    1       -4.089   0.299  -0.267  0.00  0.00    +0.032 S 
ATOM     15  O   LIG    1       -4.844   0.965   0.841  0.00  0.00    -0.158 OA
ATOM     16  N   LIG    1       -3.274  -1.141   0.305  0.00  0.00    -0.180 NA
ATOM     17  H   LIG    1       -3.911  -1.925   0.111  0.00  0.00    +0.149 HD
ATOM     18  O   LIG    1       -4.921  -0.010  -1.453  0.00  0.00    -0.158 OA
ATOM     19  C   LIG    1       -2.094  -1.333  -0.540  0.00  0.00    +0.192 C 
ENDBRANCH   1  11
TORSDOF 2
