REMARK  Name = molecules/AKFJWRDCWYYTIG-ZDUSSCGKSA-N.pdb
REMARK                            x       y       z     vdW  Elec       q    Type
REMARK                         _______ _______ _______ _____ _____    ______ ____
ROOT
ATOM      1  C   LIG    1        0.660  -0.246   1.904  0.00  0.00    +0.125 C 
ATOM      2  C   LIG    1        1.057   1.232   1.898  0.00  0.00    +0.024 C 
ENDROOT
BRANCH   1   3
ATOM      3  C   LIG    1       -0.803  -0.325   1.724  0.00  0.00    -0.033 A 
ATOM      4  C   LIG    1       -1.620  -0.879   2.684  0.00  0.00    +0.005 A 
ATOM      5  C   LIG    1       -2.995  -0.951   2.510  0.00  0.00    +0.009 A 
ATOM      6  C   LIG    1       -3.566  -0.454   1.340  0.00  0.00    -0.014 A 
ATOM      7  C   LIG    1       -4.948  -0.521   1.155  0.00  0.00    +0.054 A 
ATOM      8  C   LIG    1       -5.484  -0.025  -0.004  0.00  0.00    +0.121 A 
ATOM      9  C   LIG    1       -4.662   0.525  -0.956  0.00  0.00    +0.046 A 
ATOM     10  C   LIG    1       -3.296   0.610  -0.812  0.00  0.00    +0.012 A 
ATOM     11  C   LIG    1       -2.754   0.101   0.376  0.00  0.00    -0.017 A 
ATOM     12  C   LIG    1       -1.385   0.159   0.578  0.00  0.00    +0.013 A 
BRANCH   8  13
ATOM     13  O   LIG    1       -6.870  -0.107  -0.160  0.00  0.00    -0.495 OA
ATOM     14  C   LIG    1       -7.423   0.410  -1.368  0.00  0.00    +0.277 C 
ENDBRANCH   8  13
ENDBRANCH   1   3
BRANCH   1  15
ATOM     15  C   LIG    1        1.395  -0.929   0.805  0.00  0.00    +0.314 C 
ATOM     16  O   LIG    1        0.779  -1.484  -0.132  0.00  0.00    -0.250 OA
BRANCH  15  17
ATOM     17  O   LIG    1        2.773  -0.958   0.804  0.00  0.00    -0.464 OA
BRANCH  17  18
ATOM     18  C   LIG    1        3.569  -1.569  -0.181  0.00  0.00    +0.232 C 
BRANCH  18  19
ATOM     19  C   LIG    1        3.344  -0.945  -1.518  0.00  0.00    +0.044 C 
BRANCH  19  20
ATOM     20  C   LIG    1        3.670   0.521  -1.508  0.00  0.00    +0.047 C 
BRANCH  20  21
ATOM     21  C   LIG    1        5.120   0.720  -1.136  0.00  0.00    +0.267 C 
BRANCH  21  22
ATOM     22  O   LIG    1        5.952   0.068  -2.066  0.00  0.00    -0.352 OA
BRANCH  22  23
ATOM     23  N   LIG    1        7.312   0.075  -1.986  0.00  0.00    +0.217 N 
ATOM     24  O   LIG    1        7.945  -0.665  -1.206  0.00  0.00    -0.090 OA
ATOM     25  O   LIG    1        8.002   0.935  -2.803  0.00  0.00    -0.090 OA
ENDBRANCH  22  23
ENDBRANCH  21  22
ENDBRANCH  20  21
ENDBRANCH  19  20
ENDBRANCH  18  19
ENDBRANCH  17  18
ENDBRANCH  15  17
ENDBRANCH   1  15
TORSDOF 10
