REMARK  Name = molecules/AKHFYKDNVOFEMG-UHFFFAOYSA-N.pdb
REMARK                            x       y       z     vdW  Elec       q    Type
REMARK                         _______ _______ _______ _____ _____    ______ ____
ROOT
ATOM      1  C   LIG    1        1.561  -0.012  -0.053  0.00  0.00    +0.107 A 
ATOM      2  C   LIG    1        0.728  -1.103   0.111  0.00  0.00    +0.051 A 
ATOM      3  C   LIG    1       -0.635  -0.929   0.069  0.00  0.00    +0.034 A 
ATOM      4  C   LIG    1       -1.155   0.327  -0.134  0.00  0.00    +0.005 A 
ATOM      5  C   LIG    1       -0.319   1.439  -0.300  0.00  0.00    +0.012 A 
ATOM      6  C   LIG    1        1.062   1.250  -0.256  0.00  0.00    +0.029 A 
ENDROOT
BRANCH   1   7
ATOM      7  S   LIG    1        3.316  -0.215  -0.002  0.00  0.00    +0.056 S 
ATOM      8  O   LIG    1        3.704  -1.603  -0.423  0.00  0.00    -0.153 OA
ATOM      9  O   LIG    1        3.982   0.776  -0.908  0.00  0.00    -0.153 OA
BRANCH   7  10
ATOM     10  N   LIG    1        3.795  -0.017   1.637  0.00  0.00    -0.204 NA
ATOM     11  H   LIG    1        3.271   0.751   2.113  0.00  0.00    +0.144 HD
ATOM     12  H   LIG    1        4.828   0.076   1.746  0.00  0.00    +0.144 HD
ENDBRANCH   7  10
ENDBRANCH   1   7
BRANCH   3  13
ATOM     13  N   LIG    1       -1.500  -2.034   0.234  0.00  0.00    -0.357 N 
ATOM     14  H   LIG    1       -1.922  -2.310   1.160  0.00  0.00    +0.142 HD
ATOM     15  H   LIG    1       -1.778  -2.656  -0.570  0.00  0.00    +0.142 HD
ENDBRANCH   3  13
TORSDOF 3
REMARK  Name = molecules/AKHFYKDNVOFEMG-UHFFFAOYSA-N.pdb
REMARK                            x       y       z     vdW  Elec       q    Type
REMARK                         _______ _______ _______ _____ _____    ______ ____
ROOT
ATOM      1 AS   LIG    1       -3.063   0.547  -0.188  0.00  0.00    +0.000 As
ATOM      2  O   LIG    1       -3.781   0.033   1.224  0.00  0.00    +0.000 OA
ENDROOT
BRANCH   1   3
ATOM      3  O   LIG    1       -3.507   2.321  -0.453  0.00  0.00    +0.000 OA
ATOM      4  H   LIG    1       -3.095   2.845   0.286  0.00  0.00    +0.000 HD
ENDBRANCH   1   3
BRANCH   1   5
ATOM      5  O   LIG    1       -3.777  -0.474  -1.538  0.00  0.00    +0.000 OA
ATOM      6  H   LIG    1       -3.876  -1.420  -1.256  0.00  0.00    +0.000 HD
ENDBRANCH   1   5
TORSDOF 2
