REMARK  Name = molecules/AKLNLVOZXMQGSI-LSDHHAIUSA-N.pdb
REMARK                            x       y       z     vdW  Elec       q    Type
REMARK                         _______ _______ _______ _____ _____    ______ ____
ROOT
ATOM      1  C   LIG    1       -2.212   0.833  -0.279  0.00  0.00    +0.162 A 
ATOM      2  C   LIG    1       -2.978   1.949  -0.037  0.00  0.00    +0.049 A 
ATOM      3  C   LIG    1       -2.354   3.162   0.214  0.00  0.00    +0.004 A 
ATOM      4  C   LIG    1       -0.998   3.297   0.233  0.00  0.00    +0.004 A 
ATOM      5  C   LIG    1       -0.236   2.183  -0.007  0.00  0.00    +0.049 A 
ATOM      6  C   LIG    1       -0.774   0.926  -0.267  0.00  0.00    +0.162 A 
ENDROOT
BRANCH   1   7
ATOM      7  O   LIG    1       -2.676  -0.388  -0.544  0.00  0.00    -0.486 OA
BRANCH   7   8
ATOM      8  C   LIG    1       -3.717  -1.167  -0.740  0.00  0.00    +0.260 C 
BRANCH   8   9
ATOM      9  C   LIG    1       -4.802  -1.428   0.243  0.00  0.00    +0.156 C 
ATOM     10  C   LIG    1       -5.685  -0.231   0.492  0.00  0.00    +0.037 C 
ATOM     11  C   LIG    1       -7.038  -0.879   0.785  0.00  0.00    +0.031 C 
ATOM     12  C   LIG    1       -6.928  -2.165   0.030  0.00  0.00    +0.160 C 
ATOM     13  O   LIG    1       -5.655  -2.363  -0.383  0.00  0.00    -0.373 OA
ENDBRANCH   8   9
ENDBRANCH   7   8
ENDBRANCH   1   7
BRANCH   6  14
ATOM     14  O   LIG    1       -0.101  -0.151  -0.504  0.00  0.00    -0.486 OA
BRANCH  14  15
ATOM     15  C   LIG    1        0.875  -0.976  -0.706  0.00  0.00    +0.261 C 
BRANCH  15  16
ATOM     16  C   LIG    1        1.992  -1.140   0.342  0.00  0.00    +0.166 C 
BRANCH  16  17
ATOM     17  O   LIG    1        2.749  -2.272  -0.109  0.00  0.00    -0.387 OA
ATOM     18  H   LIG    1        2.348  -3.073   0.288  0.00  0.00    +0.210 HD
ENDBRANCH  16  17
BRANCH  16  19
ATOM     19  C   LIG    1        3.029   0.007   0.130  0.00  0.00    +0.116 C 
BRANCH  19  20
ATOM     20  N   LIG    1        4.169  -0.358   0.900  0.00  0.00    -0.309 NA
ATOM     21  H   LIG    1        4.297  -1.354   1.117  0.00  0.00    +0.123 HD
BRANCH  20  22
ATOM     22  C   LIG    1        5.386   0.328   0.620  0.00  0.00    +0.011 C 
ATOM     23  C   LIG    1        6.224   0.417   1.875  0.00  0.00    +0.027 C 
ATOM     24  C   LIG    1        5.288   1.651  -0.052  0.00  0.00    +0.027 C 
ATOM     25  C   LIG    1        6.148  -0.584  -0.388  0.00  0.00    +0.027 C 
ENDBRANCH  20  22
ENDBRANCH  19  20
ENDBRANCH  16  19
ENDBRANCH  15  16
ENDBRANCH  14  15
ENDBRANCH   6  14
TORSDOF 10
