REMARK  Name = molecules/AKPLHCDWDRPJGD-UHFFFAOYSA-N.pdb
REMARK                            x       y       z     vdW  Elec       q    Type
REMARK                         _______ _______ _______ _____ _____    ______ ____
ROOT
ATOM      1 CL   LIG    1       -0.544   4.346   0.386  0.00  0.00    -0.084 Cl
ATOM      2  C   LIG    1       -1.181   2.760   0.036  0.00  0.00    +0.042 A 
ATOM      3  C   LIG    1       -0.399   1.656   0.327  0.00  0.00    +0.032 A 
ATOM      4  C   LIG    1       -0.886   0.401   0.045  0.00  0.00    +0.023 A 
ATOM      5  C   LIG    1        0.079  -0.642   0.362  0.00  0.00    +0.075 C 
ATOM      6  N   LIG    1       -0.246  -1.815   0.852  0.00  0.00    -0.273 NA
ATOM      7  C   LIG    1       -1.593  -2.319   1.167  0.00  0.00    +0.238 C 
ATOM      8  C   LIG    1       -2.508  -2.188  -0.023  0.00  0.00    +0.239 C 
ATOM      9  O   LIG    1       -3.047  -3.246  -0.417  0.00  0.00    -0.273 OA
ATOM     10  N   LIG    1       -2.807  -0.982  -0.725  0.00  0.00    -0.283 N 
ATOM     11  H   LIG    1       -3.552  -1.015  -1.414  0.00  0.00    +0.155 HD
ATOM     12  C   LIG    1       -2.142   0.274  -0.509  0.00  0.00    +0.043 A 
ATOM     13  C   LIG    1       -2.916   1.372  -0.797  0.00  0.00    +0.025 A 
ATOM     14  C   LIG    1       -2.433   2.645  -0.523  0.00  0.00    +0.022 A 
ENDROOT
BRANCH   5  15
ATOM     15  C   LIG    1        1.488  -0.416   0.169  0.00  0.00    +0.001 A 
ATOM     16  C   LIG    1        2.340  -1.345   0.811  0.00  0.00    +0.010 A 
ATOM     17  C   LIG    1        3.687  -1.149   0.761  0.00  0.00    +0.001 A 
ATOM     18  C   LIG    1        4.257  -0.076   0.107  0.00  0.00    +0.000 A 
ATOM     19  C   LIG    1        3.403   0.814  -0.512  0.00  0.00    +0.001 A 
ATOM     20  C   LIG    1        2.022   0.649  -0.487  0.00  0.00    +0.010 A 
ENDBRANCH   5  15
TORSDOF 1
