REMARK  Name = molecules/AKUJBENLRBOFTD-QZIXMDIESA-N.pdb
REMARK                            x       y       z     vdW  Elec       q    Type
REMARK                         _______ _______ _______ _____ _____    ______ ____
ROOT
ATOM      1  C   LIG    1        1.317   0.063   1.345  0.00  0.00    +0.015 C 
ATOM      2  C   LIG    1        0.790  -0.014  -0.025  0.00  0.00    +0.010 C 
ATOM      3  C   LIG    1       -0.247  -1.133  -0.204  0.00  0.00    +0.005 C 
ATOM      4  C   LIG    1       -1.473  -0.965   0.597  0.00  0.00    +0.034 C 
ATOM      5  C   LIG    1       -2.413  -2.093   0.162  0.00  0.00    +0.011 C 
ATOM      6  C   LIG    1       -3.830  -1.880   0.559  0.00  0.00    +0.032 C 
ATOM      7  C   LIG    1       -4.303  -0.513   0.129  0.00  0.00    -0.053 C 
ATOM      8  C   LIG    1       -3.448   0.596   0.683  0.00  0.00    +0.044 C 
ATOM      9  C   LIG    1       -3.566   0.517   2.175  0.00  0.00    +0.023 C 
ATOM     10  C   LIG    1       -3.919   1.920   0.254  0.00  0.00    -0.009 C 
ATOM     11  C   LIG    1       -4.958   2.146  -0.520  0.00  0.00    +0.047 C 
ATOM     12  C   LIG    1       -5.721   1.027  -1.007  0.00  0.00    +0.179 C 
ATOM     13  O   LIG    1       -6.713   1.253  -1.747  0.00  0.00    -0.288 OA
ATOM     14  C   LIG    1       -5.332  -0.318  -0.637  0.00  0.00    +0.051 C 
ATOM     15  C   LIG    1       -2.087   0.359   0.126  0.00  0.00    +0.153 C 
ATOM     16  C   LIG    1       -1.143   1.509   0.247  0.00  0.00    +0.154 C 
ATOM     17  F   LIG    1       -2.269   0.164  -1.256  0.00  0.00    -0.238 F 
ATOM     18  C   LIG    1        0.628  -2.308   0.097  0.00  0.00    +0.011 C 
ATOM     19  C   LIG    1        1.812  -1.990  -0.842  0.00  0.00    +0.026 C 
ATOM     20  C   LIG    1        3.011  -2.652  -0.308  0.00  0.00    +0.011 C 
ATOM     21  C   LIG    1        0.143   1.244  -0.485  0.00  0.00    +0.044 C 
ATOM     22  C   LIG    1        1.783  -0.553  -1.075  0.00  0.00    +0.135 C 
ENDROOT
BRANCH  16  23
ATOM     23  O   LIG    1       -0.964   2.009   1.510  0.00  0.00    -0.389 OA
ATOM     24  H   LIG    1       -1.196   1.442   2.257  0.00  0.00    +0.210 HD
ENDBRANCH  16  23
BRANCH  22  25
ATOM     25  C   LIG    1        2.950   0.249  -1.180  0.00  0.00    +0.202 C 
ATOM     26  O   LIG    1        3.066   0.941  -2.213  0.00  0.00    -0.291 OA
BRANCH  25  27
ATOM     27  C   LIG    1        4.096   0.428  -0.269  0.00  0.00    +0.309 C 
BRANCH  27  28
ATOM     28  O   LIG    1        5.078   1.318  -0.774  0.00  0.00    -0.457 OA
BRANCH  28  29
ATOM     29  C   LIG    1        6.228   1.651  -0.127  0.00  0.00    +0.304 C 
ATOM     30  O   LIG    1        6.461   1.150   0.996  0.00  0.00    -0.251 OA
ATOM     31  C   LIG    1        7.161   2.608  -0.800  0.00  0.00    +0.136 C 
ENDBRANCH  28  29
ENDBRANCH  27  28
ENDBRANCH  25  27
ENDBRANCH  22  25
BRANCH  22  32
ATOM     32  O   LIG    1        0.994  -0.366  -2.253  0.00  0.00    -0.380 OA
ATOM     33  H   LIG    1        1.570  -0.108  -3.006  0.00  0.00    +0.211 HD
ENDBRANCH  22  32
TORSDOF 6
