REMARK  Name = molecules/AKUJBENLRBOFTD-RPRRAYFGSA-N.pdb
REMARK                            x       y       z     vdW  Elec       q    Type
REMARK                         _______ _______ _______ _____ _____    ______ ____
ROOT
ATOM      1  C   LIG    1        1.202  -1.436   1.379  0.00  0.00    +0.015 C 
ATOM      2  C   LIG    1        0.840  -0.355   0.399  0.00  0.00    +0.010 C 
ATOM      3  C   LIG    1        0.416   0.919   1.031  0.00  0.00    +0.044 C 
ATOM      4  C   LIG    1       -0.998   0.948   1.542  0.00  0.00    +0.154 C 
ATOM      5  C   LIG    1       -1.975   0.463   0.540  0.00  0.00    +0.153 C 
ATOM      6  C   LIG    1       -3.399   0.629   0.876  0.00  0.00    +0.044 C 
ATOM      7  C   LIG    1       -3.768   0.105   2.261  0.00  0.00    +0.023 C 
ATOM      8  C   LIG    1       -3.725   2.073   0.925  0.00  0.00    -0.009 C 
ATOM      9  C   LIG    1       -4.678   2.624   0.196  0.00  0.00    +0.047 C 
ATOM     10  C   LIG    1       -5.448   1.807  -0.697  0.00  0.00    +0.179 C 
ATOM     11  C   LIG    1       -5.191   0.393  -0.808  0.00  0.00    +0.051 C 
ATOM     12  O   LIG    1       -6.376   2.315  -1.411  0.00  0.00    -0.288 OA
ATOM     13  C   LIG    1       -4.240  -0.120  -0.072  0.00  0.00    -0.053 C 
ATOM     14  C   LIG    1       -3.941  -1.566  -0.213  0.00  0.00    +0.032 C 
ATOM     15  C   LIG    1       -2.542  -1.584  -0.846  0.00  0.00    +0.011 C 
ATOM     16  C   LIG    1       -1.599  -0.975   0.153  0.00  0.00    +0.034 C 
ATOM     17  F   LIG    1       -1.749   1.208  -0.631  0.00  0.00    -0.238 F 
ATOM     18  C   LIG    1       -0.289  -0.802  -0.530  0.00  0.00    +0.005 C 
ATOM     19  C   LIG    1        0.294  -1.956  -1.214  0.00  0.00    +0.011 C 
ATOM     20  C   LIG    1        1.662  -1.421  -1.589  0.00  0.00    +0.026 C 
ATOM     21  C   LIG    1        1.591  -0.929  -3.008  0.00  0.00    +0.011 C 
ATOM     22  C   LIG    1        1.896  -0.189  -0.691  0.00  0.00    +0.135 C 
ENDROOT
BRANCH   4  23
ATOM     23  O   LIG    1       -1.031   0.385   2.781  0.00  0.00    -0.389 OA
ATOM     24  H   LIG    1       -1.333  -0.525   2.876  0.00  0.00    +0.210 HD
ENDBRANCH   4  23
BRANCH  22  25
ATOM     25  C   LIG    1        3.270  -0.269  -0.215  0.00  0.00    +0.202 C 
ATOM     26  O   LIG    1        3.739  -1.233   0.371  0.00  0.00    -0.291 OA
BRANCH  25  27
ATOM     27  C   LIG    1        4.191   0.877  -0.440  0.00  0.00    +0.309 C 
BRANCH  27  28
ATOM     28  O   LIG    1        5.511   0.581   0.046  0.00  0.00    -0.457 OA
BRANCH  28  29
ATOM     29  C   LIG    1        6.483   1.553  -0.092  0.00  0.00    +0.304 C 
ATOM     30  C   LIG    1        7.874   1.272   0.406  0.00  0.00    +0.136 C 
ATOM     31  O   LIG    1        6.186   2.634  -0.624  0.00  0.00    -0.251 OA
ENDBRANCH  28  29
ENDBRANCH  27  28
ENDBRANCH  25  27
ENDBRANCH  22  25
BRANCH  22  32
ATOM     32  O   LIG    1        1.643   0.972  -1.363  0.00  0.00    -0.380 OA
ATOM     33  H   LIG    1        2.144   1.714  -0.960  0.00  0.00    +0.211 HD
ENDBRANCH  22  32
TORSDOF 6
