REMARK  Name = molecules/ALAXZYHFVBSJKZ-UHFFFAOYSA-N.pdb
REMARK                            x       y       z     vdW  Elec       q    Type
REMARK                         _______ _______ _______ _____ _____    ______ ____
ROOT
ATOM      1  C   LIG    1       -1.439   0.008   0.940  0.00  0.00    +0.247 C 
ATOM      2  O   LIG    1       -1.302   0.540   2.142  0.00  0.00    -0.270 OA
ATOM      3  N   LIG    1       -0.442  -0.870   0.511  0.00  0.00    -0.293 N 
ATOM      4  C   LIG    1        0.699  -1.073   1.440  0.00  0.00    +0.145 C 
ATOM      5  C   LIG    1        1.898  -0.810   0.593  0.00  0.00    -0.004 A 
ATOM      6  C   LIG    1        2.851   0.131   0.850  0.00  0.00    +0.053 A 
ATOM      7  C   LIG    1        3.887   0.247  -0.056  0.00  0.00    +0.155 A 
ATOM      8  N   LIG    1        3.926  -0.563  -1.159  0.00  0.00    -0.133 NA
ATOM      9  N   LIG    1        2.986  -1.472  -1.388  0.00  0.00    -0.152 NA
ATOM     10  C   LIG    1        1.980  -1.614  -0.542  0.00  0.00    +0.070 A 
ATOM     11  C   LIG    1        0.843  -2.576  -0.684  0.00  0.00    +0.076 C 
ATOM     12  C   LIG    1       -0.396  -1.621  -0.700  0.00  0.00    +0.114 C 
ENDROOT
BRANCH   1  13
ATOM     13  C   LIG    1       -2.641   0.458   0.292  0.00  0.00    +0.037 A 
ATOM     14  C   LIG    1       -3.605   1.229   0.962  0.00  0.00    +0.013 A 
ATOM     15  C   LIG    1       -4.765   1.642   0.372  0.00  0.00    +0.001 A 
ATOM     16  C   LIG    1       -5.056   1.321  -0.937  0.00  0.00    +0.000 A 
ATOM     17  C   LIG    1       -4.135   0.572  -1.619  0.00  0.00    +0.001 A 
ATOM     18  C   LIG    1       -2.948   0.155  -0.996  0.00  0.00    +0.013 A 
ENDBRANCH   1  13
BRANCH   7  19
ATOM     19  N   LIG    1        4.886   1.216   0.189  0.00  0.00    -0.266 N 
ATOM     20  H   LIG    1        5.807   0.913   0.556  0.00  0.00    +0.167 HD
BRANCH  19  21
ATOM     21  N   LIG    1        4.591   2.550  -0.083  0.00  0.00    -0.255 NA
ATOM     22  H   LIG    1        5.430   3.113  -0.213  0.00  0.00    +0.140 HD
ATOM     23  H   LIG    1        3.927   2.611  -0.883  0.00  0.00    +0.140 HD
ENDBRANCH  19  21
ENDBRANCH   7  19
TORSDOF 3
