REMARK  Name = molecules/ALBRKUHVWDVWRO-SFHVURJKSA-N.pdb
REMARK                            x       y       z     vdW  Elec       q    Type
REMARK                         _______ _______ _______ _____ _____    ______ ____
ROOT
ATOM      1  C   LIG    1       -1.260  -0.406  -0.382  0.00  0.00    -0.015 A 
ATOM      2  C   LIG    1       -0.111   0.319  -0.151  0.00  0.00    +0.015 A 
ATOM      3  C   LIG    1        1.095  -0.286  -0.412  0.00  0.00    -0.010 A 
ATOM      4  C   LIG    1        2.258   0.413  -0.192  0.00  0.00    -0.010 A 
ATOM      5  C   LIG    1        2.264   1.696   0.280  0.00  0.00    +0.009 A 
ATOM      6  C   LIG    1        3.496   2.334   0.476  0.00  0.00    +0.001 A 
ATOM      7  C   LIG    1        4.682   1.706   0.207  0.00  0.00    +0.001 A 
ATOM      8  C   LIG    1        4.692   0.415  -0.268  0.00  0.00    +0.008 A 
ATOM      9  C   LIG    1        3.477  -0.229  -0.466  0.00  0.00    -0.017 A 
ATOM     10  C   LIG    1        3.464  -1.525  -0.942  0.00  0.00    +0.009 A 
ATOM     11  C   LIG    1        2.309  -2.233  -1.166  0.00  0.00    +0.009 A 
ATOM     12  C   LIG    1        1.128  -1.601  -0.896  0.00  0.00    -0.017 A 
ATOM     13  C   LIG    1       -0.029  -2.293  -1.115  0.00  0.00    +0.009 A 
ATOM     14  C   LIG    1       -1.236  -1.707  -0.861  0.00  0.00    +0.007 A 
ENDROOT
BRANCH   1  16
ATOM     15  C   LIG    1       -2.532   1.653   0.175  0.00  0.00    +0.047 C 
ATOM     16  C   LIG    1       -2.590   0.186  -0.122  0.00  0.00    +0.135 C 
ATOM     17  N   LIG    1       -3.256  -0.466   1.010  0.00  0.00    -0.282 N 
ATOM     18  H   LIG    1       -2.811  -0.920   1.847  0.00  0.00    +0.152 HD
ATOM     19  C   LIG    1       -4.652  -0.359   0.742  0.00  0.00    +0.307 C 
ATOM     20  O   LIG    1       -5.590  -0.459   1.569  0.00  0.00    -0.252 OA
ATOM     21  N   LIG    1       -4.851  -0.112  -0.663  0.00  0.00    -0.238 N 
ATOM     22  H   LIG    1       -5.761   0.012  -1.158  0.00  0.00    +0.159 HD
ATOM     23  C   LIG    1       -3.539  -0.076  -1.215  0.00  0.00    +0.248 C 
ATOM     24  O   LIG    1       -3.317  -0.252  -2.453  0.00  0.00    -0.273 OA
ENDBRANCH   1  16
TORSDOF 1
