REMARK  Name = molecules/ALELTFCQZDXAMQ-MRXNPFEDSA-N.pdb
REMARK                            x       y       z     vdW  Elec       q    Type
REMARK                         _______ _______ _______ _____ _____    ______ ____
ROOT
ATOM      1  C   LIG    1       -0.496  -0.574   0.007  0.00  0.00    +0.050 C 
ATOM      2  C   LIG    1       -0.961   0.554   0.825  0.00  0.00    -0.037 A 
ATOM      3  C   LIG    1       -0.611   0.588   2.134  0.00  0.00    +0.004 A 
ATOM      4  C   LIG    1       -1.012   1.600   2.985  0.00  0.00    +0.000 A 
ATOM      5  C   LIG    1       -1.789   2.599   2.485  0.00  0.00    +0.000 A 
ATOM      6  C   LIG    1       -2.158   2.586   1.163  0.00  0.00    +0.004 A 
ATOM      7  C   LIG    1       -1.762   1.569   0.281  0.00  0.00    -0.043 A 
ATOM      8  C   LIG    1       -2.338   1.853  -1.020  0.00  0.00    +0.040 C 
ATOM      9  C   LIG    1       -2.477   0.772  -2.010  0.00  0.00    +0.040 C 
ATOM     10  C   LIG    1       -2.587  -0.578  -1.403  0.00  0.00    -0.043 A 
ATOM     11  C   LIG    1       -3.697  -1.291  -1.789  0.00  0.00    +0.004 A 
ATOM     12  C   LIG    1       -3.935  -2.568  -1.332  0.00  0.00    +0.000 A 
ATOM     13  C   LIG    1       -3.049  -3.169  -0.463  0.00  0.00    +0.000 A 
ATOM     14  C   LIG    1       -1.906  -2.488  -0.040  0.00  0.00    +0.004 A 
ATOM     15  C   LIG    1       -1.710  -1.226  -0.516  0.00  0.00    -0.037 A 
ENDROOT
BRANCH   1  16
ATOM     16  C   LIG    1        0.578  -1.429   0.465  0.00  0.00    +0.017 C 
BRANCH  16  17
ATOM     17  C   LIG    1        1.919  -0.773   0.673  0.00  0.00    +0.001 C 
ATOM     18  C   LIG    1        2.867  -1.937   1.042  0.00  0.00    +0.009 C 
BRANCH  17  19
ATOM     19  C   LIG    1        2.442  -0.163  -0.618  0.00  0.00    +0.087 C 
BRANCH  19  20
ATOM     20  N   LIG    1        3.744   0.454  -0.404  0.00  0.00    -0.308 NA
ATOM     21  C   LIG    1        3.703   1.447   0.625  0.00  0.00    +0.104 C 
ATOM     22  C   LIG    1        4.167   1.007  -1.675  0.00  0.00    +0.104 C 
ENDBRANCH  19  20
ENDBRANCH  17  19
ENDBRANCH  16  17
ENDBRANCH   1  16
TORSDOF 4
