REMARK  Name = molecules/ALLWOAVDORUJLA-INIZCTEOSA-N.pdb
REMARK                            x       y       z     vdW  Elec       q    Type
REMARK                         _______ _______ _______ _____ _____    ______ ____
ROOT
ATOM      1  CA  LIG    1        0.366  -0.969   0.590  0.00  0.00    +0.186 C 
ENDROOT
BRANCH   1   2
ATOM      2  N   LIG    1        1.671  -0.485   0.190  0.00  0.00    -0.298 N 
ATOM      3  C   LIG    1        2.693  -0.097   1.068  0.00  0.00    +0.245 C 
ATOM      4  O   LIG    1        2.528  -0.145   2.293  0.00  0.00    -0.270 OA
ATOM      5  H   LIG    1        1.854  -0.422  -0.846  0.00  0.00    +0.150 HD
BRANCH   3   6
ATOM      6  C   LIG    1        3.945   0.364   0.510  0.00  0.00    +0.037 A 
ATOM      7  C   LIG    1        4.534   1.558   0.894  0.00  0.00    +0.014 A 
ATOM      8  C   LIG    1        5.708   1.987   0.325  0.00  0.00    +0.021 A 
ATOM      9  C   LIG    1        6.342   1.236  -0.652  0.00  0.00    +0.041 A 
ATOM     10  C   LIG    1        5.749   0.037  -1.033  0.00  0.00    +0.021 A 
ATOM     11 CL   LIG    1        7.827   1.751  -1.389  0.00  0.00    -0.084 Cl
ATOM     12  C   LIG    1        4.574  -0.377  -0.453  0.00  0.00    +0.014 A 
ENDBRANCH   3   6
ENDBRANCH   1   2
BRANCH   1  13
ATOM     13  C   LIG    1        0.005  -2.209  -0.107  0.00  0.00    +0.326 C 
ATOM     14  O   LIG    1        0.827  -2.748  -0.919  0.00  0.00    -0.249 OA
BRANCH  13  15
ATOM     15  OXT LIG    1       -1.207  -2.851   0.063  0.00  0.00    -0.479 OA
ATOM     16  HXT LIG    1       -1.157  -3.783   0.507  0.00  0.00    +0.295 HD
ENDBRANCH  13  15
ENDBRANCH   1  13
BRANCH   1  17
ATOM     17  C   LIG    1       -0.603   0.148   0.223  0.00  0.00    +0.069 C 
BRANCH  17  18
ATOM     18  C   LIG    1       -1.995  -0.133   0.559  0.00  0.00    -0.031 A 
ATOM     19  C   LIG    1       -2.353  -0.882   1.664  0.00  0.00    +0.074 A 
ATOM     20  C   LIG    1       -3.670  -1.147   1.941  0.00  0.00    +0.249 A 
ATOM     21  O   LIG    1       -3.910  -1.842   2.981  0.00  0.00    -0.268 OA
ATOM     22  N   LIG    1       -4.667  -0.686   1.140  0.00  0.00    -0.322 N 
ATOM     23  H   LIG    1       -5.668  -0.905   1.382  0.00  0.00    +0.169 HD
ATOM     24  C   LIG    1       -4.356   0.042   0.061  0.00  0.00    +0.049 A 
ATOM     25  C   LIG    1       -5.396   0.508  -0.716  0.00  0.00    +0.026 A 
ATOM     26  C   LIG    1       -5.109   1.280  -1.827  0.00  0.00    +0.002 A 
ATOM     27  C   LIG    1       -3.816   1.588  -2.168  0.00  0.00    +0.001 A 
ATOM     28  C   LIG    1       -2.788   1.099  -1.360  0.00  0.00    +0.010 A 
ATOM     29  C   LIG    1       -3.016   0.329  -0.246  0.00  0.00    +0.002 A 
ENDBRANCH  17  18
ENDBRANCH   1  17
TORSDOF 6
