REMARK  Name = molecules/ALOBUEHUHMBRLE-FQEVSTJZSA-N.pdb
REMARK                            x       y       z     vdW  Elec       q    Type
REMARK                         _______ _______ _______ _____ _____    ______ ____
ROOT
ATOM      1  C   LIG    1        1.861   1.300   0.591  0.00  0.00    +0.145 C 
ENDROOT
BRANCH   1   2
ATOM      2  C   LIG    1        3.096   0.541   0.277  0.00  0.00    -0.019 A 
ATOM      3  C   LIG    1        3.366  -0.662   0.886  0.00  0.00    +0.008 A 
ATOM      4  C   LIG    1        4.517  -1.359   0.601  0.00  0.00    +0.025 A 
ATOM      5  C   LIG    1        5.462  -0.880  -0.318  0.00  0.00    +0.048 A 
ATOM      6  C   LIG    1        5.149   0.320  -0.900  0.00  0.00    +0.025 A 
ATOM      7  C   LIG    1        3.998   1.040  -0.629  0.00  0.00    +0.008 A 
BRANCH   5   8
ATOM      8  N   LIG    1        6.648  -1.601  -0.580  0.00  0.00    -0.221 N 
ATOM      9  H   LIG    1        6.574  -2.620  -0.791  0.00  0.00    +0.173 HD
BRANCH   8  10
ATOM     10  S   LIG    1        8.204  -0.882  -0.568  0.00  0.00    +0.040 S 
ATOM     11  O   LIG    1        8.453  -0.255   0.805  0.00  0.00    -0.155 OA
ATOM     12  O   LIG    1        9.278  -1.945  -0.751  0.00  0.00    -0.155 OA
ATOM     13  C   LIG    1        8.414   0.385  -1.772  0.00  0.00    +0.218 C 
ENDBRANCH   8  10
ENDBRANCH   5   8
ENDBRANCH   1   2
BRANCH   1  14
ATOM     14  O   LIG    1        2.152   2.673   0.702  0.00  0.00    -0.387 OA
ATOM     15  H   LIG    1        2.492   2.900   1.600  0.00  0.00    +0.210 HD
ENDBRANCH   1  14
BRANCH   1  16
ATOM     16  C   LIG    1        0.903   1.143  -0.548  0.00  0.00    +0.037 C 
BRANCH  16  17
ATOM     17  C   LIG    1       -0.355   1.937  -0.240  0.00  0.00    +0.018 C 
BRANCH  17  18
ATOM     18  C   LIG    1       -1.042   1.434   0.968  0.00  0.00    +0.084 C 
BRANCH  18  19
ATOM     19  N   LIG    1       -1.526   0.148   1.073  0.00  0.00    -0.303 NA
BRANCH  19  20
ATOM     20  C   LIG    1       -0.772  -0.847   1.751  0.00  0.00    +0.081 C 
ATOM     21  C   LIG    1       -1.516  -2.166   1.761  0.00  0.00    +0.020 C 
ENDBRANCH  19  20
BRANCH  19  22
ATOM     22  C   LIG    1       -2.640  -0.324   0.333  0.00  0.00    +0.084 C 
BRANCH  22  23
ATOM     23  C   LIG    1       -2.495  -0.540  -1.111  0.00  0.00    +0.015 C 
BRANCH  23  24
ATOM     24  C   LIG    1       -3.645  -1.129  -1.821  0.00  0.00    +0.001 C 
BRANCH  24  25
ATOM     25  C   LIG    1       -4.945  -0.504  -1.963  0.00  0.00    +0.000 C 
BRANCH  25  26
ATOM     26  C   LIG    1       -5.794  -0.180  -0.797  0.00  0.00    -0.000 C 
BRANCH  26  27
ATOM     27  C   LIG    1       -7.156   0.389  -1.267  0.00  0.00    -0.003 C 
ATOM     28  C   LIG    1       -7.945   0.687  -0.012  0.00  0.00    +0.004 C 
ENDBRANCH  26  27
ENDBRANCH  25  26
ENDBRANCH  24  25
ENDBRANCH  23  24
ENDBRANCH  22  23
ENDBRANCH  19  22
ENDBRANCH  18  19
ENDBRANCH  17  18
ENDBRANCH  16  17
ENDBRANCH   1  16
TORSDOF 15
