REMARK  Name = molecules/AMDBBAQNWSUWGN-RKDXNWHRSA-N.pdb
REMARK                            x       y       z     vdW  Elec       q    Type
REMARK                         _______ _______ _______ _____ _____    ______ ____
ROOT
ATOM      1  C   LIG    1       -0.128   2.432  -0.624  0.00  0.00    +0.064 A 
ATOM      2  C   LIG    1       -1.252   1.662  -0.476  0.00  0.00    +0.049 A 
ATOM      3  C   LIG    1       -1.238   0.267  -0.361  0.00  0.00    +0.065 A 
ATOM      4  C   LIG    1       -0.019  -0.338  -0.402  0.00  0.00    +0.040 A 
ATOM      5  I   LIG    1        0.056  -2.444  -0.428  0.00  0.00    -0.042 I 
ATOM      6  C   LIG    1        1.162   0.358  -0.543  0.00  0.00    +0.065 A 
ATOM      7  I   LIG    1       -3.110   2.633  -0.379  0.00  0.00    -0.041 I 
ATOM      8  C   LIG    1        1.065   1.746  -0.652  0.00  0.00    +0.049 A 
ATOM      9  I   LIG    1        2.871   2.814  -0.833  0.00  0.00    -0.041 I 
ENDROOT
BRANCH   3  10
ATOM     10  C   LIG    1       -2.519  -0.400  -0.240  0.00  0.00    +0.246 C 
ATOM     11  N   LIG    1       -2.831  -1.625   0.336  0.00  0.00    -0.309 N 
ATOM     12  H   LIG    1       -2.141  -2.217   0.805  0.00  0.00    +0.149 HD
ATOM     13  O   LIG    1       -3.549   0.231  -0.735  0.00  0.00    -0.270 OA
BRANCH  11  14
ATOM     14  C   LIG    1       -4.198  -2.116   0.339  0.00  0.00    +0.138 C 
BRANCH  14  15
ATOM     15  C   LIG    1       -4.318  -3.456   0.999  0.00  0.00    +0.157 C 
BRANCH  15  16
ATOM     16  O   LIG    1       -3.892  -3.411   2.328  0.00  0.00    -0.388 OA
ATOM     17  H   LIG    1       -2.988  -3.781   2.379  0.00  0.00    +0.210 HD
ENDBRANCH  15  16
BRANCH  15  18
ATOM     18  C   LIG    1       -5.776  -3.890   0.915  0.00  0.00    +0.188 C 
BRANCH  18  19
ATOM     19  O   LIG    1       -6.127  -3.903  -0.439  0.00  0.00    -0.392 OA
ATOM     20  H   LIG    1       -6.954  -3.352  -0.595  0.00  0.00    +0.210 HD
ENDBRANCH  18  19
ENDBRANCH  15  18
ENDBRANCH  14  15
ENDBRANCH  11  14
ENDBRANCH   3  10
BRANCH   6  21
ATOM     21  C   LIG    1        2.471  -0.250  -0.619  0.00  0.00    +0.246 C 
ATOM     22  N   LIG    1        2.935  -1.438  -0.064  0.00  0.00    -0.309 N 
ATOM     23  H   LIG    1        2.365  -2.055   0.545  0.00  0.00    +0.149 HD
ATOM     24  O   LIG    1        3.344   0.434  -1.315  0.00  0.00    -0.270 OA
BRANCH  22  25
ATOM     25  C   LIG    1        4.335  -1.840  -0.309  0.00  0.00    +0.138 C 
BRANCH  25  26
ATOM     26  C   LIG    1        4.623  -3.156   0.379  0.00  0.00    +0.157 C 
BRANCH  26  27
ATOM     27  O   LIG    1        5.959  -3.468   0.100  0.00  0.00    -0.388 OA
ATOM     28  H   LIG    1        6.028  -4.029  -0.718  0.00  0.00    +0.210 HD
ENDBRANCH  26  27
BRANCH  26  29
ATOM     29  C   LIG    1        4.517  -3.048   1.880  0.00  0.00    +0.188 C 
BRANCH  29  30
ATOM     30  O   LIG    1        5.357  -2.045   2.366  0.00  0.00    -0.392 OA
ATOM     31  H   LIG    1        4.802  -1.325   2.771  0.00  0.00    +0.210 HD
ENDBRANCH  29  30
ENDBRANCH  26  29
ENDBRANCH  25  26
ENDBRANCH  22  25
ENDBRANCH   6  21
BRANCH   1  32
ATOM     32  N   LIG    1       -0.235   3.838  -0.745  0.00  0.00    -0.265 N 
ATOM     33  C   LIG    1        0.161   4.740   0.288  0.00  0.00    +0.245 C 
ATOM     34  O   LIG    1        0.129   5.992   0.085  0.00  0.00    -0.273 OA
BRANCH  32  35
ATOM     35  C   LIG    1       -0.799   4.392  -1.945  0.00  0.00    +0.141 C 
BRANCH  35  36
ATOM     36  C   LIG    1        0.121   4.734  -3.051  0.00  0.00    +0.175 C 
BRANCH  36  37
ATOM     37  O   LIG    1        0.861   3.720  -3.592  0.00  0.00    -0.393 OA
ATOM     38  H   LIG    1        1.790   3.972  -3.838  0.00  0.00    +0.209 HD
ENDBRANCH  36  37
ENDBRANCH  35  36
ENDBRANCH  32  35
BRANCH  33  39
ATOM     39  C   LIG    1        0.621   4.329   1.630  0.00  0.00    +0.252 C 
BRANCH  39  40
ATOM     40  O   LIG    1        0.544   2.979   1.885  0.00  0.00    -0.386 OA
ATOM     41  H   LIG    1        0.312   2.865   2.858  0.00  0.00    +0.210 HD
ENDBRANCH  39  40
ENDBRANCH  33  39
ENDBRANCH   1  32
TORSDOF 18
