REMARK  Name = molecules/AMEROGPZOLAFBN-UHFFFAOYSA-N.pdb
REMARK                            x       y       z     vdW  Elec       q    Type
REMARK                         _______ _______ _______ _____ _____    ______ ____
ROOT
ATOM      1  C   LIG    1       -0.193   2.003   1.282  0.00  0.00    +0.161 C 
ENDROOT
BRANCH   1   2
ATOM      2  N   LIG    1       -1.229   1.318   0.582  0.00  0.00    -0.292 N 
ATOM      3  C   LIG    1       -1.995   0.367   1.210  0.00  0.00    +0.258 A 
ATOM      4  O   LIG    1       -1.768   0.074   2.420  0.00  0.00    -0.267 OA
ATOM      5  C   LIG    1       -3.025  -0.308   0.594  0.00  0.00    +0.044 A 
ATOM      6  C   LIG    1       -3.253   0.032  -0.725  0.00  0.00    +0.049 A 
ATOM      7  N   LIG    1       -2.486   0.967  -1.311  0.00  0.00    -0.238 NA
ATOM      8  C   LIG    1       -4.355  -0.663  -1.453  0.00  0.00    +0.066 C 
ATOM      9  C   LIG    1       -1.478   1.623  -0.699  0.00  0.00    +0.113 A 
BRANCH   5  10
ATOM     10  C   LIG    1       -3.844  -1.332   1.291  0.00  0.00    +0.101 C 
BRANCH  10  11
ATOM     11  C   LIG    1       -3.490  -2.706   0.897  0.00  0.00    +0.055 C 
ATOM     12  S   LIG    1       -2.286  -2.935  -0.175  0.00  0.00    -0.040 S 
BRANCH  11  13
ATOM     13  N   LIG    1       -4.152  -3.829   1.413  0.00  0.00    -0.333 N 
ATOM     14  C   LIG    1       -5.221  -3.652   2.362  0.00  0.00    +0.129 C 
ATOM     15  C   LIG    1       -3.784  -5.157   1.011  0.00  0.00    +0.129 C 
ENDBRANCH  11  13
ENDBRANCH  10  11
ENDBRANCH   5  10
BRANCH   9  16
ATOM     16  C   LIG    1       -0.725   2.610  -1.508  0.00  0.00    +0.074 C 
BRANCH  16  17
ATOM     17  C   LIG    1       -1.363   2.830  -2.867  0.00  0.00    +0.007 C 
BRANCH  17  18
ATOM     18  C   LIG    1       -2.746   3.358  -2.842  0.00  0.00    -0.003 C 
ATOM     19  C   LIG    1       -2.865   4.700  -2.150  0.00  0.00    +0.004 C 
ENDBRANCH  17  18
ENDBRANCH  16  17
ENDBRANCH   9  16
ENDBRANCH   1   2
BRANCH   1  23
ATOM     20  C   LIG    1        3.828   0.395   0.989  0.00  0.00    -0.017 A 
ATOM     21  C   LIG    1        2.885  -0.191   1.801  0.00  0.00    +0.009 A 
ATOM     22  C   LIG    1        1.596   0.315   1.905  0.00  0.00    +0.006 A 
ATOM     23  C   LIG    1        1.166   1.427   1.213  0.00  0.00    -0.028 A 
ATOM     24  C   LIG    1        2.138   2.011   0.392  0.00  0.00    +0.006 A 
ATOM     25  C   LIG    1        3.418   1.525   0.276  0.00  0.00    +0.009 A 
BRANCH  20  27
ATOM     26  C   LIG    1        5.683  -0.863  -0.110  0.00  0.00    +0.028 A 
ATOM     27  C   LIG    1        5.195  -0.089   0.891  0.00  0.00    -0.007 A 
ATOM     28  C   LIG    1        6.084   0.317   1.910  0.00  0.00    +0.009 A 
ATOM     29  C   LIG    1        7.401  -0.031   1.931  0.00  0.00    +0.001 A 
ATOM     30  C   LIG    1        7.904  -0.816   0.916  0.00  0.00    +0.001 A 
ATOM     31  C   LIG    1        7.056  -1.214  -0.071  0.00  0.00    +0.012 A 
BRANCH  26  32
ATOM     32  C   LIG    1        4.878  -1.333  -1.199  0.00  0.00    +0.180 A 
ATOM     33  N   LIG    1        3.592  -1.263  -1.437  0.00  0.00    -0.239 N 
ATOM     34  H   LIG    1        2.839  -0.869  -0.873  0.00  0.00    +0.192 HD
ATOM     35  N   LIG    1        3.315  -1.844  -2.633  0.00  0.00    -0.046 NA
ATOM     36  N   LIG    1        4.448  -2.278  -3.136  0.00  0.00    -0.023 NA
ATOM     37  N   LIG    1        5.401  -1.978  -2.283  0.00  0.00    -0.108 NA
ENDBRANCH  26  32
ENDBRANCH  20  27
ENDBRANCH   1  23
TORSDOF 10
