REMARK  Name = molecules/AMGKHLVPQHMHGQ-ZYHUDNBSSA-N.pdb
REMARK                            x       y       z     vdW  Elec       q    Type
REMARK                         _______ _______ _______ _____ _____    ______ ____
ROOT
ATOM      1  C   LIG    1       -0.983   0.966   0.456  0.00  0.00    +0.143 C 
ENDROOT
BRANCH   1   2
ATOM      2  N   LIG    1       -1.902   1.959   0.960  0.00  0.00    -0.304 N 
ATOM      3  H   LIG    1       -1.962   2.150   1.981  0.00  0.00    +0.149 HD
ATOM      4  C   LIG    1       -2.750   2.706   0.098  0.00  0.00    +0.246 C 
ATOM      5  O   LIG    1       -2.673   2.469  -1.150  0.00  0.00    -0.273 OA
BRANCH   4   6
ATOM      6  C   LIG    1       -3.691   3.724   0.618  0.00  0.00    +0.256 C 
ATOM      7 CL   LIG    1       -4.841   3.046   1.779  0.00  0.00    -0.094 Cl
ATOM      8 CL   LIG    1       -4.575   4.443  -0.744  0.00  0.00    -0.094 Cl
ENDBRANCH   4   6
ENDBRANCH   1   2
BRANCH   1   9
ATOM      9  C   LIG    1       -1.183  -0.381   1.072  0.00  0.00    +0.257 C 
BRANCH   9  10
ATOM     10  O   LIG    1       -2.443  -0.946   0.881  0.00  0.00    -0.462 OA
BRANCH  10  11
ATOM     11  C   LIG    1       -2.967  -1.229  -0.370  0.00  0.00    +0.321 C 
ATOM     12  O   LIG    1       -2.249  -0.953  -1.368  0.00  0.00    -0.249 OA
BRANCH  11  13
ATOM     13  C   LIG    1       -4.329  -1.837  -0.535  0.00  0.00    +0.199 C 
BRANCH  13  14
ATOM     14  N   LIG    1       -4.907  -2.037   0.757  0.00  0.00    -0.321 NA
ATOM     15  H   LIG    1       -4.399  -2.733   1.336  0.00  0.00    +0.119 HD
ATOM     16  H   LIG    1       -5.940  -2.169   0.742  0.00  0.00    +0.119 HD
ENDBRANCH  13  14
ENDBRANCH  11  13
ENDBRANCH  10  11
ENDBRANCH   9  10
ENDBRANCH   1   9
BRANCH   1  17
ATOM     17  C   LIG    1        0.413   1.473   0.781  0.00  0.00    +0.168 C 
BRANCH  17  18
ATOM     18  C   LIG    1        1.467   0.538   0.311  0.00  0.00    -0.017 A 
ATOM     19  C   LIG    1        2.160  -0.240   1.214  0.00  0.00    +0.008 A 
ATOM     20  C   LIG    1        3.142  -1.112   0.787  0.00  0.00    +0.027 A 
ATOM     21  C   LIG    1        3.470  -1.243  -0.550  0.00  0.00    +0.088 A 
ATOM     22  C   LIG    1        2.779  -0.466  -1.454  0.00  0.00    +0.027 A 
ATOM     23  C   LIG    1        1.807   0.395  -1.013  0.00  0.00    +0.008 A 
BRANCH  21  24
ATOM     24  S   LIG    1        4.727  -2.364  -1.071  0.00  0.00    -0.006 S 
ATOM     25  O   LIG    1        4.782  -3.459  -0.031  0.00  0.00    -0.170 OA
ATOM     26  C   LIG    1        6.290  -1.514  -1.076  0.00  0.00    +0.200 C 
ATOM     27  O   LIG    1        4.434  -2.933  -2.417  0.00  0.00    -0.170 OA
ENDBRANCH  21  24
ENDBRANCH  17  18
BRANCH  17  28
ATOM     28  O   LIG    1        0.565   2.704   0.137  0.00  0.00    -0.385 OA
ATOM     29  H   LIG    1        0.023   2.759  -0.679  0.00  0.00    +0.210 HD
ENDBRANCH  17  28
ENDBRANCH   1  17
TORSDOF 11
