REMARK  Name = molecules/AMHPTVWBZSYFSS-OWCLPIDISA-N.pdb
REMARK                            x       y       z     vdW  Elec       q    Type
REMARK                         _______ _______ _______ _____ _____    ______ ____
ROOT
ATOM      1  C   LIG    1        1.999   0.069  -0.151  0.00  0.00    +0.350 C 
ATOM      2  O   LIG    1        1.815   0.611   0.995  0.00  0.00    -0.247 OA
ENDROOT
BRANCH   1   3
ATOM      3  C   LIG    1        3.360  -0.318  -0.509  0.00  0.00    +0.226 C 
BRANCH   3   4
ATOM      4  C   LIG    1        3.916  -1.378   0.386  0.00  0.00    +0.037 A 
ATOM      5  C   LIG    1        3.504  -1.860   1.593  0.00  0.00    +0.015 A 
ATOM      6  C   LIG    1        4.235  -2.833   2.153  0.00  0.00    +0.008 A 
ATOM      7  C   LIG    1        5.340  -3.266   1.468  0.00  0.00    +0.045 A 
ATOM      8  S   LIG    1        5.314  -2.295   0.062  0.00  0.00    -0.098 S 
ENDBRANCH   3   4
BRANCH   3   9
ATOM      9  C   LIG    1        4.297   0.862  -0.550  0.00  0.00    +0.037 A 
ATOM     10  C   LIG    1        4.636   1.683   0.496  0.00  0.00    +0.015 A 
ATOM     11  C   LIG    1        5.496   2.685   0.236  0.00  0.00    +0.008 A 
ATOM     12  C   LIG    1        5.959   2.798  -1.047  0.00  0.00    +0.045 A 
ATOM     13  S   LIG    1        5.184   1.511  -1.849  0.00  0.00    -0.098 S 
ENDBRANCH   3   9
BRANCH   3  14
ATOM     14  O   LIG    1        3.352  -0.860  -1.788  0.00  0.00    -0.369 OA
ATOM     15  H   LIG    1        3.560  -0.132  -2.420  0.00  0.00    +0.212 HD
ENDBRANCH   3  14
ENDBRANCH   1   3
BRANCH   1  16
ATOM     16  O   LIG    1        0.859  -0.076  -0.905  0.00  0.00    -0.459 OA
BRANCH  16  17
ATOM     17  C   LIG    1       -0.422   0.318  -0.508  0.00  0.00    +0.180 C 
ATOM     18  C   LIG    1       -1.381  -0.836  -0.319  0.00  0.00    +0.064 C 
ATOM     19  C   LIG    1       -2.514  -0.337   0.550  0.00  0.00    +0.066 C 
ATOM     20  N   LIG    1       -2.630   1.076   0.453  0.00  0.00    -0.299 NA
ATOM     21  C   LIG    1       -2.317   1.850   1.562  0.00  0.00    +0.105 C 
ATOM     22  C   LIG    1       -2.458   1.620  -0.843  0.00  0.00    +0.060 C 
ATOM     23  C   LIG    1       -3.429   0.917  -1.768  0.00  0.00    +0.019 C 
ATOM     24  C   LIG    1       -4.401   0.026  -1.071  0.00  0.00    +0.009 C 
ATOM     25  C   LIG    1       -3.813  -0.899  -0.049  0.00  0.00    -0.019 C 
ATOM     26  C   LIG    1       -4.794  -0.894   1.134  0.00  0.00    +0.012 C 
ATOM     27  C   LIG    1       -3.647  -2.307  -0.508  0.00  0.00    +0.012 C 
ATOM     28  C   LIG    1       -1.048   1.348  -1.385  0.00  0.00    +0.063 C 
ENDBRANCH  16  17
ENDBRANCH   1  16
TORSDOF 6
