REMARK  Name = molecules/AMKVXSZCKVJAGH-UHFFFAOYSA-N.pdb
REMARK                            x       y       z     vdW  Elec       q    Type
REMARK                         _______ _______ _______ _____ _____    ______ ____
ROOT
ATOM      1  C   LIG    1        1.849  -0.809  -0.743  0.00  0.00    -0.045 A 
ATOM      2  C   LIG    1        0.545  -0.424  -0.498  0.00  0.00    +0.014 A 
ATOM      3  C   LIG    1       -0.406  -1.407  -0.338  0.00  0.00    +0.003 A 
ATOM      4  C   LIG    1       -1.779  -1.359  -0.088  0.00  0.00    -0.019 A 
ATOM      5  C   LIG    1       -2.207  -2.693  -0.031  0.00  0.00    +0.087 A 
ATOM      6  N   LIG    1       -1.172  -3.523  -0.231  0.00  0.00    -0.360 N 
ATOM      7  H   LIG    1       -1.262  -4.560  -0.230  0.00  0.00    +0.165 HD
ATOM      8  C   LIG    1       -0.093  -2.749  -0.415  0.00  0.00    +0.047 A 
ATOM      9  C   LIG    1        1.227  -3.112  -0.662  0.00  0.00    +0.026 A 
ATOM     10  C   LIG    1        2.198  -2.147  -0.826  0.00  0.00    +0.006 A 
ENDROOT
BRANCH   4  11
ATOM     11  C   LIG    1       -2.642  -0.164   0.103  0.00  0.00    +0.023 C 
ATOM     12  C   LIG    1       -4.072  -0.630   0.114  0.00  0.00    +0.023 C 
ATOM     13  C   LIG    1       -5.109   0.402  -0.078  0.00  0.00    +0.084 C 
ATOM     14  N   LIG    1       -4.617   1.747  -0.165  0.00  0.00    -0.305 NA
ATOM     15  C   LIG    1       -4.234   2.333   1.076  0.00  0.00    +0.104 C 
ATOM     16  C   LIG    1       -3.599   1.758  -1.193  0.00  0.00    +0.084 C 
ATOM     17  C   LIG    1       -2.363   0.993  -0.759  0.00  0.00    +0.023 C 
ENDBRANCH   4  11
BRANCH   1  18
ATOM     18  C   LIG    1        2.907   0.190  -0.931  0.00  0.00    +0.059 C 
BRANCH  18  19
ATOM     19  C   LIG    1        3.607   0.617   0.320  0.00  0.00    +0.189 C 
BRANCH  19  20
ATOM     20  S   LIG    1        4.843   1.817  -0.126  0.00  0.00    +0.029 S 
ATOM     21  O   LIG    1        4.244   2.960  -0.852  0.00  0.00    -0.158 OA
ATOM     22  O   LIG    1        5.823   1.139  -1.054  0.00  0.00    -0.158 OA
BRANCH  20  23
ATOM     23  N   LIG    1        5.668   2.336   1.275  0.00  0.00    -0.198 NA
ATOM     24  C   LIG    1        6.343   1.232   1.904  0.00  0.00    +0.127 C 
ATOM     25  H   LIG    1        6.285   3.148   1.115  0.00  0.00    +0.147 HD
ENDBRANCH  20  23
ENDBRANCH  19  20
ENDBRANCH  18  19
ENDBRANCH   1  18
TORSDOF 5
