REMARK  Name = molecules/ANEBWFXPVPTEET-JGCGQSQUSA-N.pdb
REMARK                            x       y       z     vdW  Elec       q    Type
REMARK                         _______ _______ _______ _____ _____    ______ ____
ROOT
ATOM      1  C   LIG    1       -2.385  -0.178   1.670  0.00  0.00    +0.338 C 
ATOM      2  O   LIG    1       -2.092  -1.106   0.867  0.00  0.00    -0.245 OA
ENDROOT
BRANCH   1   3
ATOM      3  C   LIG    1       -3.807   0.046   2.014  0.00  0.00    +0.065 C 
ATOM      4  C   LIG    1       -4.153   0.997   2.837  0.00  0.00    +0.016 C 
ATOM      5  C   LIG    1       -3.105   1.867   3.437  0.00  0.00    +0.061 C 
ATOM      6  N   LIG    1       -5.510   1.255   3.205  0.00  0.00    -0.321 N 
ATOM      7  H   LIG    1       -5.775   2.018   3.864  0.00  0.00    +0.152 HD
ATOM      8  C   LIG    1       -6.497   0.414   2.627  0.00  0.00    +0.016 C 
ATOM      9  C   LIG    1       -7.921   0.687   3.014  0.00  0.00    +0.061 C 
ATOM     10  C   LIG    1       -6.186  -0.547   1.797  0.00  0.00    +0.065 C 
ATOM     11  C   LIG    1       -4.798  -0.835   1.398  0.00  0.00    +0.096 C 
BRANCH  11  12
ATOM     12  C   LIG    1       -4.755  -0.807  -0.076  0.00  0.00    -0.033 A 
ATOM     13  C   LIG    1       -4.430  -1.938  -0.778  0.00  0.00    +0.005 A 
ATOM     14  C   LIG    1       -4.378  -1.936  -2.179  0.00  0.00    +0.003 A 
ATOM     15  C   LIG    1       -4.665  -0.754  -2.860  0.00  0.00    +0.033 A 
ATOM     16  C   LIG    1       -4.992   0.385  -2.164  0.00  0.00    +0.126 A 
ATOM     17  C   LIG    1       -5.030   0.334  -0.779  0.00  0.00    +0.037 A 
BRANCH  16  18
ATOM     18  N   LIG    1       -5.281   1.569  -2.881  0.00  0.00    +0.056 N 
ATOM     19  O   LIG    1       -5.584   2.629  -2.310  0.00  0.00    -0.126 OA
ATOM     20  O   LIG    1       -5.229   1.563  -4.250  0.00  0.00    -0.126 OA
ENDBRANCH  16  18
ENDBRANCH  11  12
BRANCH  10  21
ATOM     21  C   LIG    1       -7.240  -1.388   1.230  0.00  0.00    +0.337 C 
ATOM     22  O   LIG    1       -8.469  -1.233   1.502  0.00  0.00    -0.245 OA
BRANCH  21  23
ATOM     23  O   LIG    1       -6.895  -2.414   0.347  0.00  0.00    -0.465 OA
ATOM     24  C   LIG    1       -7.872  -3.261  -0.232  0.00  0.00    +0.280 C 
ENDBRANCH  21  23
ENDBRANCH  10  21
ENDBRANCH   1   3
BRANCH   1  25
ATOM     25  O   LIG    1       -1.351   0.559   2.168  0.00  0.00    -0.460 OA
BRANCH  25  26
ATOM     26  C   LIG    1        0.018   0.411   1.891  0.00  0.00    +0.248 C 
BRANCH  26  27
ATOM     27  C   LIG    1        0.289   0.632   0.443  0.00  0.00    +0.125 C 
BRANCH  27  28
ATOM     28  N   LIG    1        1.647   0.497   0.047  0.00  0.00    -0.297 NA
ATOM     29  C   LIG    1        2.550   1.428   0.620  0.00  0.00    +0.100 C 
ATOM     30  C   LIG    1        4.004   1.035   0.427  0.00  0.00    +0.100 C 
ATOM     31  N   LIG    1        4.244   0.187  -0.641  0.00  0.00    -0.289 NA
ATOM     32  C   LIG    1        3.344  -0.878  -0.869  0.00  0.00    +0.100 C 
ATOM     33  C   LIG    1        2.166  -0.829   0.123  0.00  0.00    +0.100 C 
BRANCH  31  34
ATOM     34  C   LIG    1        5.322   0.260  -1.505  0.00  0.00    +0.117 C 
BRANCH  34  35
ATOM     35  C   LIG    1        6.148  -0.999  -1.382  0.00  0.00    -0.026 A 
ATOM     36  C   LIG    1        6.450  -1.451  -0.120  0.00  0.00    +0.005 A 
ATOM     37  C   LIG    1        7.195  -2.588   0.060  0.00  0.00    +0.000 A 
ATOM     38  C   LIG    1        7.644  -3.280  -1.030  0.00  0.00    +0.000 A 
ATOM     39  C   LIG    1        7.353  -2.846  -2.305  0.00  0.00    +0.000 A 
ATOM     40  C   LIG    1        6.602  -1.700  -2.460  0.00  0.00    +0.005 A 
ENDBRANCH  34  35
BRANCH  34  41
ATOM     41  C   LIG    1        6.169   1.451  -1.491  0.00  0.00    -0.026 A 
ATOM     42  C   LIG    1        7.531   1.332  -1.368  0.00  0.00    +0.005 A 
ATOM     43  C   LIG    1        8.360   2.459  -1.373  0.00  0.00    +0.000 A 
ATOM     44  C   LIG    1        7.795   3.700  -1.503  0.00  0.00    +0.000 A 
ATOM     45  C   LIG    1        6.430   3.816  -1.626  0.00  0.00    +0.000 A 
ATOM     46  C   LIG    1        5.627   2.699  -1.620  0.00  0.00    +0.005 A 
ENDBRANCH  34  41
ENDBRANCH  31  34
ENDBRANCH  27  28
ENDBRANCH  26  27
ENDBRANCH  25  26
ENDBRANCH   1  25
TORSDOF 12
