REMARK  Name = molecules/ANMATWQYLIFGOK-UHFFFAOYSA-N.pdb
REMARK                            x       y       z     vdW  Elec       q    Type
REMARK                         _______ _______ _______ _____ _____    ______ ____
ROOT
ATOM      1  C   LIG    1        0.899  -1.218   0.346  0.00  0.00    +0.075 A 
ATOM      2  C   LIG    1       -0.410  -0.805   0.629  0.00  0.00    +0.093 A 
ATOM      3  C   LIG    1       -0.707   0.513   0.762  0.00  0.00    +0.152 A 
ATOM      4  C   LIG    1        0.312   1.436   0.628  0.00  0.00    +0.063 A 
ATOM      5  C   LIG    1        1.630   1.050   0.348  0.00  0.00    +0.069 A 
ATOM      6  C   LIG    1        2.632   1.966   0.216  0.00  0.00    +0.214 A 
ATOM      7  O   LIG    1        2.392   3.204   0.357  0.00  0.00    -0.285 OA
ATOM      8  C   LIG    1        3.928   1.600  -0.067  0.00  0.00    +0.116 A 
ATOM      9  C   LIG    1        4.073   0.161  -0.202  0.00  0.00    +0.222 A 
ATOM     10  O   LIG    1        3.118  -0.643  -0.064  0.00  0.00    -0.461 OA
ATOM     11  C   LIG    1        1.887  -0.289   0.211  0.00  0.00    +0.141 A 
ENDROOT
BRANCH   8  12
ATOM     12  N   LIG    1        5.064   2.286  -0.126  0.00  0.00    -0.283 N 
ATOM     13  C   LIG    1        6.220   2.992  -0.188  0.00  0.00    +0.330 C 
ATOM     14  O   LIG    1        6.438   4.189  -0.363  0.00  0.00    -0.279 OA
ATOM     15  H   LIG    1        4.407   3.395  -0.577  0.00  0.00    +0.155 HD
ENDBRANCH   8  12
BRANCH   2  16
ATOM     16  N   LIG    1       -1.407  -1.798   0.863  0.00  0.00    -0.217 N 
ATOM     17  H   LIG    1       -2.371  -1.501   1.151  0.00  0.00    +0.173 HD
BRANCH  16  18
ATOM     18  S   LIG    1       -1.148  -3.470   0.739  0.00  0.00    +0.040 S 
ATOM     19  C   LIG    1        0.072  -4.067   1.875  0.00  0.00    +0.218 C 
ATOM     20  O   LIG    1       -2.424  -4.253   0.975  0.00  0.00    -0.155 OA
ATOM     21  O   LIG    1       -0.708  -3.833  -0.657  0.00  0.00    -0.155 OA
ENDBRANCH  16  18
ENDBRANCH   2  16
BRANCH   3  22
ATOM     22  O   LIG    1       -1.978   1.010   1.014  0.00  0.00    -0.454 OA
BRANCH  22  23
ATOM     23  C   LIG    1       -2.991   0.878   0.050  0.00  0.00    +0.129 A 
ATOM     24  C   LIG    1       -4.208   1.500   0.271  0.00  0.00    +0.046 A 
ATOM     25  C   LIG    1       -5.217   1.381  -0.663  0.00  0.00    +0.004 A 
ATOM     26  C   LIG    1       -5.059   0.661  -1.808  0.00  0.00    +0.000 A 
ATOM     27  C   LIG    1       -3.872   0.032  -2.060  0.00  0.00    +0.004 A 
ATOM     28  C   LIG    1       -2.856   0.172  -1.095  0.00  0.00    +0.046 A 
ENDBRANCH  22  23
ENDBRANCH   3  22
TORSDOF 5
