REMARK  Name = molecules/ANMLJLFWUCQGKZ-HXUWFJFHSA-N.pdb
REMARK                            x       y       z     vdW  Elec       q    Type
REMARK                         _______ _______ _______ _____ _____    ______ ____
ROOT
ATOM      1  C   LIG    1       -0.214   0.373  -0.993  0.00  0.00    +0.099 A 
ATOM      2  C   LIG    1       -1.379   0.438  -0.303  0.00  0.00    +0.137 A 
ATOM      3  N   LIG    1       -2.375   1.241  -0.786  0.00  0.00    -0.239 NA
ATOM      4  C   LIG    1       -2.246   1.966  -1.907  0.00  0.00    +0.113 A 
ATOM      5  C   LIG    1       -1.076   1.916  -2.619  0.00  0.00    +0.021 A 
ATOM      6  C   LIG    1       -0.044   1.128  -2.182  0.00  0.00    +0.020 A 
ENDROOT
BRANCH   1   7
ATOM      7  C   LIG    1        0.843  -0.537  -0.595  0.00  0.00    +0.346 C 
ATOM      8  O   LIG    1        0.868  -1.355   0.315  0.00  0.00    -0.245 OA
BRANCH   7   9
ATOM      9  O   LIG    1        2.043  -0.490  -1.353  0.00  0.00    -0.417 OA
BRANCH   9  10
ATOM     10  C   LIG    1        3.148  -1.326  -1.093  0.00  0.00    +0.403 C 
ATOM     11  C   LIG    1        4.306  -0.482  -0.597  0.00  0.00    +0.047 A 
ATOM     12  C   LIG    1        4.421   0.171   0.598  0.00  0.00    +0.012 A 
ATOM     13  C   LIG    1        5.571   0.936   0.821  0.00  0.00    +0.001 A 
ATOM     14  C   LIG    1        6.533   1.005  -0.155  0.00  0.00    +0.001 A 
ATOM     15  C   LIG    1        6.399   0.331  -1.368  0.00  0.00    +0.015 A 
ATOM     16  C   LIG    1        5.248  -0.433  -1.586  0.00  0.00    +0.069 A 
ATOM     17  C   LIG    1        4.822  -1.265  -2.690  0.00  0.00    +0.343 C 
ATOM     18  O   LIG    1        5.418  -1.473  -3.786  0.00  0.00    -0.245 OA
ATOM     19  O   LIG    1        3.596  -1.815  -2.316  0.00  0.00    -0.417 OA
ENDBRANCH   9  10
ENDBRANCH   7   9
ENDBRANCH   1   7
BRANCH   2  20
ATOM     20  N   LIG    1       -1.560  -0.195   0.947  0.00  0.00    -0.299 N 
ATOM     21  H   LIG    1       -0.802  -0.716   1.462  0.00  0.00    +0.154 HD
BRANCH  20  22
ATOM     22  C   LIG    1       -2.817  -0.135   1.604  0.00  0.00    +0.033 A 
ATOM     23  C   LIG    1       -2.834   0.139   2.949  0.00  0.00    +0.023 A 
ATOM     24  C   LIG    1       -4.024   0.245   3.666  0.00  0.00    +0.002 A 
ATOM     25  C   LIG    1       -5.204   0.058   2.945  0.00  0.00    +0.012 A 
ATOM     26  C   LIG    1       -5.224  -0.218   1.594  0.00  0.00    +0.057 A 
ATOM     27  C   LIG    1       -3.998  -0.309   0.942  0.00  0.00    +0.035 A 
BRANCH  26  28
ATOM     28  C   LIG    1       -6.478  -0.433   0.867  0.00  0.00    +0.417 C 
ATOM     29  F   LIG    1       -7.577  -0.200   1.681  0.00  0.00    -0.166 F 
ATOM     30  F   LIG    1       -6.502  -1.742   0.376  0.00  0.00    -0.166 F 
ATOM     31  F   LIG    1       -6.536   0.433  -0.211  0.00  0.00    -0.166 F 
ENDBRANCH  26  28
ENDBRANCH  20  22
ENDBRANCH   2  20
TORSDOF 6
