REMARK  Name = molecules/ANOBYBYXJXCGBS-UHFFFAOYSA-L.pdb
REMARK                            x       y       z     vdW  Elec       q    Type
REMARK                         _______ _______ _______ _____ _____    ______ ____
ROOT
ATOM      1 SN   LIG    1       -0.001   0.737   0.000  0.00  0.00    +0.000 Sn
ATOM      2  F   LIG    1        1.593  -0.368   0.000  0.00  0.00    +0.000 F 
ATOM      3  F   LIG    1       -1.593  -0.369   0.000  0.00  0.00    +0.000 F 
ENDROOT
TORSDOF 0
