REMARK  Name = molecules/AOXRBFRFYPMWLR-XGXHKTLJSA-N.pdb
REMARK                            x       y       z     vdW  Elec       q    Type
REMARK                         _______ _______ _______ _____ _____    ______ ____
ROOT
ATOM      1  C   LIG    1        1.478  -1.762   1.091  0.00  0.00    +0.014 C 
ATOM      2  C   LIG    1        1.788  -0.437   0.379  0.00  0.00    -0.000 C 
ATOM      3  C   LIG    1        1.293   0.639   1.264  0.00  0.00    +0.010 C 
ATOM      4  C   LIG    1       -0.198   0.626   1.434  0.00  0.00    +0.005 C 
ATOM      5  C   LIG    1       -0.982   0.269   0.241  0.00  0.00    -0.000 C 
ATOM      6  C   LIG    1       -2.386  -0.166   0.640  0.00  0.00    +0.018 C 
ATOM      7  C   LIG    1       -3.037   0.763   1.607  0.00  0.00    +0.008 C 
ATOM      8  C   LIG    1       -3.814   1.856   0.891  0.00  0.00    +0.005 C 
ATOM      9  C   LIG    1       -4.981   1.179   0.158  0.00  0.00    +0.027 C 
ATOM     10  C   LIG    1       -4.305   0.287  -0.854  0.00  0.00    -0.027 C 
ATOM     11  C   LIG    1       -3.144  -0.314  -0.635  0.00  0.00    -0.070 C 
ATOM     12  C   LIG    1       -2.602  -1.168  -1.741  0.00  0.00    +0.031 C 
ATOM     13  C   LIG    1       -1.127  -1.154  -1.821  0.00  0.00    +0.008 C 
ATOM     14  C   LIG    1       -0.394  -0.876  -0.557  0.00  0.00    -0.003 C 
ATOM     15  C   LIG    1        3.187  -0.408  -0.059  0.00  0.00    +0.071 C 
ATOM     16  C   LIG    1        3.184  -0.891  -1.514  0.00  0.00    +0.035 C 
ATOM     17  C   LIG    1        1.763  -1.329  -1.781  0.00  0.00    +0.007 C 
ATOM     18  C   LIG    1        0.997  -0.399  -0.903  0.00  0.00    +0.001 C 
ENDROOT
BRANCH  15  19
ATOM     19  O   LIG    1        3.881  -1.437   0.636  0.00  0.00    -0.388 OA
ATOM     20  H   LIG    1        4.715  -1.663   0.155  0.00  0.00    +0.210 HD
ENDBRANCH  15  19
BRANCH  15  21
ATOM     21  C   LIG    1        3.992   0.808   0.133  0.00  0.00    +0.032 C 
ATOM     22  C   LIG    1        3.592   2.067  -0.508  0.00  0.00    +0.007 C 
ENDBRANCH  15  21
TORSDOF 2
