REMARK  Name = molecules/APQPGQGAWABJLN-LBPRGKRZSA-N.pdb
REMARK                            x       y       z     vdW  Elec       q    Type
REMARK                         _______ _______ _______ _____ _____    ______ ____
ROOT
ATOM      1  N   LIG    1       -0.204  -1.096   0.210  0.00  0.00    -0.313 N 
ATOM      2  H   LIG    1        0.258  -0.668  -0.614  0.00  0.00    +0.152 HD
ENDROOT
BRANCH   1   8
ATOM      3  C   LIG    1       -3.758   2.215  -0.184  0.00  0.00    +0.081 A 
ATOM      4  C   LIG    1       -3.018   1.296   0.513  0.00  0.00    +0.084 A 
ATOM      5  N   LIG    1       -3.299   1.124   1.808  0.00  0.00    -0.254 NA
ATOM      6  C   LIG    1       -2.649   0.258   2.585  0.00  0.00    +0.113 A 
ATOM      7  C   LIG    1       -1.626  -0.520   2.057  0.00  0.00    +0.043 A 
ATOM      8  C   LIG    1       -1.310  -0.374   0.730  0.00  0.00    +0.042 A 
ATOM      9  C   LIG    1       -2.012   0.542  -0.050  0.00  0.00    +0.022 A 
ATOM     10  C   LIG    1       -1.734   0.720  -1.378  0.00  0.00    +0.012 A 
ATOM     11  C   LIG    1       -2.460   1.645  -2.133  0.00  0.00    +0.001 A 
ATOM     12  C   LIG    1       -3.455   2.371  -1.520  0.00  0.00    +0.014 A 
BRANCH   3  13
ATOM     13  C   LIG    1       -4.841   3.027   0.417  0.00  0.00    +0.419 C 
ATOM     14  F   LIG    1       -4.263   3.772   1.436  0.00  0.00    -0.166 F 
ATOM     15  F   LIG    1       -5.873   2.253   0.902  0.00  0.00    -0.166 F 
ATOM     16  F   LIG    1       -5.344   3.909  -0.518  0.00  0.00    -0.166 F 
ENDBRANCH   3  13
ENDBRANCH   1   8
BRANCH   1  17
ATOM     17  C   LIG    1        0.242  -2.323   0.762  0.00  0.00    +0.045 A 
ATOM     18  C   LIG    1       -0.662  -3.180   1.412  0.00  0.00    +0.024 A 
ATOM     19  C   LIG    1       -0.304  -4.418   1.872  0.00  0.00    +0.002 A 
ATOM     20  C   LIG    1        0.996  -4.817   1.679  0.00  0.00    +0.001 A 
ATOM     21  C   LIG    1        1.897  -3.990   1.043  0.00  0.00    +0.017 A 
ATOM     22  C   LIG    1        1.546  -2.718   0.567  0.00  0.00    +0.080 A 
BRANCH  22  23
ATOM     23  C   LIG    1        2.546  -1.886  -0.060  0.00  0.00    +0.341 C 
ATOM     24  O   LIG    1        3.723  -2.389  -0.184  0.00  0.00    -0.245 OA
BRANCH  23  25
ATOM     25  O   LIG    1        2.414  -0.624  -0.542  0.00  0.00    -0.458 OA
BRANCH  25  26
ATOM     26  C   LIG    1        3.401   0.156  -1.141  0.00  0.00    +0.266 C 
BRANCH  26  27
ATOM     27  C   LIG    1        2.747   1.495  -1.508  0.00  0.00    +0.177 C 
BRANCH  27  28
ATOM     28  O   LIG    1        2.291   2.054  -0.332  0.00  0.00    -0.386 OA
ATOM     29  H   LIG    1        2.838   1.757   0.453  0.00  0.00    +0.210 HD
ENDBRANCH  27  28
BRANCH  27  30
ATOM     30  C   LIG    1        3.772   2.393  -2.201  0.00  0.00    +0.190 C 
BRANCH  30  31
ATOM     31  O   LIG    1        4.861   2.602  -1.387  0.00  0.00    -0.392 OA
ATOM     32  H   LIG    1        5.667   2.787  -1.964  0.00  0.00    +0.210 HD
ENDBRANCH  30  31
ENDBRANCH  27  30
ENDBRANCH  26  27
ENDBRANCH  25  26
ENDBRANCH  23  25
ENDBRANCH  22  23
ENDBRANCH   1  17
TORSDOF 10
