REMARK  Name = molecules/APTGJECXMIKIET-WOSSHHRXSA-N.pdb
REMARK                            x       y       z     vdW  Elec       q    Type
REMARK                         _______ _______ _______ _____ _____    ______ ____
ROOT
ATOM      1  C   LIG    1        0.944   0.448   0.198  0.00  0.00    +0.178 C 
ATOM      2  C   LIG    1       -0.419  -0.042   0.596  0.00  0.00    +0.022 C 
ATOM      3  C   LIG    1       -1.178   0.952   1.472  0.00  0.00    +0.012 C 
ATOM      4  C   LIG    1       -2.630   0.608   1.617  0.00  0.00    +0.005 C 
ATOM      5  C   LIG    1       -3.252   0.356   0.283  0.00  0.00    -0.000 C 
ATOM      6  C   LIG    1       -4.699   0.021   0.324  0.00  0.00    +0.019 C 
ATOM      7  C   LIG    1       -5.419   0.901   1.326  0.00  0.00    +0.016 C 
ATOM      8  C   LIG    1       -6.918   0.720   1.216  0.00  0.00    +0.079 C 
ATOM      9  C   LIG    1       -7.323   1.026  -0.164  0.00  0.00    +0.156 C 
ATOM     10  O   LIG    1       -8.438   1.555  -0.372  0.00  0.00    -0.293 OA
ATOM     11  C   LIG    1       -6.420   0.706  -1.256  0.00  0.00    +0.045 C 
ATOM     12  C   LIG    1       -5.209   0.242  -1.050  0.00  0.00    -0.063 C 
ATOM     13  C   LIG    1       -4.338  -0.062  -2.193  0.00  0.00    +0.031 C 
ATOM     14  C   LIG    1       -3.175  -0.930  -1.848  0.00  0.00    +0.008 C 
ATOM     15  C   LIG    1       -2.461  -0.609  -0.586  0.00  0.00    -0.003 C 
ATOM     16  C   LIG    1       -0.492  -1.374   1.228  0.00  0.00    +0.016 C 
ATOM     17  C   LIG    1       -1.146   0.048  -0.752  0.00  0.00    +0.003 C 
ATOM     18  C   LIG    1       -0.164  -0.507  -1.690  0.00  0.00    +0.009 C 
ATOM     19  C   LIG    1        1.050   0.360  -1.294  0.00  0.00    +0.062 C 
ENDROOT
BRANCH   1  20
ATOM     20  C   LIG    1        0.918   1.905   0.543  0.00  0.00    -0.058 C 
ATOM     21  C   LIG    1        0.924   3.095   0.817  0.00  0.00    +0.008 C 
ENDBRANCH   1  20
BRANCH   1  22
ATOM     22  O   LIG    1        2.020  -0.058   0.891  0.00  0.00    -0.445 OA
BRANCH  22  23
ATOM     23  C   LIG    1        2.576  -1.293   0.905  0.00  0.00    +0.309 C 
ATOM     24  O   LIG    1        2.102  -2.179   0.185  0.00  0.00    -0.251 OA
BRANCH  23  25
ATOM     25  C   LIG    1        3.755  -1.596   1.775  0.00  0.00    +0.120 C 
BRANCH  25  26
ATOM     26  C   LIG    1        4.883  -0.736   1.185  0.00  0.00    +0.011 C 
BRANCH  26  27
ATOM     27  C   LIG    1        5.140  -1.091  -0.251  0.00  0.00    +0.001 C 
BRANCH  27  28
ATOM     28  C   LIG    1        6.214  -0.224  -0.839  0.00  0.00    -0.000 C 
BRANCH  28  29
ATOM     29  C   LIG    1        7.504  -0.394  -0.085  0.00  0.00    -0.003 C 
ATOM     30  C   LIG    1        8.576   0.496  -0.705  0.00  0.00    +0.004 C 
ENDBRANCH  28  29
ENDBRANCH  27  28
ENDBRANCH  26  27
ENDBRANCH  25  26
ENDBRANCH  23  25
ENDBRANCH  22  23
ENDBRANCH   1  22
TORSDOF 8
