REMARK  Name = molecules/APUDBKTWDCXQJA-JQVVWYNYSA-N.pdb
REMARK                            x       y       z     vdW  Elec       q    Type
REMARK                         _______ _______ _______ _____ _____    ______ ____
ROOT
ATOM      1  C   LIG    1        1.695  -0.231  -0.041  0.00  0.00    +0.133 C 
ENDROOT
BRANCH   1   2
ATOM      2  C   LIG    1        2.576   0.961   0.076  0.00  0.00    +0.077 A 
ATOM      3  N   LIG    1        3.035   1.425   1.240  0.00  0.00    -0.257 NA
ATOM      4  C   LIG    1        3.840   2.500   1.338  0.00  0.00    +0.111 A 
ATOM      5  C   LIG    1        4.217   3.167   0.178  0.00  0.00    +0.020 A 
ATOM      6  C   LIG    1        3.775   2.734  -1.052  0.00  0.00    +0.003 A 
ATOM      7  C   LIG    1        2.943   1.614  -1.083  0.00  0.00    +0.026 A 
ENDBRANCH   1   2
BRANCH   1   8
ATOM      8  C   LIG    1        2.481  -1.493  -0.116  0.00  0.00    -0.010 A 
ATOM      9  C   LIG    1        2.548  -2.401   0.917  0.00  0.00    +0.007 A 
ATOM     10  C   LIG    1        3.295  -3.579   0.814  0.00  0.00    +0.000 A 
ATOM     11  C   LIG    1        3.975  -3.822  -0.358  0.00  0.00    +0.000 A 
ATOM     12  C   LIG    1        3.915  -2.921  -1.397  0.00  0.00    +0.000 A 
ATOM     13  C   LIG    1        3.170  -1.761  -1.275  0.00  0.00    +0.007 A 
ENDBRANCH   1   8
BRANCH   1  14
ATOM     14  O   LIG    1        0.966  -0.104  -1.195  0.00  0.00    -0.378 OA
ATOM     15  H   LIG    1        1.148  -0.813  -1.829  0.00  0.00    +0.211 HD
ENDBRANCH   1  14
BRANCH   1  16
ATOM     16  C   LIG    1        0.731  -0.291   1.149  0.00  0.00    +0.047 C 
BRANCH  16  17
ATOM     17  C   LIG    1       -0.125   0.891   1.250  0.00  0.00    +0.019 C 
BRANCH  17  18
ATOM     18  C   LIG    1       -1.129   1.266   0.244  0.00  0.00    +0.085 C 
BRANCH  18  19
ATOM     19  N   LIG    1       -2.260   0.499   0.082  0.00  0.00    -0.297 NA
ATOM     20  C   LIG    1       -2.509  -0.720  -0.446  0.00  0.00    +0.054 C 
ATOM     21  C   LIG    1       -3.822  -1.234   0.273  0.00  0.00    +0.019 C 
ATOM     22  C   LIG    1       -4.900  -0.215   0.199  0.00  0.00    +0.003 C 
ATOM     23  C   LIG    1       -4.530   0.724  -0.932  0.00  0.00    +0.019 C 
ATOM     24  C   LIG    1       -1.694  -1.930  -0.471  0.00  0.00    +0.024 C 
ATOM     25  C   LIG    1       -3.248   1.420  -0.671  0.00  0.00    +0.054 C 
ATOM     26  C   LIG    1       -3.478   2.620   0.196  0.00  0.00    +0.024 C 
ENDBRANCH  18  19
ENDBRANCH  17  18
ENDBRANCH  16  17
ENDBRANCH   1  16
TORSDOF 7
