REMARK  Name = molecules/AQNDDEOPVVGCPG-CQSZACIVSA-N.pdb
REMARK                            x       y       z     vdW  Elec       q    Type
REMARK                         _______ _______ _______ _____ _____    ______ ____
ROOT
ATOM      1  C   LIG    1       -3.277  -0.445  -0.180  0.00  0.00    -0.047 A 
ATOM      2  C   LIG    1       -2.316  -1.390   0.134  0.00  0.00    +0.007 A 
ATOM      3  C   LIG    1       -1.001  -1.157  -0.168  0.00  0.00    +0.046 A 
ATOM      4  C   LIG    1       -0.624   0.001  -0.778  0.00  0.00    +0.121 A 
ATOM      5  C   LIG    1       -1.578   0.951  -1.097  0.00  0.00    +0.046 A 
ATOM      6  C   LIG    1       -2.905   0.726  -0.797  0.00  0.00    +0.007 A 
ENDROOT
BRANCH   1   7
ATOM      7  C   LIG    1       -4.706  -0.697   0.153  0.00  0.00    +0.046 C 
BRANCH   7   8
ATOM      8  C   LIG    1       -4.958  -0.088   1.514  0.00  0.00    +0.125 C 
BRANCH   8   9
ATOM      9  C   LIG    1       -6.358  -0.280   1.972  0.00  0.00    +0.307 C 
ATOM     10  O   LIG    1       -6.612  -0.998   2.990  0.00  0.00    -0.251 OA
BRANCH   9  12
ATOM     11  C   LIG    1       -8.722   0.116   1.747  0.00  0.00    +0.280 C 
ATOM     12  O   LIG    1       -7.399   0.310   1.304  0.00  0.00    -0.468 OA
ENDBRANCH   9  12
ENDBRANCH   8   9
ENDBRANCH   7   8
ENDBRANCH   1   7
BRANCH   4  13
ATOM     13  O   LIG    1        0.721   0.278  -1.101  0.00  0.00    -0.489 OA
BRANCH  13  14
ATOM     14  C   LIG    1        1.653  -0.749  -0.759  0.00  0.00    +0.261 C 
BRANCH  14  15
ATOM     15  C   LIG    1        3.065  -0.366  -1.142  0.00  0.00    +0.166 C 
BRANCH  15  16
ATOM     16  O   LIG    1        3.881  -1.430  -0.780  0.00  0.00    -0.387 OA
ATOM     17  H   LIG    1        3.351  -2.269  -0.936  0.00  0.00    +0.210 HD
ENDBRANCH  15  16
BRANCH  15  18
ATOM     18  C   LIG    1        3.530   0.872  -0.459  0.00  0.00    +0.115 C 
BRANCH  18  19
ATOM     19  N   LIG    1        4.839   1.274  -0.780  0.00  0.00    -0.311 NA
ATOM     20  H   LIG    1        4.897   1.413  -1.834  0.00  0.00    +0.122 HD
BRANCH  19  21
ATOM     21  C   LIG    1        5.942   0.497  -0.361  0.00  0.00    +0.048 C 
ATOM     22  C   LIG    1        6.041   0.377   1.151  0.00  0.00    +0.023 C 
ATOM     23  C   LIG    1        7.276   1.161  -0.787  0.00  0.00    +0.023 C 
ENDBRANCH  19  21
ENDBRANCH  18  19
ENDBRANCH  15  18
ENDBRANCH  14  15
ENDBRANCH  13  14
ENDBRANCH   4  13
TORSDOF 11
