REMARK  Name = molecules/AQOKCDNYWBIDND-FTOWTWDKSA-N.pdb
REMARK                            x       y       z     vdW  Elec       q    Type
REMARK                         _______ _______ _______ _____ _____    ______ ____
ROOT
ATOM      1  C   LIG    1        1.248   0.615   1.690  0.00  0.00    +0.046 C 
ATOM      2  C   LIG    1        2.073   1.664   2.432  0.00  0.00    +0.124 C 
ATOM      3  C   LIG    1        1.189   2.069   3.589  0.00  0.00    +0.063 C 
ATOM      4  C   LIG    1       -0.218   1.683   3.185  0.00  0.00    +0.121 C 
ATOM      5  C   LIG    1       -0.127   1.246   1.736  0.00  0.00    +0.031 C 
ENDROOT
BRANCH   1   6
ATOM      6  C   LIG    1        1.755   0.473   0.296  0.00  0.00    -0.022 C 
ATOM      7  C   LIG    1        2.225  -0.656  -0.203  0.00  0.00    -0.000 C 
BRANCH   7   8
ATOM      8  C   LIG    1        2.727  -0.781  -1.597  0.00  0.00    +0.137 C 
BRANCH   8   9
ATOM      9  O   LIG    1        2.457   0.349  -2.354  0.00  0.00    -0.388 OA
ATOM     10  H   LIG    1        2.853   1.171  -2.018  0.00  0.00    +0.210 HD
ENDBRANCH   8   9
BRANCH   8  11
ATOM     11  C   LIG    1        4.209  -1.090  -1.633  0.00  0.00    +0.040 C 
BRANCH  11  12
ATOM     12  C   LIG    1        5.003   0.025  -0.945  0.00  0.00    +0.038 C 
BRANCH  12  13
ATOM     13  C   LIG    1        6.436  -0.305  -0.997  0.00  0.00    -0.047 A 
ATOM     14  C   LIG    1        7.033  -1.036   0.013  0.00  0.00    +0.003 A 
ATOM     15  C   LIG    1        8.370  -1.372   0.013  0.00  0.00    +0.000 A 
ATOM     16  C   LIG    1        9.147  -0.957  -1.049  0.00  0.00    +0.000 A 
ATOM     17  C   LIG    1        8.575  -0.219  -2.082  0.00  0.00    +0.000 A 
ATOM     18  C   LIG    1        7.233   0.100  -2.050  0.00  0.00    +0.003 A 
ENDBRANCH  12  13
ENDBRANCH  11  12
ENDBRANCH   8  11
ENDBRANCH   7   8
ENDBRANCH   1   6
BRANCH   4  19
ATOM     19  O   LIG    1       -0.594   0.606   3.966  0.00  0.00    -0.391 OA
ATOM     20  H   LIG    1        0.079   0.339   4.622  0.00  0.00    +0.210 HD
ENDBRANCH   4  19
BRANCH   2  21
ATOM     21  O   LIG    1        3.289   1.130   2.853  0.00  0.00    -0.391 OA
ATOM     22  H   LIG    1        3.783   1.850   3.319  0.00  0.00    +0.210 HD
ENDBRANCH   2  21
BRANCH   5  23
ATOM     23  C   LIG    1       -1.228   0.229   1.476  0.00  0.00    +0.033 C 
BRANCH  23  24
ATOM     24  C   LIG    1       -2.526   0.896   1.533  0.00  0.00    -0.031 C 
ATOM     25  C   LIG    1       -3.343   0.925   0.506  0.00  0.00    -0.031 C 
BRANCH  25  26
ATOM     26  C   LIG    1       -3.024   0.301  -0.767  0.00  0.00    +0.027 C 
BRANCH  26  27
ATOM     27  C   LIG    1       -4.044  -0.778  -1.103  0.00  0.00    +0.013 C 
BRANCH  27  28
ATOM     28  C   LIG    1       -5.402  -0.124  -1.188  0.00  0.00    +0.096 C 
BRANCH  28  29
ATOM     29  C   LIG    1       -6.459  -1.133  -1.526  0.00  0.00    +0.213 C 
ATOM     30  N   LIG    1       -7.821  -0.765  -1.663  0.00  0.00    -0.316 N 
ATOM     31  H   LIG    1       -8.052   0.241  -1.517  0.00  0.00    +0.149 HD
ATOM     32  O   LIG    1       -6.111  -2.315  -1.686  0.00  0.00    -0.276 OA
BRANCH  30  33
ATOM     33  C   LIG    1       -8.870  -1.680  -1.982  0.00  0.00    +0.101 C 
ATOM     34  C   LIG    1      -10.190  -0.946  -2.047  0.00  0.00    +0.024 C 
ENDBRANCH  30  33
ENDBRANCH  28  29
ENDBRANCH  27  28
ENDBRANCH  26  27
ENDBRANCH  25  26
ENDBRANCH  23  24
ENDBRANCH   5  23
TORSDOF 15
