REMARK  Name = molecules/ARFHIAQFJWUCFH-JMUHATKESA-N.pdb
REMARK                            x       y       z     vdW  Elec       q    Type
REMARK                         _______ _______ _______ _____ _____    ______ ____
ROOT
ATOM      1  N   LIG    1        0.263  -0.353  -0.211  0.00  0.00    -0.188 NA
ATOM      2  C   LIG    1        1.179   0.337   0.328  0.00  0.00    +0.176 C 
ENDROOT
BRANCH   1   3
ATOM      3  N   LIG    1       -1.086  -0.329   0.129  0.00  0.00    -0.250 N 
ATOM      4  C   LIG    1       -1.553  -1.369   1.022  0.00  0.00    +0.149 C 
ATOM      5  C   LIG    1       -2.517  -2.280   0.290  0.00  0.00    +0.186 C 
ATOM      6  S   LIG    1       -3.907  -1.270  -0.167  0.00  0.00    -0.028 S 
ATOM      7  O   LIG    1       -5.067  -1.550   0.766  0.00  0.00    -0.174 OA
ATOM      8  C   LIG    1       -3.419   0.415   0.104  0.00  0.00    +0.189 C 
ATOM      9  O   LIG    1       -4.314  -1.505  -1.591  0.00  0.00    -0.174 OA
ATOM     10  C   LIG    1       -1.987   0.670  -0.373  0.00  0.00    +0.110 C 
ATOM     11  C   LIG    1       -1.636   2.070   0.104  0.00  0.00    +0.031 C 
ENDBRANCH   1   3
BRANCH   2  12
ATOM     12  C   LIG    1        2.593   0.272  -0.072  0.00  0.00    +0.150 A 
ATOM     13  O   LIG    1        3.601   0.939   0.420  0.00  0.00    -0.433 OA
ATOM     14  C   LIG    1        4.729   0.617  -0.193  0.00  0.00    +0.280 A 
ATOM     15  C   LIG    1        4.452  -0.328  -1.159  0.00  0.00    +0.076 A 
ATOM     16  C   LIG    1        3.092  -0.534  -1.067  0.00  0.00    +0.053 A 
BRANCH  14  17
ATOM     17  N   LIG    1        6.001   1.173   0.117  0.00  0.00    +0.093 N 
ATOM     18  O   LIG    1        6.167   2.106   1.095  0.00  0.00    -0.123 OA
ATOM     19  O   LIG    1        6.984   0.784  -0.536  0.00  0.00    -0.123 OA
ENDBRANCH  14  17
ENDBRANCH   2  12
TORSDOF 3
