REMARK  Name = molecules/ARHWPKZXBHOEEE-UHFFFAOYSA-N.pdb
REMARK                            x       y       z     vdW  Elec       q    Type
REMARK                         _______ _______ _______ _____ _____    ______ ____
ROOT
ATOM      1  C   LIG    1       -1.773   0.221   0.645  0.00  0.00    -0.035 A 
ATOM      2  C   LIG    1       -0.973   1.194   1.198  0.00  0.00    +0.027 A 
ATOM      3  C   LIG    1        0.359   1.334   0.931  0.00  0.00    +0.083 A 
ATOM      4 CL   LIG    1        1.351   2.596   1.662  0.00  0.00    -0.080 Cl
ATOM      5  C   LIG    1        0.929   0.419   0.035  0.00  0.00    +0.139 A 
ATOM      6  C   LIG    1        0.157  -0.563  -0.534  0.00  0.00    +0.047 A 
ATOM      7  C   LIG    1       -1.207  -0.668  -0.230  0.00  0.00    +0.008 A 
ENDROOT
BRANCH   1   8
ATOM      8  C   LIG    1       -3.232   0.150   1.004  0.00  0.00    +0.155 C 
BRANCH   8   9
ATOM      9  C   LIG    1       -4.040   0.968   0.080  0.00  0.00    +0.309 C 
ATOM     10  O   LIG    1       -3.438   1.583  -0.837  0.00  0.00    -0.251 OA
BRANCH   9  11
ATOM     11  O   LIG    1       -5.400   1.109   0.143  0.00  0.00    -0.480 OA
ATOM     12  H   LIG    1       -5.911   1.912   0.425  0.00  0.00    +0.295 HD
ENDBRANCH   9  11
ENDBRANCH   8   9
ENDBRANCH   1   8
BRANCH   5  13
ATOM     13  O   LIG    1        2.249   0.568  -0.224  0.00  0.00    -0.487 OA
BRANCH  13  14
ATOM     14  C   LIG    1        3.144  -0.116  -1.009  0.00  0.00    +0.256 C 
BRANCH  14  15
ATOM     15  C   LIG    1        3.310  -1.512  -0.550  0.00  0.00    +0.006 C 
ATOM     16  C   LIG    1        4.503  -1.937  -0.173  0.00  0.00    +0.007 C 
ENDBRANCH  14  15
ENDBRANCH  13  14
ENDBRANCH   5  13
TORSDOF 6
