REMARK  Name = molecules/ARPYQKTVRGFPIS-VIFPVBQESA-N.pdb
REMARK                            x       y       z     vdW  Elec       q    Type
REMARK                         _______ _______ _______ _____ _____    ______ ____
ROOT
ATOM      1  C   LIG    1        2.639  -0.260   0.475  0.00  0.00    -0.032 A 
ATOM      2  C   LIG    1        2.281  -1.147   1.466  0.00  0.00    +0.008 A 
ATOM      3  C   LIG    1        0.989  -1.444   1.792  0.00  0.00    +0.049 A 
ATOM      4  C   LIG    1       -0.031  -0.806   1.072  0.00  0.00    +0.156 A 
ATOM      5  O   LIG    1       -1.329  -0.863   1.129  0.00  0.00    -0.435 OA
ATOM      6  C   LIG    1       -1.916  -0.083   0.253  0.00  0.00    +0.228 A 
ATOM      7  N   LIG    1       -0.891   0.521  -0.418  0.00  0.00    -0.209 NA
ATOM      8  C   LIG    1        0.281   0.088   0.073  0.00  0.00    +0.110 A 
ATOM      9  C   LIG    1        1.604   0.343  -0.206  0.00  0.00    +0.036 A 
ENDROOT
BRANCH   6  10
ATOM     10  C   LIG    1       -3.337   0.107   0.033  0.00  0.00    +0.037 A 
ATOM     11  C   LIG    1       -4.274  -0.561   0.775  0.00  0.00    +0.016 A 
ATOM     12  C   LIG    1       -5.633  -0.392   0.579  0.00  0.00    +0.039 A 
ATOM     13  C   LIG    1       -6.044   0.481  -0.401  0.00  0.00    +0.123 A 
ATOM     14  F   LIG    1       -7.368   0.671  -0.620  0.00  0.00    -0.205 F 
ATOM     15  C   LIG    1       -5.123   1.184  -1.182  0.00  0.00    +0.039 A 
ATOM     16  C   LIG    1       -3.764   0.975  -0.941  0.00  0.00    +0.016 A 
ENDBRANCH   6  10
BRANCH   1  17
ATOM     17  C   LIG    1        4.055  -0.011   0.204  0.00  0.00    +0.124 C 
ATOM     18  C   LIG    1        4.345   1.445   0.550  0.00  0.00    +0.024 C 
BRANCH  17  19
ATOM     19  C   LIG    1        4.466  -0.302  -1.171  0.00  0.00    +0.312 C 
ATOM     20  O   LIG    1        4.944   0.627  -1.866  0.00  0.00    -0.250 OA
BRANCH  19  21
ATOM     21  O   LIG    1        4.361  -1.550  -1.760  0.00  0.00    -0.480 OA
ATOM     22  H   LIG    1        5.089  -2.230  -1.510  0.00  0.00    +0.295 HD
ENDBRANCH  19  21
ENDBRANCH  17  19
ENDBRANCH   1  17
TORSDOF 4
