REMARK  Name = molecules/ARUGKOZUKWAXDS-SEWALLKFSA-N.pdb
REMARK                            x       y       z     vdW  Elec       q    Type
REMARK                         _______ _______ _______ _____ _____    ______ ____
ROOT
ATOM      1  C   LIG    1       -0.593   0.616   0.490  0.00  0.00    +0.096 C 
ATOM      2  C   LIG    1       -1.341  -0.429  -0.336  0.00  0.00    +0.014 C 
ATOM      3  C   LIG    1       -2.036  -1.457   0.472  0.00  0.00    +0.035 C 
ATOM      4  C   LIG    1       -3.471  -1.151   0.407  0.00  0.00    -0.071 C 
ATOM      5  C   LIG    1       -4.421  -1.777   1.126  0.00  0.00    +0.000 C 
ATOM      6  C   LIG    1       -3.718  -0.070  -0.550  0.00  0.00    +0.034 C 
ATOM      7  C   LIG    1       -2.397   0.350  -1.073  0.00  0.00    +0.000 C 
ATOM      8  C   LIG    1       -2.112   1.832  -0.798  0.00  0.00    +0.036 C 
ATOM      9  C   LIG    1       -0.626   1.776  -0.507  0.00  0.00    +0.130 C 
ENDROOT
BRANCH   1  10
ATOM     10  C   LIG    1        0.748   0.128   0.720  0.00  0.00    -0.093 C 
ATOM     11  C   LIG    1        1.860  -0.282   0.889  0.00  0.00    -0.070 C 
BRANCH  11  12
ATOM     12  C   LIG    1        3.218  -0.795   1.073  0.00  0.00    +0.192 C 
BRANCH  12  13
ATOM     13  O   LIG    1        3.269  -1.692   2.114  0.00  0.00    -0.379 OA
ATOM     14  H   LIG    1        2.761  -2.517   1.932  0.00  0.00    +0.211 HD
ENDBRANCH  12  13
BRANCH  12  15
ATOM     15  C   LIG    1        3.740  -1.417  -0.211  0.00  0.00    +0.038 C 
ATOM     16  C   LIG    1        3.818  -0.320  -1.253  0.00  0.00    +0.012 C 
BRANCH  15  17
ATOM     17  C   LIG    1        5.142  -1.938   0.005  0.00  0.00    +0.095 C 
BRANCH  17  18
ATOM     18  C   LIG    1        5.983  -0.805   0.396  0.00  0.00    -0.102 C 
ATOM     19  C   LIG    1        6.694   0.118   0.721  0.00  0.00    -0.102 C 
BRANCH  19  20
ATOM     20  C   LIG    1        7.566   1.217   1.123  0.00  0.00    +0.085 C 
ATOM     21  C   LIG    1        8.371   1.740  -0.051  0.00  0.00    +0.017 C 
ENDBRANCH  19  20
ENDBRANCH  17  18
ENDBRANCH  15  17
ENDBRANCH  12  15
ENDBRANCH  11  12
ENDBRANCH   1  10
BRANCH   9  22
ATOM     22  O   LIG    1       -0.162   2.953   0.059  0.00  0.00    -0.391 OA
ATOM     23  H   LIG    1        0.555   3.307  -0.506  0.00  0.00    +0.210 HD
ENDBRANCH   9  22
BRANCH   5  24
ATOM     24  C   LIG    1       -5.850  -1.466   1.055  0.00  0.00    +0.188 C 
BRANCH  24  25
ATOM     25  O   LIG    1       -6.152  -0.451   0.166  0.00  0.00    -0.365 OA
BRANCH  25  26
ATOM     26  C   LIG    1       -7.494  -0.176   0.115  0.00  0.00    +0.280 C 
BRANCH  26  27
ATOM     27  C   LIG    1       -7.737   0.915  -0.856  0.00  0.00    +0.331 C 
ATOM     28  O   LIG    1       -8.878   1.378  -1.110  0.00  0.00    -0.248 OA
BRANCH  27  29
ATOM     29  O   LIG    1       -6.662   1.468  -1.530  0.00  0.00    -0.479 OA
ATOM     30  H   LIG    1       -6.037   2.150  -1.123  0.00  0.00    +0.295 HD
ENDBRANCH  27  29
ENDBRANCH  26  27
ENDBRANCH  25  26
ENDBRANCH  24  25
ENDBRANCH   5  24
TORSDOF 13
