REMARK  Name = molecules/ASMXXROZKSBQIH-DVBNTOJCSA-N.pdb
REMARK                            x       y       z     vdW  Elec       q    Type
REMARK                         _______ _______ _______ _____ _____    ______ ____
ROOT
ATOM      1  N   LIG    1       -1.158  -1.096  -0.757  0.00  0.00    +0.383 N 
ATOM      2  C   LIG    1       -0.074  -0.657   0.160  0.00  0.00    -0.030 C 
ATOM      3  C   LIG    1        1.230  -1.110  -0.384  0.00  0.00    +0.164 C 
ATOM      4  C   LIG    1        1.123  -0.964  -1.915  0.00  0.00    +0.025 C 
ATOM      5  C   LIG    1        0.264   0.283  -2.102  0.00  0.00    -0.011 C 
ATOM      6  C   LIG    1        0.323  -2.184  -2.349  0.00  0.00    -0.011 C 
ATOM      7  C   LIG    1       -0.739  -2.410  -1.284  0.00  0.00    -0.075 C 
ATOM      8  C   LIG    1       -1.192  -0.175  -1.839  0.00  0.00    -0.075 C 
ENDROOT
BRANCH   1   9
ATOM      9  C   LIG    1       -2.322  -1.318   0.011  0.00  0.00    -0.072 C 
BRANCH   9  10
ATOM     10  C   LIG    1       -3.591  -1.650  -0.639  0.00  0.00    +0.023 C 
BRANCH  10  11
ATOM     11  C   LIG    1       -4.222  -0.658  -1.552  0.00  0.00    +0.227 C 
BRANCH  11  12
ATOM     12  O   LIG    1       -4.516   0.580  -1.043  0.00  0.00    -0.492 OA
BRANCH  12  13
ATOM     13  C   LIG    1       -5.322   1.050  -0.069  0.00  0.00    +0.120 A 
ATOM     14  C   LIG    1       -6.162   0.325   0.743  0.00  0.00    +0.045 A 
ATOM     15  C   LIG    1       -6.945   0.901   1.713  0.00  0.00    +0.004 A 
ATOM     16  C   LIG    1       -6.921   2.247   1.915  0.00  0.00    +0.000 A 
ATOM     17  C   LIG    1       -6.098   3.017   1.128  0.00  0.00    +0.004 A 
ATOM     18  C   LIG    1       -5.330   2.441   0.175  0.00  0.00    +0.045 A 
ENDBRANCH  12  13
ENDBRANCH  11  12
ENDBRANCH  10  11
ENDBRANCH   9  10
ENDBRANCH   1   9
BRANCH   3  19
ATOM     19  O   LIG    1        2.328  -0.368   0.099  0.00  0.00    -0.460 OA
BRANCH  19  20
ATOM     20  C   LIG    1        3.341  -1.045   0.757  0.00  0.00    +0.350 C 
ATOM     21  O   LIG    1        3.205  -2.296   0.882  0.00  0.00    -0.247 OA
BRANCH  20  22
ATOM     22  C   LIG    1        4.534  -0.410   1.306  0.00  0.00    +0.226 C 
BRANCH  22  23
ATOM     23  C   LIG    1        4.225   0.725   2.254  0.00  0.00    +0.037 A 
ATOM     24  C   LIG    1        4.695   0.897   3.531  0.00  0.00    +0.015 A 
ATOM     25  C   LIG    1        4.291   1.987   4.189  0.00  0.00    +0.008 A 
ATOM     26  C   LIG    1        3.443   2.842   3.540  0.00  0.00    +0.045 A 
ATOM     27  S   LIG    1        3.236   2.093   2.022  0.00  0.00    -0.098 S 
ENDBRANCH  22  23
BRANCH  22  28
ATOM     28  C   LIG    1        5.391   0.212   0.242  0.00  0.00    +0.037 A 
ATOM     29  S   LIG    1        7.017   0.687   0.362  0.00  0.00    -0.098 S 
ATOM     30  C   LIG    1        7.251   1.286  -1.214  0.00  0.00    +0.045 A 
ATOM     31  C   LIG    1        6.029   1.096  -1.806  0.00  0.00    +0.008 A 
ATOM     32  C   LIG    1        5.061   0.536  -1.044  0.00  0.00    +0.015 A 
ENDBRANCH  22  28
BRANCH  22  33
ATOM     33  O   LIG    1        5.335  -1.352   1.930  0.00  0.00    -0.369 OA
ATOM     34  H   LIG    1        5.115  -2.236   1.520  0.00  0.00    +0.212 HD
ENDBRANCH  22  33
ENDBRANCH  20  22
ENDBRANCH  19  20
ENDBRANCH   3  19
TORSDOF 11
