REMARK  Name = molecules/ASOADIZOVZTJSR-UHFFFAOYSA-N.pdb
REMARK                            x       y       z     vdW  Elec       q    Type
REMARK                         _______ _______ _______ _____ _____    ______ ____
ROOT
ATOM      1  C   LIG    1       -1.169  -0.664   0.546  0.00  0.00    +0.259 A 
ATOM      2  O   LIG    1       -0.653  -1.697   1.159  0.00  0.00    -0.332 OA
ATOM      3  N   LIG    1        0.636  -1.628   1.214  0.00  0.00    -0.056 NA
ATOM      4  C   LIG    1        0.985  -0.486   0.604  0.00  0.00    +0.202 A 
ATOM      5  N   LIG    1       -0.140   0.115   0.187  0.00  0.00    -0.187 NA
ENDROOT
BRANCH   4   6
ATOM      6  C   LIG    1        2.371  -0.039   0.456  0.00  0.00    +0.050 C 
ATOM      7  C   LIG    1        2.955   0.756   1.428  0.00  0.00    +0.146 C 
ATOM      8 CL   LIG    1        2.007   1.222   2.841  0.00  0.00    -0.061 Cl
ATOM      9  N   LIG    1        4.226   1.185   1.323  0.00  0.00    -0.179 N 
ATOM     10  O   LIG    1        4.827   1.975   2.274  0.00  0.00    -0.079 OA
ATOM     11  C   LIG    1        4.933   0.815   0.230  0.00  0.00    +0.064 C 
ATOM     12  C   LIG    1        6.340   1.293   0.122  0.00  0.00    +0.067 C 
ATOM     13  C   LIG    1        4.391   0.027  -0.756  0.00  0.00    +0.052 C 
ATOM     14 CL   LIG    1        5.315  -0.453  -2.179  0.00  0.00    -0.085 Cl
ATOM     15  C   LIG    1        3.073  -0.422  -0.656  0.00  0.00    +0.051 C 
ATOM     16  C   LIG    1        2.516  -1.272  -1.738  0.00  0.00    +0.023 C 
ENDBRANCH   4   6
BRANCH   1  18
ATOM     17  C   LIG    1       -3.058   0.685  -0.343  0.00  0.00    +0.050 A 
ATOM     18  C   LIG    1       -2.605  -0.425   0.308  0.00  0.00    +0.045 A 
ATOM     19  C   LIG    1       -3.513  -1.347   0.755  0.00  0.00    +0.062 A 
ATOM     20  C   LIG    1       -4.881  -1.198   0.572  0.00  0.00    +0.161 A 
ATOM     21  C   LIG    1       -5.320  -0.069  -0.089  0.00  0.00    +0.189 A 
ATOM     22  C   LIG    1       -4.420   0.867  -0.544  0.00  0.00    +0.172 A 
BRANCH  22  23
ATOM     23  N   LIG    1       -4.918   2.011  -1.217  0.00  0.00    +0.060 N 
ATOM     24  O   LIG    1       -4.204   3.049  -1.145  0.00  0.00    -0.126 OA
ATOM     25  O   LIG    1       -6.083   2.051  -1.912  0.00  0.00    -0.126 OA
ENDBRANCH  22  23
BRANCH  20  26
ATOM     26  O   LIG    1       -5.803  -2.130   1.023  0.00  0.00    -0.503 OA
ATOM     27  H   LIG    1       -5.432  -2.946   1.504  0.00  0.00    +0.292 HD
ENDBRANCH  20  26
BRANCH  21  28
ATOM     28  O   LIG    1       -6.665   0.152  -0.310  0.00  0.00    -0.502 OA
ATOM     29  H   LIG    1       -7.361  -0.515   0.011  0.00  0.00    +0.292 HD
ENDBRANCH  21  28
ENDBRANCH   1  18
TORSDOF 5
