REMARK  Name = molecules/ASWVTGNCAZCNNR-UHFFFAOYSA-N.pdb
REMARK                            x       y       z     vdW  Elec       q    Type
REMARK                         _______ _______ _______ _____ _____    ______ ____
ROOT
ATOM      1  S   LIG    1       -0.913  -2.290  -0.860  0.00  0.00    +0.075 S 
ATOM      2  O   LIG    1       -1.516  -3.679  -0.830  0.00  0.00    -0.150 OA
ATOM      3  O   LIG    1       -0.698  -1.970  -2.329  0.00  0.00    -0.150 OA
ENDROOT
BRANCH   1   4
ATOM      4  C   LIG    1       -1.986  -1.132  -0.132  0.00  0.00    +0.109 A 
ATOM      5  C   LIG    1       -2.712  -1.479   0.960  0.00  0.00    +0.030 A 
ATOM      6  C   LIG    1       -3.564  -0.526   1.510  0.00  0.00    +0.024 A 
ATOM      7  C   LIG    1       -3.686   0.742   0.981  0.00  0.00    +0.025 A 
ATOM      8  C   LIG    1       -2.945   1.088  -0.130  0.00  0.00    +0.024 A 
ATOM      9  C   LIG    1       -2.095   0.122  -0.670  0.00  0.00    +0.030 A 
BRANCH   7  10
ATOM     10  N   LIG    1       -4.573   1.673   1.586  0.00  0.00    -0.358 N 
ATOM     11  H   LIG    1       -4.247   2.621   1.821  0.00  0.00    +0.142 HD
ATOM     12  H   LIG    1       -5.549   1.336   1.770  0.00  0.00    +0.142 HD
ENDBRANCH   7  10
ENDBRANCH   1   4
BRANCH   1  13
ATOM     13  N   LIG    1        0.647  -2.315  -0.140  0.00  0.00    -0.184 N 
ATOM     14  H   LIG    1        0.970  -3.211   0.318  0.00  0.00    +0.177 HD
BRANCH  13  18
ATOM     15  C   LIG    1        4.884  -0.381   1.121  0.00  0.00    +0.066 C 
ATOM     16  C   LIG    1        3.558  -0.237   0.466  0.00  0.00    +0.044 A 
ATOM     17  N   LIG    1        2.705  -1.273   0.437  0.00  0.00    -0.219 NA
ATOM     18  C   LIG    1        1.483  -1.181  -0.153  0.00  0.00    +0.235 A 
ATOM     19  N   LIG    1        1.111  -0.030  -0.722  0.00  0.00    -0.219 NA
ATOM     20  C   LIG    1        1.905   1.055  -0.737  0.00  0.00    +0.044 A 
ATOM     21  C   LIG    1        1.506   2.342  -1.366  0.00  0.00    +0.066 C 
ATOM     22  C   LIG    1        3.140   0.940  -0.133  0.00  0.00    +0.046 A 
ENDBRANCH  13  18
ENDBRANCH   1  13
TORSDOF 4
