REMARK  Name = molecules/ASXBYYWOLISCLQ-APUVXCOVSA-N.pdb
REMARK                            x       y       z     vdW  Elec       q    Type
REMARK                         _______ _______ _______ _____ _____    ______ ____
ROOT
ATOM      1  O   LIG    1        0.817   0.198  -0.932  0.00  0.00    -0.339 OA
ENDROOT
BRANCH   1   2
ATOM      2  C   LIG    1        1.610   0.350   0.174  0.00  0.00    +0.192 C 
ATOM      3  C   LIG    1        1.612  -0.871   1.022  0.00  0.00    +0.179 C 
ATOM      4  C   LIG    1        2.290  -2.050   0.354  0.00  0.00    +0.185 C 
ATOM      5  C   LIG    1        3.544  -1.668  -0.343  0.00  0.00    +0.208 C 
ATOM      6  C   LIG    1        4.054  -0.288   0.022  0.00  0.00    +0.193 C 
ATOM      7  C   LIG    1        3.007   0.724  -0.308  0.00  0.00    +0.208 C 
BRANCH   7   8
ATOM      8  N   LIG    1        3.443   2.001   0.217  0.00  0.00    -0.268 N 
ATOM      9  H   LIG    1        3.693   2.802  -0.430  0.00  0.00    +0.258 HD
BRANCH   8  10
ATOM     10  C   LIG    1        3.564   2.272   1.596  0.00  0.00    +0.377 C 
ATOM     11  N   LIG    1        4.667   1.770   2.315  0.00  0.00    -0.289 N 
ATOM     12  H   LIG    1        4.512   1.455   3.305  0.00  0.00    +0.255 HD
ATOM     13  H   LIG    1        5.629   1.695   1.913  0.00  0.00    +0.255 HD
BRANCH  10  14
ATOM     14  N   LIG    1        2.677   2.971   2.193  0.00  0.00    -0.130 NA
ATOM     15  H   LIG    1        1.837   3.378   1.744  0.00  0.00    +0.306 HD
ENDBRANCH  10  14
ENDBRANCH   8  10
ENDBRANCH   7   8
BRANCH   4  16
ATOM     16  O   LIG    1        1.400  -2.675  -0.546  0.00  0.00    -0.386 OA
ATOM     17  H   LIG    1        0.514  -2.660  -0.124  0.00  0.00    +0.210 HD
ENDBRANCH   4  16
BRANCH   5  18
ATOM     18  N   LIG    1        4.632  -2.596  -0.271  0.00  0.00    -0.268 N 
ATOM     19  H   LIG    1        4.787  -3.206  -1.125  0.00  0.00    +0.258 HD
BRANCH  18  20
ATOM     20  C   LIG    1        5.521  -2.809   0.792  0.00  0.00    +0.377 C 
ATOM     21  N   LIG    1        6.839  -3.312   0.481  0.00  0.00    -0.289 N 
ATOM     22  H   LIG    1        7.069  -4.303   0.687  0.00  0.00    +0.255 HD
ATOM     23  H   LIG    1        7.577  -2.717   0.056  0.00  0.00    +0.255 HD
BRANCH  20  24
ATOM     24  N   LIG    1        5.239  -2.585   2.002  0.00  0.00    -0.130 NA
ATOM     25  H   LIG    1        4.369  -2.233   2.369  0.00  0.00    +0.306 HD
ENDBRANCH  20  24
ENDBRANCH  18  20
ENDBRANCH   5  18
BRANCH   6  26
ATOM     26  O   LIG    1        5.145  -0.043  -0.843  0.00  0.00    -0.385 OA
ATOM     27  H   LIG    1        5.834  -0.752  -0.763  0.00  0.00    +0.210 HD
ENDBRANCH   6  26
BRANCH   3  28
ATOM     28  O   LIG    1        2.187  -0.610   2.263  0.00  0.00    -0.386 OA
ATOM     29  H   LIG    1        1.811   0.226   2.630  0.00  0.00    +0.210 HD
ENDBRANCH   3  28
ENDBRANCH   1   2
BRANCH   1  30
ATOM     30  C   LIG    1       -0.163   1.184  -1.097  0.00  0.00    +0.283 C 
ATOM     31  C   LIG    1       -1.495   0.689  -1.523  0.00  0.00    +0.213 C 
ATOM     32  C   LIG    1       -1.907   1.597  -2.620  0.00  0.00    +0.145 C 
ATOM     33  C   LIG    1       -0.761   2.574  -2.712  0.00  0.00    +0.155 C 
ATOM     34  C   LIG    1       -1.093   3.925  -2.115  0.00  0.00    +0.041 C 
ATOM     35  O   LIG    1        0.334   1.988  -2.166  0.00  0.00    -0.343 OA
BRANCH  32  36
ATOM     36  O   LIG    1       -3.026   2.391  -2.313  0.00  0.00    -0.381 OA
ATOM     37  H   LIG    1       -3.123   2.411  -1.308  0.00  0.00    +0.210 HD
ENDBRANCH  32  36
BRANCH  31  38
ATOM     38  O   LIG    1       -2.408   0.523  -0.492  0.00  0.00    -0.338 OA
BRANCH  38  39
ATOM     39  C   LIG    1       -2.727  -0.756  -0.185  0.00  0.00    +0.271 C 
ATOM     40  O   LIG    1       -2.079  -1.016   1.056  0.00  0.00    -0.341 OA
ATOM     41  C   LIG    1       -2.852  -0.534   2.112  0.00  0.00    +0.178 C 
ATOM     42  C   LIG    1       -4.051  -1.443   2.346  0.00  0.00    +0.176 C 
ATOM     43  C   LIG    1       -4.247  -2.200   1.064  0.00  0.00    +0.167 C 
ATOM     44  C   LIG    1       -4.122  -1.206  -0.099  0.00  0.00    +0.141 C 
BRANCH  44  45
ATOM     45  N   LIG    1       -5.186  -0.277  -0.084  0.00  0.00    -0.310 NA
ATOM     46  H   LIG    1       -5.086   0.449   0.660  0.00  0.00    +0.122 HD
ATOM     47  C   LIG    1       -5.317   0.433  -1.321  0.00  0.00    +0.101 C 
ENDBRANCH  44  45
BRANCH  43  48
ATOM     48  O   LIG    1       -3.201  -3.122   0.873  0.00  0.00    -0.387 OA
ATOM     49  H   LIG    1       -2.740  -3.319   1.737  0.00  0.00    +0.210 HD
ENDBRANCH  43  48
BRANCH  42  50
ATOM     50  O   LIG    1       -5.158  -0.688   2.642  0.00  0.00    -0.387 OA
ATOM     51  H   LIG    1       -5.050  -0.058   3.373  0.00  0.00    +0.210 HD
ENDBRANCH  42  50
BRANCH  41  52
ATOM     52  C   LIG    1       -1.999  -0.599   3.367  0.00  0.00    +0.190 C 
BRANCH  52  53
ATOM     53  O   LIG    1       -0.878   0.200   3.158  0.00  0.00    -0.392 OA
ATOM     54  H   LIG    1       -0.718   0.789   3.928  0.00  0.00    +0.210 HD
ENDBRANCH  52  53
ENDBRANCH  41  52
ENDBRANCH  38  39
ENDBRANCH  31  38
BRANCH  32  55
ATOM     55  C   LIG    1       -2.113   0.879  -3.941  0.00  0.00    +0.196 C 
BRANCH  55  56
ATOM     56  O   LIG    1       -2.291   1.857  -4.918  0.00  0.00    -0.392 OA
ATOM     57  H   LIG    1       -2.671   2.707  -4.531  0.00  0.00    +0.210 HD
ENDBRANCH  55  56
ENDBRANCH  32  55
ENDBRANCH   1  30
TORSDOF 21
