REMARK  Name = molecules/ATALOFNDEOCMKK-OITMNORJSA-N.pdb
REMARK                            x       y       z     vdW  Elec       q    Type
REMARK                         _______ _______ _______ _____ _____    ______ ____
ROOT
ATOM      1  C   LIG    1       -0.536  -0.920   1.297  0.00  0.00    +0.272 C 
ATOM      2  O   LIG    1       -1.041  -0.305   2.532  0.00  0.00    -0.348 OA
ATOM      3  C   LIG    1       -1.308   1.030   2.231  0.00  0.00    +0.178 C 
ATOM      4  C   LIG    1       -1.348   1.386   0.790  0.00  0.00    +0.113 C 
ATOM      5  N   LIG    1       -2.062   0.463  -0.071  0.00  0.00    -0.282 NA
ATOM      6  C   LIG    1       -1.726  -0.873   0.431  0.00  0.00    +0.144 C 
ENDROOT
BRANCH   6   7
ATOM      7  C   LIG    1       -2.005  -1.984  -0.480  0.00  0.00    -0.025 A 
ATOM      8  C   LIG    1       -2.433  -3.218   0.103  0.00  0.00    +0.008 A 
ATOM      9  C   LIG    1       -2.789  -4.309  -0.628  0.00  0.00    +0.038 A 
ATOM     10  C   LIG    1       -2.754  -4.281  -2.009  0.00  0.00    +0.123 A 
ATOM     11  C   LIG    1       -2.342  -3.090  -2.591  0.00  0.00    +0.038 A 
ATOM     12  F   LIG    1       -3.114  -5.340  -2.738  0.00  0.00    -0.205 F 
ATOM     13  C   LIG    1       -1.977  -1.978  -1.838  0.00  0.00    +0.008 A 
ENDBRANCH   6   7
BRANCH   1  14
ATOM     14  O   LIG    1        0.594  -0.239   1.051  0.00  0.00    -0.342 OA
BRANCH  14  16
ATOM     15  C   LIG    1        2.281  -0.936   2.564  0.00  0.00    +0.043 C 
ATOM     16  C   LIG    1        1.788  -0.922   1.039  0.00  0.00    +0.148 C 
BRANCH  16  17
ATOM     17  C   LIG    1        2.906  -0.344   0.349  0.00  0.00    -0.018 A 
ATOM     18  C   LIG    1        3.174   1.027   0.519  0.00  0.00    +0.018 A 
ATOM     19  C   LIG    1        4.193   1.667  -0.096  0.00  0.00    +0.056 A 
ATOM     20  C   LIG    1        5.004   0.939  -0.929  0.00  0.00    +0.024 A 
ATOM     21  C   LIG    1        4.802  -0.419  -1.140  0.00  0.00    +0.056 A 
ATOM     22  C   LIG    1        3.750  -1.026  -0.491  0.00  0.00    +0.018 A 
BRANCH  19  23
ATOM     23  C   LIG    1        4.443   3.132   0.135  0.00  0.00    +0.417 C 
ATOM     24  F   LIG    1        4.512   3.379   1.489  0.00  0.00    -0.166 F 
ATOM     25  F   LIG    1        3.453   3.902  -0.443  0.00  0.00    -0.166 F 
ATOM     26  F   LIG    1        5.648   3.465  -0.450  0.00  0.00    -0.166 F 
ENDBRANCH  19  23
BRANCH  21  27
ATOM     27  C   LIG    1        5.766  -1.083  -2.043  0.00  0.00    +0.417 C 
ATOM     28  F   LIG    1        7.069  -0.695  -1.767  0.00  0.00    -0.166 F 
ATOM     29  F   LIG    1        5.698  -2.450  -1.846  0.00  0.00    -0.166 F 
ATOM     30  F   LIG    1        5.507  -0.779  -3.354  0.00  0.00    -0.166 F 
ENDBRANCH  21  27
ENDBRANCH  16  17
ENDBRANCH  14  16
ENDBRANCH   1  14
BRANCH   5  31
ATOM     31  C   LIG    1       -3.507   0.580   0.052  0.00  0.00    +0.161 C 
BRANCH  31  32
ATOM     32  C   LIG    1       -4.074   1.893  -0.267  0.00  0.00    +0.145 A 
ATOM     33  N   LIG    1       -4.230   2.883   0.621  0.00  0.00    -0.293 N 
ATOM     34  H   LIG    1       -3.972   2.882   1.633  0.00  0.00    +0.172 HD
ATOM     35  C   LIG    1       -4.794   3.958   0.047  0.00  0.00    +0.342 A 
ATOM     36  O   LIG    1       -5.065   5.039   0.593  0.00  0.00    -0.245 OA
ATOM     37  N   LIG    1       -4.994   3.615  -1.240  0.00  0.00    -0.227 N 
ATOM     38  H   LIG    1       -5.420   4.257  -1.963  0.00  0.00    +0.194 HD
ATOM     39  N   LIG    1       -4.553   2.358  -1.423  0.00  0.00    -0.155 NA
ENDBRANCH  31  32
ENDBRANCH   5  31
TORSDOF 8
