REMARK  Name = molecules/ATCGGEJZONJOCL-UHFFFAOYSA-N.pdb
REMARK                            x       y       z     vdW  Elec       q    Type
REMARK                         _______ _______ _______ _____ _____    ______ ____
ROOT
ATOM      1  C   LIG    1       -0.335   0.037  -0.124  0.00  0.00    +0.168 A 
ATOM      2  N   LIG    1       -1.133  -1.044   0.056  0.00  0.00    -0.195 NA
ATOM      3  C   LIG    1       -2.461  -0.906   0.089  0.00  0.00    +0.217 A 
ATOM      4  N   LIG    1       -3.055   0.314  -0.054  0.00  0.00    -0.181 NA
ATOM      5  C   LIG    1       -2.275   1.375  -0.231  0.00  0.00    +0.217 A 
ATOM      6  N   LIG    1       -0.950   1.216  -0.261  0.00  0.00    -0.195 NA
ENDROOT
BRANCH   1  14
ATOM      7 CL   LIG    1        0.641  -2.806   0.228  0.00  0.00    -0.083 Cl
ATOM      8  C   LIG    1        1.664  -1.380  -0.008  0.00  0.00    +0.052 A 
ATOM      9  C   LIG    1        3.034  -1.501  -0.046  0.00  0.00    +0.022 A 
ATOM     10  C   LIG    1        3.802  -0.372  -0.231  0.00  0.00    +0.021 A 
ATOM     11  C   LIG    1        3.250   0.892  -0.383  0.00  0.00    +0.042 A 
ATOM     12  C   LIG    1        1.888   0.978  -0.341  0.00  0.00    +0.033 A 
ATOM     13 CL   LIG    1        4.229   2.324  -0.618  0.00  0.00    -0.084 Cl
ATOM     14  C   LIG    1        1.101  -0.136  -0.157  0.00  0.00    +0.039 A 
ENDBRANCH   1  14
BRANCH   3  15
ATOM     15  N   LIG    1       -3.258  -2.073   0.281  0.00  0.00    -0.327 N 
ATOM     16  H   LIG    1       -3.442  -2.501   1.206  0.00  0.00    +0.145 HD
ATOM     17  H   LIG    1       -3.662  -2.490  -0.603  0.00  0.00    +0.145 HD
ENDBRANCH   3  15
BRANCH   5  18
ATOM     18  N   LIG    1       -2.814   2.682  -0.389  0.00  0.00    -0.327 N 
ATOM     19  H   LIG    1       -3.725   2.937   0.060  0.00  0.00    +0.145 HD
ATOM     20  H   LIG    1       -2.321   3.413  -0.949  0.00  0.00    +0.145 HD
ENDBRANCH   5  18
TORSDOF 3
