REMARK  Name = molecules/ATLJNLYIJOCWJE-CWMZOUAVSA-N.pdb
REMARK                            x       y       z     vdW  Elec       q    Type
REMARK                         _______ _______ _______ _____ _____    ______ ____
ROOT
ATOM      1  C   LIG    1       -2.223   0.491   1.484  0.00  0.00    +0.015 C 
ATOM      2  C   LIG    1       -1.900  -0.256   0.204  0.00  0.00    +0.007 C 
ATOM      3  C   LIG    1       -1.054  -1.446   0.610  0.00  0.00    +0.010 C 
ATOM      4  C   LIG    1        0.328  -1.116   1.041  0.00  0.00    +0.005 C 
ATOM      5  C   LIG    1        1.055  -0.508  -0.166  0.00  0.00    +0.001 C 
ATOM      6  C   LIG    1        2.490  -0.180   0.192  0.00  0.00    -0.026 C 
ATOM      7  C   LIG    1        2.498   0.219   1.656  0.00  0.00    +0.012 C 
ATOM      8  C   LIG    1        3.259  -1.501   0.065  0.00  0.00    +0.010 C 
ATOM      9  C   LIG    1        4.640  -1.273   0.571  0.00  0.00    +0.032 C 
ATOM     10  C   LIG    1        5.348  -0.130  -0.099  0.00  0.00    +0.115 C 
ATOM     11  C   LIG    1        4.514   0.622  -1.067  0.00  0.00    +0.035 C 
ATOM     12  C   LIG    1        3.103   0.839  -0.694  0.00  0.00    -0.002 C 
ATOM     13  C   LIG    1        2.279   0.877  -1.989  0.00  0.00    +0.004 C 
ATOM     14  C   LIG    1        0.954   1.470  -1.644  0.00  0.00    +0.007 C 
ATOM     15  C   LIG    1        0.313   0.744  -0.492  0.00  0.00    +0.028 C 
ATOM     16  C   LIG    1       -3.144  -0.779  -0.453  0.00  0.00    +0.033 C 
ATOM     17  C   LIG    1       -2.967  -0.567  -1.919  0.00  0.00    +0.043 C 
ATOM     18  C   LIG    1       -1.652   0.128  -2.097  0.00  0.00    +0.152 C 
ATOM     19  O   LIG    1       -1.679   1.442  -1.647  0.00  0.00    -0.364 OA
ATOM     20  C   LIG    1       -1.134   0.526  -0.778  0.00  0.00    +0.105 C 
ENDROOT
BRANCH  16  21
ATOM     21  C   LIG    1       -4.399  -0.295   0.095  0.00  0.00    -0.008 A 
ATOM     22  C   LIG    1       -5.357  -1.144   0.660  0.00  0.00    +0.203 A 
ATOM     23  O   LIG    1       -6.479  -0.696   1.148  0.00  0.00    -0.430 OA
ATOM     24  C   LIG    1       -6.799   0.576   1.149  0.00  0.00    +0.337 A 
ATOM     25  O   LIG    1       -7.908   0.974   1.637  0.00  0.00    -0.245 OA
ATOM     26  C   LIG    1       -5.922   1.496   0.615  0.00  0.00    +0.092 A 
ATOM     27  C   LIG    1       -4.731   1.036   0.095  0.00  0.00    +0.014 A 
ENDBRANCH  16  21
BRANCH  10  28
ATOM     28  O   LIG    1        5.988   0.715   0.837  0.00  0.00    -0.392 OA
ATOM     29  H   LIG    1        5.576   1.604   0.807  0.00  0.00    +0.210 HD
ENDBRANCH  10  28
TORSDOF 2
