REMARK  Name = molecules/ATXHVCQZZJYMCF-XUDSTZEESA-N.pdb
REMARK                            x       y       z     vdW  Elec       q    Type
REMARK                         _______ _______ _______ _____ _____    ______ ____
ROOT
ATOM      1  C   LIG    1        1.192   0.475  -1.748  0.00  0.00    +0.014 C 
ATOM      2  C   LIG    1        1.513  -0.228  -0.471  0.00  0.00    +0.000 C 
ATOM      3  C   LIG    1        0.908   0.470   0.737  0.00  0.00    +0.001 C 
ATOM      4  C   LIG    1        1.761   1.704   0.804  0.00  0.00    +0.007 C 
ATOM      5  C   LIG    1        3.154   1.236   0.374  0.00  0.00    +0.036 C 
ATOM      6  C   LIG    1       -0.520   0.716   0.404  0.00  0.00    -0.003 C 
ATOM      7  C   LIG    1       -1.248   1.503   1.464  0.00  0.00    +0.008 C 
ATOM      8  C   LIG    1       -2.710   1.225   1.551  0.00  0.00    +0.031 C 
ATOM      9  C   LIG    1       -3.293   0.662   0.310  0.00  0.00    -0.070 C 
ATOM     10  C   LIG    1       -4.560   0.925   0.033  0.00  0.00    -0.027 C 
ATOM     11  C   LIG    1       -5.097   0.334  -1.225  0.00  0.00    +0.027 C 
ATOM     12  C   LIG    1       -4.713  -1.117  -1.312  0.00  0.00    +0.005 C 
ATOM     13  C   LIG    1       -3.271  -1.393  -1.074  0.00  0.00    +0.008 C 
ATOM     14  C   LIG    1       -2.519  -0.183  -0.633  0.00  0.00    +0.018 C 
ATOM     15  C   LIG    1       -1.231  -0.557   0.117  0.00  0.00    -0.000 C 
ATOM     16  C   LIG    1       -0.504  -1.569  -0.666  0.00  0.00    +0.005 C 
ATOM     17  C   LIG    1        3.000  -0.129  -0.245  0.00  0.00    +0.075 C 
ATOM     18  C   LIG    1        0.984  -1.628  -0.421  0.00  0.00    +0.010 C 
ENDROOT
BRANCH  17  19
ATOM     19  O   LIG    1        3.589  -0.088  -1.524  0.00  0.00    -0.388 OA
ATOM     20  H   LIG    1        3.587   0.853  -1.889  0.00  0.00    +0.210 HD
ENDBRANCH  17  19
BRANCH  17  21
ATOM     21  C   LIG    1        3.547  -1.224   0.585  0.00  0.00    +0.062 C 
BRANCH  21  22
ATOM     22  C   LIG    1        5.006  -1.097   0.774  0.00  0.00    -0.032 C 
ATOM     23  C   LIG    1        5.789  -0.180   0.268  0.00  0.00    +0.004 C 
ENDBRANCH  21  22
ENDBRANCH  17  21
TORSDOF 3
