REMARK  Name = molecules/AUFSOOYCQYDGES-SECBINFHSA-N.pdb
REMARK                            x       y       z     vdW  Elec       q    Type
REMARK                         _______ _______ _______ _____ _____    ______ ____
ROOT
ATOM      1  C   LIG    1        0.393   0.190  -0.591  0.00  0.00    +0.030 C 
ATOM      2  C   LIG    1        0.763  -1.142  -1.149  0.00  0.00    +0.014 C 
ENDROOT
BRANCH   1   3
ATOM      3  C   LIG    1       -1.029   0.176  -0.100  0.00  0.00    -0.043 A 
ATOM      4  C   LIG    1       -1.396  -0.671   0.921  0.00  0.00    +0.004 A 
ATOM      5  C   LIG    1       -2.709  -0.702   1.397  0.00  0.00    +0.000 A 
ATOM      6  C   LIG    1       -3.639   0.130   0.830  0.00  0.00    +0.000 A 
ATOM      7  C   LIG    1       -3.306   0.985  -0.188  0.00  0.00    +0.000 A 
ATOM      8  C   LIG    1       -1.998   0.989  -0.634  0.00  0.00    +0.004 A 
ENDBRANCH   1   3
BRANCH   1   9
ATOM      9  C   LIG    1        1.331   0.651   0.469  0.00  0.00    +0.088 C 
BRANCH   9  11
ATOM     10  C   LIG    1        3.509  -0.272  -0.153  0.00  0.00    +0.101 C 
ATOM     11  N   LIG    1        2.679   0.827   0.130  0.00  0.00    -0.318 NA
ATOM     12  H   LIG    1        3.072   1.767   0.111  0.00  0.00    +0.122 HD
ENDBRANCH   9  11
ENDBRANCH   1   9
TORSDOF 3
