REMARK  Name = molecules/AUNGANRZJHBGPY-SCRDCRAPSA-N.pdb
REMARK                            x       y       z     vdW  Elec       q    Type
REMARK                         _______ _______ _______ _____ _____    ______ ____
ROOT
ATOM      1  N   LIG    1       -0.424   1.235   0.356  0.00  0.00    -0.320 N 
ATOM      2  C   LIG    1       -0.414   2.509  -0.143  0.00  0.00    +0.170 A 
ATOM      3  N   LIG    1        0.235   3.515   0.466  0.00  0.00    -0.173 NA
ATOM      4  C   LIG    1        0.261   4.772   0.008  0.00  0.00    +0.351 A 
ATOM      5  O   LIG    1        0.898   5.662   0.644  0.00  0.00    -0.245 OA
ATOM      6  N   LIG    1       -0.370   5.124  -1.112  0.00  0.00    -0.272 N 
ATOM      7  H   LIG    1       -0.385   6.082  -1.515  0.00  0.00    +0.174 HD
ATOM      8  C   LIG    1       -1.057   4.172  -1.800  0.00  0.00    +0.282 A 
ATOM      9  O   LIG    1       -1.658   4.484  -2.856  0.00  0.00    -0.265 OA
ATOM     10  C   LIG    1       -1.117   2.870  -1.375  0.00  0.00    +0.171 A 
ATOM     11  N   LIG    1       -1.789   1.907  -2.026  0.00  0.00    -0.237 NA
ATOM     12  C   LIG    1       -1.798   0.650  -1.527  0.00  0.00    +0.089 A 
ATOM     13  C   LIG    1       -2.524  -0.292  -2.224  0.00  0.00    +0.033 A 
ATOM     14  C   LIG    1       -2.611  -1.589  -1.780  0.00  0.00    -0.045 A 
ATOM     15  C   LIG    1       -1.946  -1.932  -0.605  0.00  0.00    -0.045 A 
ATOM     16  C   LIG    1       -1.229  -0.977   0.069  0.00  0.00    +0.031 A 
ATOM     17  C   LIG    1       -2.050  -3.345  -0.133  0.00  0.00    +0.044 C 
ATOM     18  C   LIG    1       -3.386  -2.629  -2.508  0.00  0.00    +0.044 C 
ATOM     19  C   LIG    1       -1.115   0.330  -0.341  0.00  0.00    +0.069 A 
ENDROOT
BRANCH   1  20
ATOM     20  C   LIG    1        0.328   0.922   1.520  0.00  0.00    +0.158 C 
BRANCH  20  21
ATOM     21  C   LIG    1        1.790   0.680   1.341  0.00  0.00    +0.165 C 
BRANCH  21  22
ATOM     22  O   LIG    1        2.299   1.917   0.761  0.00  0.00    -0.387 OA
ATOM     23  H   LIG    1        3.240   2.014   1.009  0.00  0.00    +0.210 HD
ENDBRANCH  21  22
BRANCH  21  24
ATOM     24  C   LIG    1        2.269  -0.408   0.484  0.00  0.00    +0.175 C 
BRANCH  24  25
ATOM     25  O   LIG    1        1.807  -0.410  -0.833  0.00  0.00    -0.387 OA
ATOM     26  H   LIG    1        1.943  -1.289  -1.236  0.00  0.00    +0.210 HD
ENDBRANCH  24  25
BRANCH  24  27
ATOM     27  C   LIG    1        2.504  -1.760   1.067  0.00  0.00    +0.171 C 
BRANCH  27  28
ATOM     28  O   LIG    1        1.441  -2.624   1.112  0.00  0.00    -0.387 OA
ATOM     29  H   LIG    1        1.400  -3.278   0.390  0.00  0.00    +0.210 HD
ENDBRANCH  27  28
BRANCH  27  30
ATOM     30  C   LIG    1        3.059  -1.710   2.490  0.00  0.00    +0.189 C 
BRANCH  30  31
ATOM     31  O   LIG    1        2.091  -1.306   3.378  0.00  0.00    -0.392 OA
ATOM     32  H   LIG    1        2.454  -0.864   4.187  0.00  0.00    +0.210 HD
ENDBRANCH  30  31
ENDBRANCH  27  30
ENDBRANCH  24  27
ENDBRANCH  21  24
ENDBRANCH  20  21
ENDBRANCH   1  20
TORSDOF 9
