REMARK  Name = molecules/AURFZBICLPNKBZ-SYBPFIFISA-N.pdb
REMARK                            x       y       z     vdW  Elec       q    Type
REMARK                         _______ _______ _______ _____ _____    ______ ____
ROOT
ATOM      1  C   LIG    1       -2.960   0.993  -0.576  0.00  0.00    +0.010 C 
ATOM      2  C   LIG    1       -2.137   0.049   0.246  0.00  0.00    -0.026 C 
ATOM      3  C   LIG    1       -2.562   0.149   1.685  0.00  0.00    +0.012 C 
ATOM      4  C   LIG    1       -0.694   0.296   0.018  0.00  0.00    -0.001 C 
ATOM      5  C   LIG    1        0.170  -0.543   0.971  0.00  0.00    -0.004 C 
ATOM      6  C   LIG    1       -0.461  -1.841   1.323  0.00  0.00    +0.004 C 
ATOM      7  C   LIG    1       -1.479  -2.367   0.401  0.00  0.00    +0.004 C 
ATOM      8  C   LIG    1        1.483  -0.609   0.325  0.00  0.00    -0.001 C 
ATOM      9  C   LIG    1        2.580  -1.367   0.916  0.00  0.00    +0.005 C 
ATOM     10  C   LIG    1        3.816  -0.766   0.231  0.00  0.00    +0.012 C 
ATOM     11  C   LIG    1        3.315   0.453  -0.535  0.00  0.00    +0.061 C 
ATOM     12  C   LIG    1        2.084   0.802   0.263  0.00  0.00    -0.019 C 
ATOM     13  C   LIG    1        2.490   1.323   1.595  0.00  0.00    +0.012 C 
ATOM     14  C   LIG    1        1.184   1.777  -0.416  0.00  0.00    +0.008 C 
ATOM     15  C   LIG    1       -0.232   1.695   0.119  0.00  0.00    +0.005 C 
ATOM     16  C   LIG    1       -2.355  -1.382  -0.273  0.00  0.00    -0.002 C 
ATOM     17  C   LIG    1       -3.815  -1.742  -0.265  0.00  0.00    +0.035 C 
ATOM     18  C   LIG    1       -4.539  -0.761  -1.190  0.00  0.00    +0.115 C 
ATOM     19  C   LIG    1       -4.433   0.597  -0.530  0.00  0.00    +0.032 C 
ENDROOT
BRANCH  11  20
ATOM     20  C   LIG    1        4.336   1.484  -0.569  0.00  0.00    +0.134 C 
ATOM     21  O   LIG    1        4.181   2.537   0.006  0.00  0.00    -0.297 OA
ATOM     22  C   LIG    1        5.594   1.258  -1.315  0.00  0.00    +0.086 C 
ENDBRANCH  11  20
BRANCH  18  23
ATOM     23  O   LIG    1       -3.888  -0.684  -2.412  0.00  0.00    -0.392 OA
ATOM     24  H   LIG    1       -4.146   0.159  -2.853  0.00  0.00    +0.210 HD
ENDBRANCH  18  23
TORSDOF 2
