REMARK  Name = molecules/AURFZBICLPNKBZ-YZRLXODZSA-N.pdb
REMARK                            x       y       z     vdW  Elec       q    Type
REMARK                         _______ _______ _______ _____ _____    ______ ____
ROOT
ATOM      1  C   LIG    1       -2.539   1.773  -0.826  0.00  0.00    +0.012 C 
ATOM      2  C   LIG    1       -2.064   0.337  -0.544  0.00  0.00    -0.026 C 
ATOM      3  C   LIG    1       -2.466   0.091   0.888  0.00  0.00    -0.002 C 
ATOM      4  C   LIG    1       -1.973  -1.195   1.454  0.00  0.00    +0.004 C 
ATOM      5  C   LIG    1       -0.735  -1.686   0.749  0.00  0.00    +0.004 C 
ATOM      6  C   LIG    1        0.091  -0.432   0.460  0.00  0.00    -0.004 C 
ATOM      7  C   LIG    1        1.466  -0.741   0.028  0.00  0.00    -0.001 C 
ATOM      8  C   LIG    1        2.358  -1.446   0.987  0.00  0.00    +0.005 C 
ATOM      9  C   LIG    1        3.762  -1.026   0.517  0.00  0.00    +0.012 C 
ATOM     10  C   LIG    1        3.539   0.023  -0.558  0.00  0.00    +0.061 C 
ATOM     11  C   LIG    1        2.204   0.590  -0.133  0.00  0.00    -0.019 C 
ATOM     12  C   LIG    1        2.374   1.325   1.149  0.00  0.00    +0.012 C 
ATOM     13  C   LIG    1        1.547   1.406  -1.186  0.00  0.00    +0.008 C 
ATOM     14  C   LIG    1        0.074   1.520  -1.108  0.00  0.00    +0.005 C 
ATOM     15  C   LIG    1       -3.949   0.167   1.054  0.00  0.00    +0.035 C 
ATOM     16  C   LIG    1       -4.718  -0.632   0.068  0.00  0.00    +0.115 C 
ATOM     17  C   LIG    1       -3.918  -1.308  -0.987  0.00  0.00    +0.032 C 
ATOM     18  C   LIG    1       -0.596   0.195  -0.768  0.00  0.00    -0.001 C 
ATOM     19  C   LIG    1       -2.782  -0.537  -1.533  0.00  0.00    +0.010 C 
ENDROOT
BRANCH  10  20
ATOM     20  C   LIG    1        4.642   0.972  -0.538  0.00  0.00    +0.134 C 
ATOM     21  O   LIG    1        4.466   2.122  -0.208  0.00  0.00    -0.297 OA
ATOM     22  C   LIG    1        6.006   0.538  -0.926  0.00  0.00    +0.086 C 
ENDBRANCH  10  20
BRANCH  16  23
ATOM     23  O   LIG    1       -5.435  -1.639   0.756  0.00  0.00    -0.392 OA
ATOM     24  H   LIG    1       -5.678  -1.244   1.624  0.00  0.00    +0.210 HD
ENDBRANCH  16  23
TORSDOF 2
