REMARK  Name = molecules/AVAACINZEOAHHE-VFZPANTDSA-N.pdb
REMARK                            x       y       z     vdW  Elec       q    Type
REMARK                         _______ _______ _______ _____ _____    ______ ____
ROOT
ATOM      1  C   LIG    1       -3.907  -0.047   0.954  0.00  0.00    +0.125 C 
ATOM      2  C   LIG    1       -2.585   0.117   0.308  0.00  0.00    +0.104 C 
ATOM      3  C   LIG    1       -1.335  -0.190   0.999  0.00  0.00    +0.046 C 
ATOM      4  C   LIG    1       -1.407  -0.892   2.290  0.00  0.00    +0.015 C 
ATOM      5  C   LIG    1       -0.625  -1.039  -0.063  0.00  0.00    +0.019 C 
ATOM      6  C   LIG    1       -1.571  -1.610  -0.793  0.00  0.00    +0.131 C 
ATOM      7  N   LIG    1       -2.861  -1.196  -0.308  0.00  0.00    -0.260 N 
ATOM      8  C   LIG    1       -4.238  -1.168  -0.002  0.00  0.00    +0.228 C 
ATOM      9  O   LIG    1       -5.276  -1.787  -0.357  0.00  0.00    -0.275 OA
ENDROOT
BRANCH   1  11
ATOM     10  C   LIG    1       -6.150   0.948   1.282  0.00  0.00    +0.038 C 
ATOM     11  C   LIG    1       -4.816   1.121   0.626  0.00  0.00    +0.125 C 
BRANCH  11  12
ATOM     12  O   LIG    1       -4.213   2.341   0.954  0.00  0.00    -0.391 OA
ATOM     13  H   LIG    1       -4.611   3.020   0.369  0.00  0.00    +0.210 HD
ENDBRANCH  11  12
ENDBRANCH   1  11
BRANCH   6  14
ATOM     14  C   LIG    1       -1.441  -2.607  -1.864  0.00  0.00    +0.352 C 
ATOM     15  O   LIG    1       -2.478  -3.022  -2.487  0.00  0.00    -0.244 OA
BRANCH  14  16
ATOM     16  O   LIG    1       -0.264  -3.173  -2.292  0.00  0.00    -0.476 OA
ATOM     17  H   LIG    1        0.411  -3.442  -1.608  0.00  0.00    +0.295 HD
ENDBRANCH  14  16
ENDBRANCH   6  14
BRANCH   5  18
ATOM     18  S   LIG    1        1.138  -1.206  -0.191  0.00  0.00    -0.122 S 
BRANCH  18  19
ATOM     19  C   LIG    1        1.734  -0.751  -1.806  0.00  0.00    +0.066 C 
ATOM     20  C   LIG    1        3.257  -0.942  -1.891  0.00  0.00    +0.095 C 
ATOM     21  N   LIG    1        3.802   0.329  -2.257  0.00  0.00    -0.311 NA
ATOM     22  C   LIG    1        2.942   1.266  -1.548  0.00  0.00    +0.070 C 
ATOM     23  H   LIG    1        3.608   0.473  -3.285  0.00  0.00    +0.122 HD
ATOM     24  C   LIG    1        1.581   0.781  -1.909  0.00  0.00    +0.035 C 
BRANCH  22  25
ATOM     25  C   LIG    1        3.271   1.214  -0.090  0.00  0.00    +0.125 C 
BRANCH  25  26
ATOM     26  N   LIG    1        4.675   1.589   0.051  0.00  0.00    -0.179 NA
ATOM     27  H   LIG    1        4.822   2.579  -0.285  0.00  0.00    +0.149 HD
BRANCH  26  28
ATOM     28  S   LIG    1        5.164   1.562   1.714  0.00  0.00    +0.092 S 
ATOM     29  O   LIG    1        4.061   1.961   2.632  0.00  0.00    -0.142 OA
ATOM     30  O   LIG    1        6.292   2.539   1.883  0.00  0.00    -0.142 OA
BRANCH  28  31
ATOM     31  N   LIG    1        5.769   0.003   2.162  0.00  0.00    -0.193 NA
ATOM     32  H   LIG    1        5.013  -0.676   2.350  0.00  0.00    +0.145 HD
ATOM     33  H   LIG    1        6.437  -0.351   1.444  0.00  0.00    +0.145 HD
ENDBRANCH  28  31
ENDBRANCH  26  28
ENDBRANCH  25  26
ENDBRANCH  22  25
ENDBRANCH  18  19
ENDBRANCH   5  18
TORSDOF 10
