REMARK  Name = molecules/AVOLMBLBETYQHX-UHFFFAOYSA-N.pdb
REMARK                            x       y       z     vdW  Elec       q    Type
REMARK                         _______ _______ _______ _____ _____    ______ ____
ROOT
ATOM      1  C   LIG    1       -0.427   0.360  -1.077  0.00  0.00    +0.042 A 
ATOM      2  C   LIG    1        0.357   1.407  -0.519  0.00  0.00    +0.017 A 
ATOM      3  C   LIG    1        1.580   1.134  -0.015  0.00  0.00    +0.048 A 
ATOM      4  C   LIG    1        2.120  -0.125  -0.013  0.00  0.00    +0.141 A 
ATOM      5  C   LIG    1        1.366  -1.142  -0.552  0.00  0.00    +0.101 A 
ATOM      6 CL   LIG    1        2.050  -2.751  -0.553  0.00  0.00    -0.078 Cl
ATOM      7  C   LIG    1        0.086  -0.904  -1.089  0.00  0.00    +0.074 A 
ATOM      8 CL   LIG    1       -0.770  -2.264  -1.748  0.00  0.00    -0.081 Cl
ENDROOT
BRANCH   1   9
ATOM      9  C   LIG    1       -1.719   0.704  -1.594  0.00  0.00    +0.190 C 
ATOM     10  O   LIG    1       -1.738   1.307  -2.717  0.00  0.00    -0.287 OA
BRANCH   9  11
ATOM     11  C   LIG    1       -2.986   0.418  -0.914  0.00  0.00    -0.007 C 
ATOM     12  C   LIG    1       -4.112   0.817  -1.465  0.00  0.00    +0.016 C 
BRANCH  11  13
ATOM     13  C   LIG    1       -3.027  -0.303   0.377  0.00  0.00    +0.035 C 
ATOM     14  C   LIG    1       -4.429  -0.195   0.983  0.00  0.00    +0.009 C 
ENDBRANCH  11  13
ENDBRANCH   9  11
ENDBRANCH   1   9
BRANCH   4  15
ATOM     15  O   LIG    1        3.398  -0.379   0.509  0.00  0.00    -0.479 OA
BRANCH  15  16
ATOM     16  C   LIG    1        4.086   0.733   1.059  0.00  0.00    +0.349 C 
BRANCH  16  17
ATOM     17  C   LIG    1        5.404   0.372   1.533  0.00  0.00    +0.343 C 
ATOM     18  O   LIG    1        6.117   1.278   2.090  0.00  0.00    -0.247 OA
BRANCH  17  19
ATOM     19  O   LIG    1        5.909  -0.892   1.406  0.00  0.00    -0.478 OA
ATOM     20  H   LIG    1        5.492  -1.530   0.712  0.00  0.00    +0.295 HD
ENDBRANCH  17  19
ENDBRANCH  16  17
ENDBRANCH  15  16
ENDBRANCH   4  15
TORSDOF 7
