REMARK  Name = molecules/AVPQPGFLVZTJOR-RYUDHWBXSA-N.pdb
REMARK                            x       y       z     vdW  Elec       q    Type
REMARK                         _______ _______ _______ _____ _____    ______ ____
ROOT
ATOM      1  C   LIG    1        0.557  -0.184  -0.021  0.00  0.00    +0.165 A 
ATOM      2  C   LIG    1        1.854   0.287   0.006  0.00  0.00    +0.097 A 
ATOM      3  N   LIG    1        2.926  -0.448   0.318  0.00  0.00    -0.340 N 
ATOM      4  C   LIG    1        4.200   0.047   0.323  0.00  0.00    +0.105 A 
ATOM      5  C   LIG    1        4.488   1.351   0.003  0.00  0.00    +0.122 A 
ATOM      6  C   LIG    1        3.416   2.138  -0.327  0.00  0.00    +0.203 A 
ATOM      7  O   LIG    1        3.620   3.336  -0.628  0.00  0.00    -0.286 OA
ATOM      8  C   LIG    1        2.140   1.620  -0.326  0.00  0.00    +0.050 A 
ATOM      9  C   LIG    1        1.056   2.410  -0.675  0.00  0.00    +0.016 A 
ATOM     10  C   LIG    1       -0.221   1.936  -0.702  0.00  0.00    +0.027 A 
ATOM     11  C   LIG    1       -0.514   0.588  -0.367  0.00  0.00    +0.074 A 
ENDROOT
BRANCH  11  12
ATOM     12  N   LIG    1       -1.866   0.210  -0.500  0.00  0.00    -0.325 N 
ATOM     13  C   LIG    1       -2.865   1.262  -0.509  0.00  0.00    +0.108 C 
ATOM     14  C   LIG    1       -4.243   0.868  -0.101  0.00  0.00    +0.005 C 
ATOM     15  C   LIG    1       -4.640  -0.532  -0.592  0.00  0.00    +0.024 C 
ATOM     16  C   LIG    1       -3.572  -1.421   0.081  0.00  0.00    +0.068 C 
ATOM     17  C   LIG    1       -5.223   1.825  -0.765  0.00  0.00    +0.009 C 
ATOM     18  C   LIG    1       -2.301  -1.125  -0.691  0.00  0.00    +0.123 C 
BRANCH  16  19
ATOM     19  N   LIG    1       -3.550  -0.952   1.447  0.00  0.00    -0.326 NA
ATOM     20  H   LIG    1       -3.508  -1.737   2.135  0.00  0.00    +0.119 HD
ATOM     21  H   LIG    1       -2.801  -0.249   1.558  0.00  0.00    +0.119 HD
ENDBRANCH  16  19
ENDBRANCH  11  12
BRANCH   3  22
ATOM     22  C   LIG    1        2.796  -1.852   0.639  0.00  0.00    +0.088 C 
ATOM     23  C   LIG    1        3.966  -2.672   0.015  0.00  0.00    +0.027 C 
ATOM     24  C   LIG    1        2.570  -2.905  -0.344  0.00  0.00    +0.027 C 
ENDBRANCH   3  22
BRANCH   1  25
ATOM     25  O   LIG    1        0.342  -1.492   0.328  0.00  0.00    -0.491 OA
ATOM     26  C   LIG    1        0.057  -1.917   1.651  0.00  0.00    +0.277 C 
ENDBRANCH   1  25
BRANCH   5  27
ATOM     27  C   LIG    1        5.862   1.870   0.013  0.00  0.00    +0.342 C 
ATOM     28  O   LIG    1        6.773   1.066   0.330  0.00  0.00    -0.245 OA
BRANCH  27  29
ATOM     29  O   LIG    1        6.083   3.196  -0.320  0.00  0.00    -0.477 OA
ATOM     30  H   LIG    1        5.753   3.916   0.304  0.00  0.00    +0.295 HD
ENDBRANCH  27  29
ENDBRANCH   5  27
TORSDOF 6
