REMARK  Name = molecules/AXJXURWWUFZZKN-NSHDSACASA-N.pdb
REMARK                            x       y       z     vdW  Elec       q    Type
REMARK                         _______ _______ _______ _____ _____    ______ ____
ROOT
ATOM      1  C   LIG    1       -0.254  -0.235  -0.030  0.00  0.00    +0.129 C 
ATOM      2  C   LIG    1        0.923  -0.815   0.678  0.00  0.00    +0.238 C 
ATOM      3  O   LIG    1        0.726  -1.389   1.769  0.00  0.00    -0.274 OA
ATOM      4  N   LIG    1        2.247  -0.751   0.181  0.00  0.00    -0.228 N 
ATOM      5  C   LIG    1        3.384  -0.879   1.074  0.00  0.00    +0.143 C 
ATOM      6  C   LIG    1        2.417  -0.556  -1.220  0.00  0.00    +0.315 C 
ATOM      7  O   LIG    1        3.604  -0.500  -1.651  0.00  0.00    -0.252 OA
ATOM      8  N   LIG    1        1.277  -0.438  -2.039  0.00  0.00    -0.239 N 
ATOM      9  H   LIG    1        1.434  -0.295  -3.073  0.00  0.00    +0.159 HD
ATOM     10  C   LIG    1       -0.028  -0.511  -1.488  0.00  0.00    +0.236 C 
ATOM     11  O   LIG    1       -0.971  -0.814  -2.264  0.00  0.00    -0.274 OA
ENDROOT
BRANCH   1  12
ATOM     12  C   LIG    1       -0.161   1.238   0.141  0.00  0.00    +0.007 C 
ATOM     13  C   LIG    1        0.043   1.657   1.586  0.00  0.00    +0.009 C 
ATOM     14  C   LIG    1       -1.228   2.052  -0.532  0.00  0.00    +0.009 C 
ENDBRANCH   1  12
BRANCH   1  15
ATOM     15  C   LIG    1       -1.467  -0.920   0.472  0.00  0.00    +0.052 C 
BRANCH  15  16
ATOM     16  C   LIG    1       -2.760  -0.551  -0.070  0.00  0.00    -0.033 C 
ATOM     17  C   LIG    1       -3.500  -1.435  -0.726  0.00  0.00    +0.004 C 
ENDBRANCH  15  16
ENDBRANCH   1  15
TORSDOF 3
