REMARK  Name = molecules/AXMZZGKKZDJGAZ-UHFFFAOYSA-N.pdb
REMARK                            x       y       z     vdW  Elec       q    Type
REMARK                         _______ _______ _______ _____ _____    ______ ____
ROOT
ATOM      1  C   LIG    1       -0.448   2.575  -0.967  0.00  0.00    +0.144 C 
ATOM      2  C   LIG    1       -0.131   1.191  -0.560  0.00  0.00    -0.010 C 
ATOM      3  C   LIG    1       -1.193   0.542  -0.179  0.00  0.00    +0.049 C 
ATOM      4  C   LIG    1       -2.330   1.468  -0.301  0.00  0.00    +0.248 C 
ATOM      5  O   LIG    1       -3.526   1.141  -0.006  0.00  0.00    -0.270 OA
ATOM      6  N   LIG    1       -1.853   2.706  -0.779  0.00  0.00    -0.293 N 
ENDROOT
BRANCH   3   7
ATOM      7  C   LIG    1       -1.345  -0.861   0.271  0.00  0.00    -0.013 A 
ATOM      8  C   LIG    1       -2.120  -1.183   1.366  0.00  0.00    +0.009 A 
ATOM      9  C   LIG    1       -2.276  -2.478   1.815  0.00  0.00    +0.004 A 
ATOM     10  C   LIG    1       -1.649  -3.527   1.174  0.00  0.00    -0.050 A 
ATOM     11  C   LIG    1       -1.809  -4.938   1.643  0.00  0.00    +0.044 C 
ATOM     12  C   LIG    1       -0.874  -3.215   0.080  0.00  0.00    +0.004 A 
ATOM     13  C   LIG    1       -0.724  -1.920  -0.362  0.00  0.00    +0.009 A 
ENDBRANCH   3   7
BRANCH   2  14
ATOM     14  C   LIG    1        1.209   0.561  -0.535  0.00  0.00    -0.020 A 
ATOM     15  C   LIG    1        1.592  -0.213   0.523  0.00  0.00    +0.010 A 
ATOM     16  C   LIG    1        2.832  -0.850   0.612  0.00  0.00    +0.027 A 
ATOM     17  C   LIG    1        3.693  -0.654  -0.460  0.00  0.00    +0.088 A 
ATOM     18  C   LIG    1        3.300   0.131  -1.526  0.00  0.00    +0.027 A 
ATOM     19  C   LIG    1        2.062   0.748  -1.586  0.00  0.00    +0.010 A 
BRANCH  17  20
ATOM     20  S   LIG    1        5.276  -1.392  -0.493  0.00  0.00    -0.006 S 
ATOM     21  O   LIG    1        5.822  -1.535   0.910  0.00  0.00    -0.170 OA
ATOM     22  O   LIG    1        6.179  -0.454  -1.262  0.00  0.00    -0.170 OA
ATOM     23  C   LIG    1        5.137  -2.973  -1.309  0.00  0.00    +0.200 C 
ENDBRANCH  17  20
ENDBRANCH   2  14
BRANCH   6  24
ATOM     24  C   LIG    1       -2.664   3.873  -1.019  0.00  0.00    +0.108 C 
BRANCH  24  25
ATOM     25  C   LIG    1       -2.754   4.789   0.153  0.00  0.00    +0.016 C 
ATOM     26  C   LIG    1       -3.338   4.210   1.396  0.00  0.00    +0.005 C 
ENDBRANCH  24  25
ENDBRANCH   6  24
TORSDOF 5
