REMARK  Name = molecules/AXNKGLDCLYLVLQ-UHFFFAOYSA-N.pdb
REMARK                            x       y       z     vdW  Elec       q    Type
REMARK                         _______ _______ _______ _____ _____    ______ ____
ROOT
ATOM      1  C   LIG    1        0.525  -1.287   0.060  0.00  0.00    +0.163 A 
ATOM      2  C   LIG    1        0.863  -0.055   0.558  0.00  0.00    +0.050 A 
ATOM      3  C   LIG    1        2.196   0.371   0.623  0.00  0.00    +0.008 A 
ATOM      4  C   LIG    1        3.201  -0.462   0.177  0.00  0.00    -0.040 A 
ATOM      5  C   LIG    1        2.848  -1.705  -0.324  0.00  0.00    +0.053 A 
ATOM      6  C   LIG    1        1.530  -2.121  -0.386  0.00  0.00    +0.162 A 
ENDROOT
BRANCH   6   7
ATOM      7  O   LIG    1        1.274  -3.379  -0.902  0.00  0.00    -0.491 OA
ATOM      8  C   LIG    1        2.233  -4.267  -1.367  0.00  0.00    +0.277 C 
ENDBRANCH   6   7
BRANCH   1   9
ATOM      9  O   LIG    1       -0.763  -1.708  -0.007  0.00  0.00    -0.479 OA
BRANCH   9  10
ATOM     10  C   LIG    1       -1.942  -1.097   0.350  0.00  0.00    +0.324 C 
BRANCH  10  11
ATOM     11  C   LIG    1       -2.285   0.155  -0.332  0.00  0.00    +0.253 C 
ATOM     12  N   LIG    1       -3.478   0.818   0.030  0.00  0.00    -0.299 N 
ATOM     13  O   LIG    1       -1.567   0.667  -1.227  0.00  0.00    -0.272 OA
BRANCH  12  14
ATOM     14  C   LIG    1       -4.337   0.279   1.046  0.00  0.00    +0.104 C 
ATOM     15  C   LIG    1       -3.999   0.773   2.428  0.00  0.00    +0.024 C 
ENDBRANCH  12  14
BRANCH  12  16
ATOM     16  C   LIG    1       -3.847   2.055  -0.622  0.00  0.00    +0.104 C 
ATOM     17  C   LIG    1       -3.284   3.246   0.110  0.00  0.00    +0.024 C 
ENDBRANCH  12  16
ENDBRANCH  10  11
ENDBRANCH   9  10
ENDBRANCH   1   9
BRANCH   4  18
ATOM     18  C   LIG    1        4.645  -0.037   0.232  0.00  0.00    +0.061 C 
BRANCH  18  19
ATOM     19  C   LIG    1        4.984   0.642  -1.026  0.00  0.00    -0.030 C 
ATOM     20  C   LIG    1        5.399   1.898  -0.998  0.00  0.00    +0.004 C 
ENDBRANCH  18  19
ENDBRANCH   4  18
TORSDOF 8
