REMARK  Name = molecules/AXOIZCJOOAYSMI-UHFFFAOYSA-N.pdb
REMARK                            x       y       z     vdW  Elec       q    Type
REMARK                         _______ _______ _______ _____ _____    ______ ____
ROOT
ATOM      1  C   LIG    1       -0.237   0.205   0.230  0.00  0.00    +0.132 C 
ENDROOT
BRANCH   1   2
ATOM      2  C   LIG    1       -1.694   0.168  -0.057  0.00  0.00    +0.308 C 
ATOM      3  O   LIG    1       -2.064  -0.542  -1.028  0.00  0.00    -0.251 OA
BRANCH   2   4
ATOM      4  O   LIG    1       -2.642   0.845   0.656  0.00  0.00    -0.466 OA
BRANCH   4   5
ATOM      5  C   LIG    1       -4.032   0.835   0.416  0.00  0.00    +0.214 C 
BRANCH   5   6
ATOM      6  C   LIG    1       -4.609  -0.561   0.536  0.00  0.00    -0.035 C 
BRANCH   6   7
ATOM      7  N   LIG    1       -6.034  -0.553   0.289  0.00  0.00    +0.377 N 
ATOM      8  C   LIG    1       -6.766  -0.249   1.502  0.00  0.00    -0.093 C 
ATOM      9  C   LIG    1       -6.398  -1.917  -0.102  0.00  0.00    -0.093 C 
ATOM     10  C   LIG    1       -6.371   0.341  -0.786  0.00  0.00    -0.093 C 
ENDBRANCH   6   7
ENDBRANCH   5   6
ENDBRANCH   4   5
ENDBRANCH   2   4
ENDBRANCH   1   2
BRANCH   1  11
ATOM     11  C   LIG    1        0.378   1.200  -0.760  0.00  0.00    +0.132 C 
BRANCH  11  12
ATOM     12  C   LIG    1        1.860   1.244  -0.476  0.00  0.00    +0.308 C 
ATOM     13  O   LIG    1        2.616   1.990  -1.150  0.00  0.00    -0.251 OA
BRANCH  12  14
ATOM     14  O   LIG    1        2.424   0.475   0.519  0.00  0.00    -0.466 OA
BRANCH  14  15
ATOM     15  C   LIG    1        3.784   0.436   0.865  0.00  0.00    +0.214 C 
BRANCH  15  16
ATOM     16  C   LIG    1        4.600  -0.046  -0.278  0.00  0.00    -0.035 C 
BRANCH  16  17
ATOM     17  N   LIG    1        6.017  -0.114   0.011  0.00  0.00    +0.377 N 
ATOM     18  C   LIG    1        6.460   0.892   0.925  0.00  0.00    -0.093 C 
ATOM     19  C   LIG    1        6.309  -1.445   0.469  0.00  0.00    -0.093 C 
ATOM     20  C   LIG    1        6.705   0.071  -1.265  0.00  0.00    -0.093 C 
ENDBRANCH  16  17
ENDBRANCH  15  16
ENDBRANCH  14  15
ENDBRANCH  12  14
ENDBRANCH  11  12
ENDBRANCH   1  11
TORSDOF 11
