REMARK  Name = molecules/AXRYRYVKAWYZBR-GASGPIRDSA-N.pdb
REMARK                            x       y       z     vdW  Elec       q    Type
REMARK                         _______ _______ _______ _____ _____    ______ ____
ROOT
ATOM      1  N   LIG    1       -1.311  -0.423  -0.055  0.00  0.00    -0.220 NA
ENDROOT
BRANCH   1   2
ATOM      2  N   LIG    1       -1.463  -1.618  -0.005  0.00  0.00    -0.246 N 
ATOM      3  H   LIG    1       -0.271  -1.831   0.642  0.00  0.00    +0.169 HD
ATOM      4  C   LIG    1       -1.635  -3.078   0.066  0.00  0.00    +0.248 C 
ATOM      5  O   LIG    1       -0.964  -3.817   0.653  0.00  0.00    -0.272 OA
BRANCH   4   6
ATOM      6  C   LIG    1       -2.847  -3.449  -0.737  0.00  0.00    +0.169 C 
BRANCH   6   7
ATOM      7  C   LIG    1       -3.860  -4.076   0.275  0.00  0.00    -0.011 C 
ATOM      8  C   LIG    1       -3.541  -3.253   1.623  0.00  0.00    +0.013 C 
ATOM      9  C   LIG    1       -3.403  -5.438   0.690  0.00  0.00    +0.013 C 
ATOM     10  C   LIG    1       -5.277  -3.789   0.059  0.00  0.00    +0.013 C 
ENDBRANCH   6   7
BRANCH   6  11
ATOM     11  N   LIG    1       -2.495  -4.594  -1.620  0.00  0.00    -0.269 N 
ATOM     12  H   LIG    1       -1.553  -5.004  -1.530  0.00  0.00    +0.153 HD
ATOM     13  C   LIG    1       -3.435  -4.963  -2.547  0.00  0.00    +0.401 C 
ATOM     14  O   LIG    1       -4.481  -4.122  -2.502  0.00  0.00    -0.226 OA
BRANCH  13  15
ATOM     15  O   LIG    1       -3.670  -5.892  -3.496  0.00  0.00    -0.454 OA
ATOM     16  C   LIG    1       -4.906  -5.891  -4.257  0.00  0.00    +0.282 C 
ENDBRANCH  13  15
ENDBRANCH   6  11
ENDBRANCH   4   6
ENDBRANCH   1   2
BRANCH   1  17
ATOM     17  C   LIG    1       -0.406   0.134  -1.091  0.00  0.00    +0.139 C 
BRANCH  17  18
ATOM     18  C   LIG    1        0.396   1.277  -0.511  0.00  0.00    +0.151 C 
BRANCH  18  19
ATOM     19  O   LIG    1        1.197   1.947  -1.414  0.00  0.00    -0.389 OA
ATOM     20  H   LIG    1        0.606   2.196  -2.165  0.00  0.00    +0.210 HD
ENDBRANCH  18  19
BRANCH  18  21
ATOM     21  C   LIG    1        1.149   0.752   0.674  0.00  0.00    +0.107 C 
BRANCH  21  22
ATOM     22  N   LIG    1        2.284  -0.109   0.139  0.00  0.00    -0.308 N 
ATOM     23  H   LIG    1        2.100  -1.111   0.116  0.00  0.00    +0.149 HD
ATOM     24  C   LIG    1        3.453   0.486  -0.310  0.00  0.00    +0.234 C 
ATOM     25  O   LIG    1        3.407   1.786  -0.349  0.00  0.00    -0.274 OA
BRANCH  24  26
ATOM     26  C   LIG    1        4.751   0.037  -0.733  0.00  0.00    +0.167 C 
BRANCH  26  27
ATOM     27  N   LIG    1        5.383   0.883  -1.724  0.00  0.00    -0.269 N 
ATOM     28  H   LIG    1        5.509   1.894  -1.583  0.00  0.00    +0.153 HD
ATOM     29  C   LIG    1        5.938   0.262  -2.901  0.00  0.00    +0.401 C 
ATOM     30  O   LIG    1        5.745  -1.052  -2.933  0.00  0.00    -0.226 OA
BRANCH  29  31
ATOM     31  O   LIG    1        6.626   0.745  -3.930  0.00  0.00    -0.454 OA
ATOM     32  C   LIG    1        7.148  -0.151  -4.973  0.00  0.00    +0.282 C 
ENDBRANCH  29  31
ENDBRANCH  26  27
BRANCH  26  33
ATOM     33  C   LIG    1        5.708  -0.198   0.430  0.00  0.00    -0.011 C 
ATOM     34  C   LIG    1        5.797   0.961   1.374  0.00  0.00    +0.013 C 
ATOM     35  C   LIG    1        5.683  -1.568   0.976  0.00  0.00    +0.013 C 
ATOM     36  C   LIG    1        7.134  -0.102  -0.276  0.00  0.00    +0.013 C 
ENDBRANCH  26  33
ENDBRANCH  24  26
ENDBRANCH  21  22
BRANCH  21  37
ATOM     37  C   LIG    1        1.725   1.757   1.600  0.00  0.00    +0.060 C 
BRANCH  37  38
ATOM     38  C   LIG    1        2.203   1.041   2.867  0.00  0.00    -0.046 A 
ATOM     39  C   LIG    1        1.724   1.606   4.040  0.00  0.00    +0.004 A 
ATOM     40  C   LIG    1        2.140   1.118   5.280  0.00  0.00    +0.000 A 
ATOM     41  C   LIG    1        3.031   0.064   5.296  0.00  0.00    +0.000 A 
ATOM     42  C   LIG    1        3.499  -0.489   4.168  0.00  0.00    +0.000 A 
ATOM     43  C   LIG    1        3.063   0.026   2.913  0.00  0.00    +0.004 A 
ENDBRANCH  37  38
ENDBRANCH  21  37
ENDBRANCH  18  21
ENDBRANCH  17  18
ENDBRANCH   1  17
BRANCH   1  44
ATOM     44  C   LIG    1       -2.535   0.319   0.020  0.00  0.00    +0.140 C 
BRANCH  44  45
ATOM     45  C   LIG    1       -2.798   1.680   0.133  0.00  0.00    -0.032 A 
ATOM     46  C   LIG    1       -3.253   2.258   1.347  0.00  0.00    +0.005 A 
ATOM     47  C   LIG    1       -3.720   3.560   1.308  0.00  0.00    +0.010 A 
ATOM     48  C   LIG    1       -3.775   4.329   0.174  0.00  0.00    +0.000 A 
ATOM     49  C   LIG    1       -3.320   3.748  -1.009  0.00  0.00    +0.010 A 
ATOM     50  C   LIG    1       -2.850   2.472  -0.986  0.00  0.00    +0.005 A 
BRANCH  48  51
ATOM     51  C   LIG    1       -4.447   5.603   0.111  0.00  0.00    +0.071 A 
ATOM     52  N   LIG    1       -4.823   6.324   1.265  0.00  0.00    -0.255 NA
ATOM     53  C   LIG    1       -5.507   7.422   1.077  0.00  0.00    +0.111 A 
ATOM     54  C   LIG    1       -5.935   8.010  -0.032  0.00  0.00    +0.020 A 
ATOM     55  C   LIG    1       -5.566   7.281  -1.309  0.00  0.00    +0.004 A 
ATOM     56  C   LIG    1       -4.878   6.193  -0.991  0.00  0.00    +0.028 A 
ENDBRANCH  48  51
ENDBRANCH  44  45
ENDBRANCH   1  44
TORSDOF 19
