REMARK  Name = molecules/BAINIUMDFURPJM-UHFFFAOYSA-N.pdb
REMARK                            x       y       z     vdW  Elec       q    Type
REMARK                         _______ _______ _______ _____ _____    ______ ____
ROOT
ATOM      1  N   LIG    1       -1.776   0.015   0.947  0.00  0.00    -0.289 NA
ATOM      2  C   LIG    1       -0.751   0.851   1.436  0.00  0.00    +0.100 C 
ATOM      3  C   LIG    1        0.535   0.795   0.654  0.00  0.00    +0.100 C 
ATOM      4  N   LIG    1        0.830  -0.491   0.134  0.00  0.00    -0.300 NA
ATOM      5  C   LIG    1       -0.252  -1.156  -0.501  0.00  0.00    +0.100 C 
ATOM      6  C   LIG    1       -1.468  -1.230   0.409  0.00  0.00    +0.100 C 
ENDROOT
BRANCH   1   7
ATOM      7  C   LIG    1       -3.100   0.525   0.929  0.00  0.00    +0.117 C 
BRANCH   7   8
ATOM      8  C   LIG    1       -4.039  -0.210   1.798  0.00  0.00    -0.026 A 
ATOM      9  C   LIG    1       -3.599  -0.859   2.926  0.00  0.00    +0.005 A 
ATOM     10  C   LIG    1       -4.442  -1.564   3.739  0.00  0.00    +0.000 A 
ATOM     11  C   LIG    1       -5.787  -1.644   3.441  0.00  0.00    +0.000 A 
ATOM     12  C   LIG    1       -6.248  -1.004   2.321  0.00  0.00    +0.000 A 
ATOM     13  C   LIG    1       -5.377  -0.300   1.518  0.00  0.00    +0.005 A 
ENDBRANCH   7   8
BRANCH   7  14
ATOM     14  C   LIG    1       -3.634   0.716  -0.440  0.00  0.00    -0.026 A 
ATOM     15  C   LIG    1       -4.287  -0.292  -1.083  0.00  0.00    +0.005 A 
ATOM     16  C   LIG    1       -4.780  -0.112  -2.380  0.00  0.00    +0.000 A 
ATOM     17  C   LIG    1       -4.606   1.093  -3.012  0.00  0.00    +0.000 A 
ATOM     18  C   LIG    1       -3.955   2.112  -2.384  0.00  0.00    +0.000 A 
ATOM     19  C   LIG    1       -3.477   1.912  -1.106  0.00  0.00    +0.005 A 
ENDBRANCH   7  14
ENDBRANCH   1   7
BRANCH   4  20
ATOM     20  C   LIG    1        2.115  -0.630  -0.462  0.00  0.00    +0.086 C 
BRANCH  20  21
ATOM     21  C   LIG    1        2.184   0.071  -1.798  0.00  0.00    +0.037 C 
BRANCH  21  22
ATOM     22  C   LIG    1        3.523  -0.038  -2.443  0.00  0.00    +0.128 C 
BRANCH  22  23
ATOM     23  N   LIG    1        4.595   0.532  -1.667  0.00  0.00    -0.292 N 
ATOM     24  C   LIG    1        5.341  -0.152  -0.793  0.00  0.00    +0.070 A 
ATOM     25  C   LIG    1        6.262   0.691  -0.210  0.00  0.00    +0.067 A 
ATOM     26  C   LIG    1        7.186   0.276   0.743  0.00  0.00    +0.028 A 
ATOM     27  C   LIG    1        7.207  -1.037   1.144  0.00  0.00    +0.002 A 
ATOM     28  C   LIG    1        6.311  -1.894   0.587  0.00  0.00    +0.002 A 
ATOM     29  N   LIG    1        6.052   1.904  -0.757  0.00  0.00    -0.306 N 
ATOM     30  H   LIG    1        6.614   2.748  -0.499  0.00  0.00    +0.170 HD
ATOM     31  C   LIG    1        5.390  -1.482  -0.362  0.00  0.00    +0.028 A 
ATOM     32  C   LIG    1        5.045   1.799  -1.635  0.00  0.00    +0.328 A 
ATOM     33  O   LIG    1        4.580   2.724  -2.327  0.00  0.00    -0.247 OA
ENDBRANCH  22  23
ENDBRANCH  21  22
ENDBRANCH  20  21
ENDBRANCH   4  20
TORSDOF 7
