REMARK  Name = molecules/BAQKJENAVQLANS-STZQEDGTSA-N.pdb
REMARK                            x       y       z     vdW  Elec       q    Type
REMARK                         _______ _______ _______ _____ _____    ______ ____
ROOT
ATOM      1  C   LIG    1        0.304  -1.420  -1.806  0.00  0.00    +0.126 C 
ENDROOT
BRANCH   1   8
ATOM      2  C   LIG    1        2.884  -0.028  -2.102  0.00  0.00    +0.027 C 
ATOM      3  C   LIG    1        2.094  -0.098  -0.810  0.00  0.00    +0.087 C 
ATOM      4  C   LIG    1        3.130  -0.326   0.286  0.00  0.00    +0.165 C 
ATOM      5  O   LIG    1        3.785  -1.543   0.091  0.00  0.00    -0.369 OA
ATOM      6  C   LIG    1        2.929  -2.625   0.224  0.00  0.00    +0.176 C 
ATOM      7  C   LIG    1        1.484  -2.299   0.029  0.00  0.00    +0.113 C 
ATOM      8  N   LIG    1        1.182  -1.168  -0.756  0.00  0.00    -0.292 NA
BRANCH   4   9
ATOM      9  C   LIG    1        4.163   0.732   0.321  0.00  0.00    -0.017 A 
ATOM     10  C   LIG    1        5.337   0.498   1.040  0.00  0.00    +0.006 A 
ATOM     11  C   LIG    1        6.343   1.434   1.118  0.00  0.00    +0.000 A 
ATOM     12  C   LIG    1        6.229   2.648   0.482  0.00  0.00    +0.000 A 
ATOM     13  C   LIG    1        5.083   2.901  -0.231  0.00  0.00    +0.000 A 
ATOM     14  C   LIG    1        4.064   1.952  -0.309  0.00  0.00    +0.006 A 
ENDBRANCH   4   9
ENDBRANCH   1   8
BRANCH   1  15
ATOM     15  C   LIG    1       -0.854  -0.525  -2.056  0.00  0.00    +0.247 C 
BRANCH  15  16
ATOM     16  O   LIG    1       -1.824  -0.460  -1.071  0.00  0.00    -0.463 OA
BRANCH  16  17
ATOM     17  C   LIG    1       -1.772  -0.074   0.226  0.00  0.00    +0.315 C 
ATOM     18  O   LIG    1       -0.681   0.311   0.687  0.00  0.00    -0.250 OA
BRANCH  17  19
ATOM     19  C   LIG    1       -2.988  -0.096   1.122  0.00  0.00    +0.127 C 
BRANCH  19  20
ATOM     20  C   LIG    1       -4.072   0.724   0.580  0.00  0.00    -0.034 A 
ATOM     21  C   LIG    1       -4.537   1.829   1.256  0.00  0.00    +0.004 A 
ATOM     22  C   LIG    1       -5.565   2.613   0.750  0.00  0.00    +0.000 A 
ATOM     23  C   LIG    1       -6.157   2.307  -0.456  0.00  0.00    +0.000 A 
ATOM     24  C   LIG    1       -5.700   1.203  -1.141  0.00  0.00    +0.000 A 
ATOM     25  C   LIG    1       -4.680   0.435  -0.628  0.00  0.00    +0.004 A 
ENDBRANCH  19  20
BRANCH  19  26
ATOM     26  C   LIG    1       -3.368  -1.538   1.369  0.00  0.00    +0.016 C 
ATOM     27  C   LIG    1       -4.576  -1.635   2.254  0.00  0.00    +0.005 C 
ENDBRANCH  19  26
ENDBRANCH  17  19
ENDBRANCH  16  17
ENDBRANCH  15  16
ENDBRANCH   1  15
TORSDOF 8
