REMARK  Name = molecules/BAWFJGJZGIEFAR-NNYOXOHSSA-N.pdb
REMARK                            x       y       z     vdW  Elec       q    Type
REMARK                         _______ _______ _______ _____ _____    ______ ____
ROOT
ATOM      1  P   LIG    1        1.177  -2.532  -0.162  0.00  0.00    +0.480 P 
ATOM      2  O   LIG    1        1.344  -3.199  -1.515  0.00  0.00    -0.227 OA
ENDROOT
BRANCH   1   3
ATOM      3  O   LIG    1        1.756  -3.597   1.000  0.00  0.00    -0.302 OA
ATOM      4  H   LIG    1        0.996  -4.169   1.280  0.00  0.00    +0.222 HD
ENDBRANCH   1   3
BRANCH   1   5
ATOM      5  O   LIG    1       -0.485  -2.278   0.056  0.00  0.00    -0.229 OA
BRANCH   5   6
ATOM      6  P   LIG    1       -0.890  -0.666  -0.294  0.00  0.00    +0.222 P 
ATOM      7  O   LIG    1        0.239   0.198   0.253  0.00  0.00    -0.437 OA
ATOM      8  O   LIG    1       -0.969  -0.449  -1.957  0.00  0.00    -0.517 OA
BRANCH   6   9
ATOM      9  O   LIG    1       -2.367  -0.242   0.393  0.00  0.00    -0.324 OA
BRANCH   9  10
ATOM     10  C   LIG    1       -3.110  -1.391   0.555  0.00  0.00    +0.202 C 
BRANCH  10  11
ATOM     11  C   LIG    1       -4.471  -1.138   1.170  0.00  0.00    +0.178 C 
ATOM     12  C   LIG    1       -5.187  -2.475   1.213  0.00  0.00    +0.178 C 
ATOM     13  C   LIG    1       -6.587  -2.090   0.779  0.00  0.00    +0.193 C 
ATOM     14  C   LIG    1       -6.544  -0.588   0.845  0.00  0.00    +0.241 C 
ATOM     15  O   LIG    1       -5.248  -0.294   0.412  0.00  0.00    -0.348 OA
BRANCH  14  16
ATOM     16  N   LIG    1       -7.546   0.009   0.003  0.00  0.00    -0.285 N 
ATOM     17  C   LIG    1       -8.680  -0.622  -0.346  0.00  0.00    +0.074 C 
ATOM     18  C   LIG    1       -9.639  -0.029  -1.161  0.00  0.00    -0.002 C 
ATOM     19  C   LIG    1       -9.419   1.244  -1.625  0.00  0.00    +0.061 C 
ATOM     20  C   LIG    1       -8.248   1.906  -1.270  0.00  0.00    +0.036 C 
ATOM     21  C   LIG    1       -7.347   1.250  -0.458  0.00  0.00    +0.086 C 
BRANCH  20  22
ATOM     22  C   LIG    1       -7.981   3.255  -1.742  0.00  0.00    +0.239 C 
ATOM     23  N   LIG    1       -6.789   3.907  -1.369  0.00  0.00    -0.326 N 
ATOM     24  H   LIG    1       -6.777   4.570  -0.584  0.00  0.00    +0.145 HD
ATOM     25  H   LIG    1       -5.915   3.715  -1.892  0.00  0.00    +0.145 HD
ATOM     26  O   LIG    1       -8.799   3.848  -2.478  0.00  0.00    -0.271 OA
ENDBRANCH  20  22
ENDBRANCH  14  16
BRANCH  13  27
ATOM     27  O   LIG    1       -7.546  -2.641   1.625  0.00  0.00    -0.385 OA
ATOM     28  H   LIG    1       -7.767  -2.002   2.346  0.00  0.00    +0.210 HD
ENDBRANCH  13  27
BRANCH  12  29
ATOM     29  O   LIG    1       -5.163  -2.979   2.511  0.00  0.00    -0.386 OA
ATOM     30  H   LIG    1       -5.204  -2.212   3.145  0.00  0.00    +0.210 HD
ENDBRANCH  12  29
ENDBRANCH  10  11
ENDBRANCH   9  10
ENDBRANCH   6   9
ENDBRANCH   5   6
ENDBRANCH   1   5
BRANCH   1  31
ATOM     31  O   LIG    1        2.031  -1.083  -0.184  0.00  0.00    -0.284 OA
BRANCH  31  32
ATOM     32  C   LIG    1        3.345  -1.231   0.256  0.00  0.00    +0.206 C 
BRANCH  32  36
ATOM     33  C   LIG    1        5.172   1.669  -1.083  0.00  0.00    +0.195 C 
ATOM     34  C   LIG    1        5.950   1.202   0.105  0.00  0.00    +0.253 C 
ATOM     35  O   LIG    1        5.331   0.077   0.616  0.00  0.00    -0.346 OA
ATOM     36  C   LIG    1        4.006   0.107   0.196  0.00  0.00    +0.178 C 
ATOM     37  C   LIG    1        4.159   0.544  -1.249  0.00  0.00    +0.178 C 
BRANCH  34  38
ATOM     38  N   LIG    1        7.304   0.879  -0.302  0.00  0.00    -0.286 N 
ATOM     39  C   LIG    1        8.425   1.125   0.387  0.00  0.00    +0.167 A 
ATOM     40  N   LIG    1        8.638   1.707   1.592  0.00  0.00    -0.216 NA
ATOM     41  C   LIG    1        9.887   1.836   2.070  0.00  0.00    +0.225 A 
ATOM     42  N   LIG    1       10.955   1.398   1.380  0.00  0.00    -0.219 NA
ATOM     43  C   LIG    1       10.811   0.804   0.163  0.00  0.00    +0.147 A 
ATOM     44  C   LIG    1        9.529   0.675  -0.321  0.00  0.00    +0.147 A 
ATOM     45  N   LIG    1        9.038   0.151  -1.457  0.00  0.00    -0.231 NA
ATOM     46  C   LIG    1        7.686   0.281  -1.436  0.00  0.00    +0.203 A 
BRANCH  43  47
ATOM     47  N   LIG    1       11.944   0.345  -0.557  0.00  0.00    -0.341 N 
ATOM     48  H   LIG    1       12.805   0.925  -0.541  0.00  0.00    +0.144 HD
ATOM     49  H   LIG    1       11.914  -0.531  -1.077  0.00  0.00    +0.144 HD
ENDBRANCH  43  47
ENDBRANCH  34  38
BRANCH  37  50
ATOM     50  O   LIG    1        2.962   1.018  -1.774  0.00  0.00    -0.386 OA
ATOM     51  H   LIG    1        2.448   0.258  -2.145  0.00  0.00    +0.210 HD
ENDBRANCH  37  50
BRANCH  33  52
ATOM     52  O   LIG    1        4.453   2.810  -0.767  0.00  0.00    -0.385 OA
ATOM     53  H   LIG    1        4.406   2.980   0.209  0.00  0.00    +0.210 HD
ENDBRANCH  33  52
ENDBRANCH  32  36
ENDBRANCH  31  32
ENDBRANCH   1  31
TORSDOF 17
