REMARK  Name = molecules/BBDAGFIXKZCXAH-SNKVODELSA-N.pdb
REMARK                            x       y       z     vdW  Elec       q    Type
REMARK                         _______ _______ _______ _____ _____    ______ ____
ROOT
ATOM      1  C   LIG    1       -1.553   0.661  -0.415  0.00  0.00    +0.179 C 
ATOM      2  C   LIG    1       -1.983  -0.201   0.782  0.00  0.00    +0.177 C 
ATOM      3  O   LIG    1       -0.739  -0.664   1.202  0.00  0.00    -0.348 OA
ATOM      4  C   LIG    1        0.132   0.392   1.192  0.00  0.00    +0.244 C 
ATOM      5  N   LIG    1        1.386   0.102   0.529  0.00  0.00    -0.233 N 
ATOM      6  C   LIG    1        2.293  -0.855   0.788  0.00  0.00    +0.087 C 
ATOM      7  C   LIG    1        3.453  -0.958   0.013  0.00  0.00    +0.117 C 
ATOM      8  C   LIG    1        3.639  -0.065  -1.009  0.00  0.00    +0.350 C 
ATOM      9  N   LIG    1        2.719   0.878  -1.242  0.00  0.00    -0.013 NA
ATOM     10  C   LIG    1        1.603   0.964  -0.484  0.00  0.00    +0.425 C 
ATOM     11  O   LIG    1        0.557   1.861  -0.578  0.00  0.00    -0.301 OA
ATOM     12  C   LIG    1       -0.452   1.463   0.289  0.00  0.00    +0.203 C 
ENDROOT
BRANCH   1  13
ATOM     13  O   LIG    1       -2.566   1.453  -0.879  0.00  0.00    -0.386 OA
ATOM     14  H   LIG    1       -2.999   0.987  -1.645  0.00  0.00    +0.210 HD
ENDBRANCH   1  13
BRANCH   8  15
ATOM     15  N   LIG    1        4.694  -0.121  -1.750  0.00  0.00    -0.066 NA
ATOM     16  H   LIG    1        4.837   0.557  -2.526  0.00  0.00    +0.348 HD
ENDBRANCH   8  15
BRANCH   2  17
ATOM     17  C   LIG    1       -2.894  -1.301   0.341  0.00  0.00    +0.190 C 
BRANCH  17  18
ATOM     18  O   LIG    1       -4.101  -0.723  -0.055  0.00  0.00    -0.392 OA
ATOM     19  H   LIG    1       -4.622  -1.322  -0.643  0.00  0.00    +0.210 HD
ENDBRANCH  17  18
ENDBRANCH   2  17
TORSDOF 4
