REMARK  Name = molecules/BBRBUTFBTUFFBU-LHACABTQSA-N.pdb
REMARK                            x       y       z     vdW  Elec       q    Type
REMARK                         _______ _______ _______ _____ _____    ______ ____
ROOT
ATOM      1  C   LIG    1        0.645  -1.253   0.026  0.00  0.00    +0.051 C 
ATOM      2  C   LIG    1        1.246  -2.150   1.028  0.00  0.00    +0.129 C 
ATOM      3  C   LIG    1        2.280  -2.954   0.239  0.00  0.00    +0.106 C 
ATOM      4  C   LIG    1        1.622  -3.082  -1.115  0.00  0.00    +0.140 C 
ATOM      5  O   LIG    1        1.619  -4.038  -1.866  0.00  0.00    -0.297 OA
ATOM      6  C   LIG    1        0.977  -1.790  -1.339  0.00  0.00    +0.072 C 
ENDROOT
BRANCH   2   7
ATOM      7  O   LIG    1        1.879  -1.378   2.005  0.00  0.00    -0.391 OA
ATOM      8  H   LIG    1        1.816  -0.411   1.807  0.00  0.00    +0.210 HD
ENDBRANCH   2   7
BRANCH   1   9
ATOM      9  C   LIG    1       -0.813  -1.065   0.162  0.00  0.00    -0.022 C 
ATOM     10  C   LIG    1       -1.539  -1.620   1.102  0.00  0.00    -0.000 C 
BRANCH  10  11
ATOM     11  C   LIG    1       -3.038  -1.378   1.176  0.00  0.00    +0.137 C 
BRANCH  11  12
ATOM     12  O   LIG    1       -3.533  -1.977   2.326  0.00  0.00    -0.388 OA
ATOM     13  H   LIG    1       -3.493  -1.391   3.122  0.00  0.00    +0.210 HD
ENDBRANCH  11  12
BRANCH  11  14
ATOM     14  C   LIG    1       -3.204   0.093   1.285  0.00  0.00    +0.038 C 
BRANCH  14  15
ATOM     15  C   LIG    1       -4.655   0.563   1.388  0.00  0.00    -0.011 C 
ATOM     16  C   LIG    1       -4.578   2.066   1.542  0.00  0.00    +0.007 C 
BRANCH  15  17
ATOM     17  C   LIG    1       -5.364   0.115   0.156  0.00  0.00    +0.003 C 
BRANCH  17  18
ATOM     18  C   LIG    1       -6.803   0.441   0.033  0.00  0.00    -0.000 C 
BRANCH  18  19
ATOM     19  C   LIG    1       -7.189   1.880   0.049  0.00  0.00    -0.003 C 
ATOM     20  C   LIG    1       -8.729   1.899  -0.131  0.00  0.00    +0.004 C 
ENDBRANCH  18  19
ENDBRANCH  17  18
ENDBRANCH  15  17
ENDBRANCH  14  15
ENDBRANCH  11  14
ENDBRANCH  10  11
ENDBRANCH   1   9
BRANCH   6  21
ATOM     21  C   LIG    1        1.840  -0.841  -2.151  0.00  0.00    +0.086 C 
BRANCH  21  22
ATOM     22  C   LIG    1        3.135  -0.528  -1.562  0.00  0.00    +0.134 C 
ATOM     23  O   LIG    1        3.234   0.179  -0.586  0.00  0.00    -0.297 OA
BRANCH  22  24
ATOM     24  C   LIG    1        4.377  -1.081  -2.159  0.00  0.00    +0.074 C 
BRANCH  24  25
ATOM     25  C   LIG    1        5.130   0.051  -2.813  0.00  0.00    +0.008 C 
BRANCH  25  26
ATOM     26  C   LIG    1        5.530   1.149  -1.887  0.00  0.00    +0.012 C 
BRANCH  26  27
ATOM     27  C   LIG    1        6.431   0.662  -0.769  0.00  0.00    +0.120 C 
BRANCH  27  28
ATOM     28  C   LIG    1        6.770   1.844   0.097  0.00  0.00    +0.307 C 
ATOM     29  O   LIG    1        6.321   2.986  -0.171  0.00  0.00    -0.251 OA
BRANCH  28  30
ATOM     30  O   LIG    1        7.582   1.711   1.209  0.00  0.00    -0.468 OA
ATOM     31  C   LIG    1        7.921   2.801   2.046  0.00  0.00    +0.280 C 
ENDBRANCH  28  30
ENDBRANCH  27  28
ENDBRANCH  26  27
ENDBRANCH  25  26
ENDBRANCH  24  25
ENDBRANCH  22  24
ENDBRANCH  21  22
ENDBRANCH   6  21
TORSDOF 17
