REMARK  Name = molecules/BCGWQEUPMDMJNV-UHFFFAOYSA-N.pdb
REMARK                            x       y       z     vdW  Elec       q    Type
REMARK                         _______ _______ _______ _____ _____    ______ ____
ROOT
ATOM      1  N   LIG    1       -0.734  -0.387   0.510  0.00  0.00    -0.300 N 
ATOM      2  C   LIG    1       -1.163   0.963   0.819  0.00  0.00    +0.037 A 
ATOM      3  C   LIG    1       -0.237   1.541   1.637  0.00  0.00    +0.024 A 
ATOM      4  C   LIG    1       -0.452   2.848   2.050  0.00  0.00    +0.002 A 
ATOM      5  C   LIG    1       -1.587   3.522   1.625  0.00  0.00    +0.000 A 
ATOM      6  C   LIG    1       -2.497   2.905   0.801  0.00  0.00    +0.005 A 
ATOM      7  C   LIG    1       -2.301   1.588   0.373  0.00  0.00    -0.026 A 
ATOM      8  C   LIG    1       -3.447   1.134  -0.487  0.00  0.00    +0.042 C 
ATOM      9  C   LIG    1       -3.110   0.081  -1.475  0.00  0.00    +0.042 C 
ATOM     10  C   LIG    1       -2.674  -1.209  -0.874  0.00  0.00    -0.026 A 
ATOM     11  C   LIG    1       -3.392  -2.310  -1.230  0.00  0.00    +0.005 A 
ATOM     12  C   LIG    1       -3.061  -3.561  -0.725  0.00  0.00    +0.000 A 
ATOM     13  C   LIG    1       -1.997  -3.755   0.156  0.00  0.00    +0.002 A 
ATOM     14  C   LIG    1       -1.274  -2.656   0.516  0.00  0.00    +0.024 A 
ATOM     15  C   LIG    1       -1.612  -1.419   0.009  0.00  0.00    +0.037 A 
ENDROOT
BRANCH   1  16
ATOM     16  C   LIG    1        0.620  -0.763   0.695  0.00  0.00    +0.112 C 
BRANCH  16  17
ATOM     17  C   LIG    1        1.605   0.071  -0.165  0.00  0.00    +0.035 C 
BRANCH  17  18
ATOM     18  C   LIG    1        2.968  -0.427   0.166  0.00  0.00    +0.085 C 
BRANCH  18  19
ATOM     19  N   LIG    1        4.068   0.160  -0.459  0.00  0.00    -0.308 NA
ATOM     20  C   LIG    1        4.983   0.912   0.316  0.00  0.00    +0.104 C 
ATOM     21  C   LIG    1        4.305  -0.009  -1.829  0.00  0.00    +0.104 C 
ENDBRANCH  18  19
ENDBRANCH  17  18
ENDBRANCH  16  17
ENDBRANCH   1  16
TORSDOF 4
