REMARK  Name = molecules/BCQTVJKBTWGHCX-UHFFFAOYSA-N.pdb
REMARK                            x       y       z     vdW  Elec       q    Type
REMARK                         _______ _______ _______ _____ _____    ______ ____
ROOT
ATOM      1  C   LIG    1       -0.304  -0.443   0.094  0.00  0.00    +0.219 C 
ATOM      2  O   LIG    1       -0.101   0.797   0.198  0.00  0.00    -0.275 OA
ATOM      3  N   LIG    1       -1.603  -0.997  -0.033  0.00  0.00    -0.285 N 
ATOM      4  H   LIG    1       -1.681  -2.031  -0.114  0.00  0.00    +0.155 HD
ENDROOT
BRANCH   3   5
ATOM      5  C   LIG    1       -2.767  -0.168  -0.051  0.00  0.00    +0.039 A 
ATOM      6  C   LIG    1       -3.380   0.123   1.157  0.00  0.00    -0.029 A 
ATOM      7  C   LIG    1       -2.877  -0.392   2.459  0.00  0.00    +0.045 C 
ATOM      8  C   LIG    1       -4.500   0.927   1.097  0.00  0.00    +0.005 A 
ATOM      9  C   LIG    1       -5.008   1.429  -0.073  0.00  0.00    +0.001 A 
ATOM     10  C   LIG    1       -4.363   1.112  -1.247  0.00  0.00    +0.005 A 
ATOM     11  C   LIG    1       -3.238   0.312  -1.253  0.00  0.00    -0.029 A 
ATOM     12  C   LIG    1       -2.594   0.012  -2.559  0.00  0.00    +0.045 C 
ENDBRANCH   3   5
BRANCH   1  13
ATOM     13  C   LIG    1        0.882  -1.309   0.110  0.00  0.00    +0.118 C 
BRANCH  13  14
ATOM     14  C   LIG    1        2.170  -0.552   0.249  0.00  0.00    +0.030 C 
ATOM     15  C   LIG    1        2.303   0.134   1.573  0.00  0.00    +0.024 C 
ATOM     16  C   LIG    1        2.562   1.571   1.262  0.00  0.00    +0.017 C 
ATOM     17  C   LIG    1        2.627   1.687  -0.224  0.00  0.00    +0.085 C 
ATOM     18  C   LIG    1        3.286  -1.604   0.173  0.00  0.00    +0.024 C 
ATOM     19  C   LIG    1        3.786  -1.469  -1.269  0.00  0.00    +0.017 C 
ATOM     20  C   LIG    1        3.641   0.008  -1.482  0.00  0.00    +0.085 C 
ATOM     21  N   LIG    1        2.424   0.384  -0.792  0.00  0.00    -0.296 NA
ENDBRANCH  13  14
ENDBRANCH   1  13
TORSDOF 3
