REMARK  Name = molecules/BDBMLMBYCXNVMC-UHFFFAOYSA-O.pdb
REMARK                            x       y       z     vdW  Elec       q    Type
REMARK                         _______ _______ _______ _____ _____    ______ ____
ROOT
ATOM      1  C   LIG    1       -0.854  -0.028   1.265  0.00  0.00    -0.000 C 
ATOM      2  C   LIG    1        0.135   0.158   0.428  0.00  0.00    -0.000 C 
ENDROOT
BRANCH   2   3
ATOM      3  C   LIG    1        1.496   0.189   0.934  0.00  0.00    +0.000 C 
ATOM      4  C   LIG    1        2.491   0.339   0.085  0.00  0.00    +0.002 C 
BRANCH   4   5
ATOM      5  C   LIG    1        3.860   0.388   0.523  0.00  0.00    +0.020 C 
ATOM      6  C   LIG    1        4.868   0.503  -0.362  0.00  0.00    +0.021 C 
ATOM      7  N   LIG    1        6.261   0.578  -0.151  0.00  0.00    -0.302 N 
ATOM      8  C   LIG    1        6.974   0.596  -1.406  0.00  0.00    +0.038 A 
ATOM      9  C   LIG    1        8.320   0.624  -1.709  0.00  0.00    +0.024 A 
ATOM     10  C   LIG    1        8.726   0.592  -3.035  0.00  0.00    +0.010 A 
ATOM     11  C   LIG    1        7.777   0.534  -4.045  0.00  0.00    -0.017 A 
ATOM     12  C   LIG    1        6.449   0.508  -3.711  0.00  0.00    -0.012 A 
ATOM     13  C   LIG    1        5.523   0.467  -4.754  0.00  0.00    +0.009 A 
ATOM     14  C   LIG    1        5.925   0.454  -6.088  0.00  0.00    +0.001 A 
ATOM     15  C   LIG    1        7.272   0.482  -6.397  0.00  0.00    +0.001 A 
ATOM     16  C   LIG    1        8.195   0.522  -5.355  0.00  0.00    +0.008 A 
ATOM     17  C   LIG    1        6.030   0.538  -2.399  0.00  0.00    -0.007 A 
ATOM     18  C   LIG    1        4.671   0.535  -1.857  0.00  0.00    +0.031 C 
ATOM     19  C   LIG    1        4.013  -0.773  -2.264  0.00  0.00    +0.022 C 
ATOM     20  C   LIG    1        3.876   1.747  -2.267  0.00  0.00    +0.022 C 
BRANCH   7  21
ATOM     21  C   LIG    1        6.923   0.659   1.121  0.00  0.00    +0.111 C 
BRANCH  21  22
ATOM     22  C   LIG    1        6.876  -0.527   2.010  0.00  0.00    +0.021 C 
BRANCH  22  23
ATOM     23  C   LIG    1        7.692  -0.180   3.270  0.00  0.00    +0.027 C 
BRANCH  23  24
ATOM     24  C   LIG    1        7.159   1.009   3.993  0.00  0.00    +0.198 C 
BRANCH  24  25
ATOM     25  S   LIG    1        8.181   1.284   5.445  0.00  0.00    +0.080 S 
ATOM     26  O   LIG    1        8.081   0.194   6.440  0.00  0.00    -0.147 OA
ATOM     27  O   LIG    1        7.731   2.627   5.985  0.00  0.00    -0.147 OA
BRANCH  25  28
ATOM     28  O   LIG    1        9.758   1.527   4.887  0.00  0.00    -0.254 OA
ATOM     29  H   LIG    1        9.829   2.365   4.368  0.00  0.00    +0.244 HD
ENDBRANCH  25  28
ENDBRANCH  24  25
ENDBRANCH  23  24
ENDBRANCH  22  23
ENDBRANCH  21  22
ENDBRANCH   7  21
ENDBRANCH   4   5
ENDBRANCH   2   3
BRANCH   1  31
ATOM     30  C   LIG    1       -3.217  -0.292   1.680  0.00  0.00    +0.002 C 
ATOM     31  C   LIG    1       -2.279  -0.063   0.828  0.00  0.00    -0.002 C 
BRANCH  30  46
ATOM     32  C   LIG    1       -5.503  -0.146   3.869  0.00  0.00    +0.018 C 
ATOM     33  C   LIG    1       -5.533  -0.978   2.614  0.00  0.00    +0.020 C 
ATOM     34  C   LIG    1       -5.035  -2.401   2.838  0.00  0.00    +0.018 C 
ATOM     35  C   LIG    1       -6.854  -1.034   2.009  0.00  0.00    -0.011 A 
ATOM     36  C   LIG    1       -8.079  -1.492   2.487  0.00  0.00    -0.012 A 
ATOM     37  C   LIG    1       -8.124  -2.033   3.781  0.00  0.00    +0.009 A 
ATOM     38  C   LIG    1       -9.303  -2.489   4.270  0.00  0.00    +0.001 A 
ATOM     39  C   LIG    1      -10.477  -2.450   3.555  0.00  0.00    +0.001 A 
ATOM     40  C   LIG    1      -10.429  -1.908   2.260  0.00  0.00    +0.008 A 
ATOM     41  C   LIG    1       -9.230  -1.441   1.756  0.00  0.00    -0.017 A 
ATOM     42  C   LIG    1       -9.138  -0.904   0.488  0.00  0.00    +0.010 A 
ATOM     43  C   LIG    1       -7.958  -0.445  -0.016  0.00  0.00    +0.024 A 
ATOM     44  C   LIG    1       -6.785  -0.506   0.746  0.00  0.00    +0.035 A 
ATOM     45  N   LIG    1       -5.441  -0.125   0.517  0.00  0.00    -0.317 N 
ATOM     46  C   LIG    1       -4.661  -0.371   1.536  0.00  0.00    +0.088 C 
BRANCH  45  47
ATOM     47  C   LIG    1       -4.917   0.554  -0.658  0.00  0.00    +0.106 C 
BRANCH  47  48
ATOM     48  C   LIG    1       -4.679  -0.171  -1.900  0.00  0.00    +0.021 C 
BRANCH  48  49
ATOM     49  C   LIG    1       -5.795  -0.629  -2.753  0.00  0.00    +0.027 C 
BRANCH  49  50
ATOM     50  C   LIG    1       -6.585   0.512  -3.343  0.00  0.00    +0.198 C 
BRANCH  50  51
ATOM     51  S   LIG    1       -5.597   1.536  -4.412  0.00  0.00    +0.080 S 
ATOM     52  O   LIG    1       -4.464   2.195  -3.727  0.00  0.00    -0.147 OA
ATOM     53  O   LIG    1       -5.111   0.734  -5.574  0.00  0.00    -0.147 OA
BRANCH  51  54
ATOM     54  O   LIG    1       -6.589   2.778  -5.045  0.00  0.00    -0.254 OA
ATOM     55  H   LIG    1       -7.221   3.048  -4.332  0.00  0.00    +0.244 HD
ENDBRANCH  51  54
ENDBRANCH  50  51
ENDBRANCH  49  50
ENDBRANCH  48  49
ENDBRANCH  47  48
ENDBRANCH  45  47
ENDBRANCH  30  46
ENDBRANCH   1  31
TORSDOF 16
