REMARK  Name = molecules/BDERNNFJNOPAEC-UHFFFAOYSA-N.pdb
REMARK                            x       y       z     vdW  Elec       q    Type
REMARK                         _______ _______ _______ _____ _____    ______ ____
ROOT
ATOM      1  C   LIG    1       -0.984   0.349   0.016  0.00  0.00    +0.155 C 
ENDROOT
BRANCH   1   3
ATOM      2  C   LIG    1        1.505   0.217   0.134  0.00  0.00    +0.006 C 
ATOM      3  C   LIG    1        0.235  -0.515  -0.222  0.00  0.00    +0.024 C 
ENDBRANCH   1   3
BRANCH   1   4
ATOM      4  O   LIG    1       -2.154  -0.298  -0.301  0.00  0.00    -0.395 OA
ATOM      5  H   LIG    1       -2.595  -0.761   0.431  0.00  0.00    +0.209 HD
ENDBRANCH   1   4
TORSDOF 2
