REMARK  Name = molecules/BDNMABJZSXTKAQ-LMNJBCLMSA-N.pdb
REMARK                            x       y       z     vdW  Elec       q    Type
REMARK                         _______ _______ _______ _____ _____    ______ ____
ROOT
ATOM      1  C   LIG    1       -2.673   0.076  -0.536  0.00  0.00    +0.096 C 
ATOM      2  C   LIG    1       -2.536  -1.346  -1.035  0.00  0.00    +0.026 C 
ATOM      3  C   LIG    1       -3.726  -1.566  -1.908  0.00  0.00    -0.009 C 
ATOM      4  C   LIG    1       -4.735  -0.550  -1.355  0.00  0.00    +0.008 C 
ATOM      5  C   LIG    1       -3.458  -0.884  -3.238  0.00  0.00    +0.004 C 
ATOM      6  C   LIG    1       -3.443   0.604  -2.876  0.00  0.00    +0.005 C 
ATOM      7  C   LIG    1       -3.745   0.647  -1.424  0.00  0.00    +0.011 C 
ENDROOT
BRANCH   1   8
ATOM      8  C   LIG    1       -2.966   0.210   0.888  0.00  0.00    -0.030 A 
ATOM      9  C   LIG    1       -3.430  -0.770   1.702  0.00  0.00    +0.005 A 
ATOM     10  C   LIG    1       -3.685  -0.537   3.060  0.00  0.00    +0.000 A 
ATOM     11  C   LIG    1       -3.464   0.714   3.596  0.00  0.00    +0.000 A 
ATOM     12  C   LIG    1       -2.993   1.716   2.782  0.00  0.00    +0.000 A 
ATOM     13  C   LIG    1       -2.745   1.478   1.446  0.00  0.00    +0.005 A 
ENDBRANCH   1   8
BRANCH   1  14
ATOM     14  C   LIG    1       -1.373   0.745  -0.805  0.00  0.00    +0.318 C 
ATOM     15  O   LIG    1       -1.207   1.767  -1.506  0.00  0.00    -0.250 OA
BRANCH  14  16
ATOM     16  O   LIG    1       -0.189   0.218  -0.241  0.00  0.00    -0.464 OA
BRANCH  16  17
ATOM     17  C   LIG    1        1.057   0.816  -0.470  0.00  0.00    +0.233 C 
BRANCH  17  18
ATOM     18  C   LIG    1        2.120   0.004   0.251  0.00  0.00    +0.056 C 
BRANCH  18  19
ATOM     19  C   LIG    1        3.506   0.574   0.066  0.00  0.00    +0.087 C 
BRANCH  19  20
ATOM     20  N   LIG    1        4.449  -0.224   0.760  0.00  0.00    -0.303 NA
BRANCH  20  21
ATOM     21  C   LIG    1        5.599   0.443   1.259  0.00  0.00    +0.081 C 
ATOM     22  C   LIG    1        5.287   1.410   2.383  0.00  0.00    +0.020 C 
ENDBRANCH  20  21
BRANCH  20  23
ATOM     23  C   LIG    1        4.668  -1.519   0.234  0.00  0.00    +0.081 C 
ATOM     24  C   LIG    1        5.356  -1.534  -1.113  0.00  0.00    +0.020 C 
ENDBRANCH  20  23
ENDBRANCH  19  20
ENDBRANCH  18  19
ENDBRANCH  17  18
ENDBRANCH  16  17
ENDBRANCH  14  16
ENDBRANCH   1  14
TORSDOF 9
