REMARK  Name = molecules/BDSYKGHYMJNPAB-LICBFIPMSA-N.pdb
REMARK                            x       y       z     vdW  Elec       q    Type
REMARK                         _______ _______ _______ _____ _____    ______ ____
ROOT
ATOM      1  C   LIG    1       -2.033  -1.176   0.016  0.00  0.00    +0.180 C 
ATOM      2  C   LIG    1       -2.484  -0.537   1.286  0.00  0.00    +0.038 C 
ATOM      3  C   LIG    1       -3.452  -1.247   2.130  0.00  0.00    +0.012 C 
ATOM      4  C   LIG    1       -1.236  -0.106   2.058  0.00  0.00    +0.012 C 
ATOM      5  C   LIG    1       -0.240  -0.150   0.943  0.00  0.00    +0.006 C 
ATOM      6  C   LIG    1        1.174   0.141   1.257  0.00  0.00    +0.037 C 
ATOM      7  C   LIG    1        1.216   1.580   1.729  0.00  0.00    +0.048 C 
ATOM      8  C   LIG    1        2.584   2.171   1.796  0.00  0.00    +0.194 C 
ATOM      9  F   LIG    1        2.463   3.491   2.135  0.00  0.00    -0.241 F 
ATOM     10  C   LIG    1        3.179   2.022   0.437  0.00  0.00    -0.020 C 
ATOM     11  C   LIG    1        3.260   0.653  -0.076  0.00  0.00    +0.047 C 
ATOM     12  C   LIG    1        4.162  -0.101   0.888  0.00  0.00    +0.023 C 
ATOM     13  C   LIG    1        3.840   0.584  -1.400  0.00  0.00    -0.009 C 
ATOM     14  C   LIG    1        4.248   1.641  -2.066  0.00  0.00    +0.047 C 
ATOM     15  C   LIG    1        4.161   2.995  -1.541  0.00  0.00    +0.179 C 
ATOM     16  O   LIG    1        4.553   3.991  -2.186  0.00  0.00    -0.288 OA
ATOM     17  C   LIG    1        3.574   3.089  -0.195  0.00  0.00    +0.054 C 
ATOM     18  C   LIG    1        1.866   0.108  -0.114  0.00  0.00    +0.153 C 
ATOM     19  C   LIG    1        1.704  -1.213  -0.766  0.00  0.00    +0.154 C 
ATOM     20  C   LIG    1        0.253  -1.618  -0.943  0.00  0.00    +0.045 C 
ATOM     21  F   LIG    1        1.124   1.021  -0.886  0.00  0.00    -0.238 F 
ATOM     22  C   LIG    1       -0.545  -1.450   0.307  0.00  0.00    +0.021 C 
ATOM     23  C   LIG    1       -0.482  -2.660   1.153  0.00  0.00    +0.016 C 
ENDROOT
BRANCH  19  24
ATOM     24  O   LIG    1        2.461  -2.243  -0.243  0.00  0.00    -0.389 OA
ATOM     25  H   LIG    1        2.702  -2.180   0.690  0.00  0.00    +0.210 HD
ENDBRANCH  19  24
BRANCH   1  26
ATOM     26  C   LIG    1       -2.762  -2.331  -0.421  0.00  0.00    +0.192 C 
ATOM     27  O   LIG    1       -3.122  -3.175   0.384  0.00  0.00    -0.292 OA
BRANCH  26  28
ATOM     28  C   LIG    1       -3.105  -2.567  -1.831  0.00  0.00    +0.187 C 
ATOM     29 CL   LIG    1       -3.978  -4.111  -2.060  0.00  0.00    -0.117 Cl
ENDBRANCH  26  28
ENDBRANCH   1  26
BRANCH   1  30
ATOM     30  O   LIG    1       -1.972  -0.161  -0.984  0.00  0.00    -0.449 OA
BRANCH  30  31
ATOM     31  C   LIG    1       -3.037   0.546  -1.460  0.00  0.00    +0.308 C 
ATOM     32  O   LIG    1       -4.179   0.333  -0.992  0.00  0.00    -0.251 OA
BRANCH  31  33
ATOM     33  C   LIG    1       -2.901   1.585  -2.536  0.00  0.00    +0.117 C 
ATOM     34  C   LIG    1       -4.223   2.196  -2.862  0.00  0.00    +0.015 C 
ENDBRANCH  31  33
ENDBRANCH  30  31
ENDBRANCH   1  30
TORSDOF 6
