REMARK  Name = molecules/BEWNZPMDJIGBED-GFCCVEGCSA-N.pdb
REMARK                            x       y       z     vdW  Elec       q    Type
REMARK                         _______ _______ _______ _____ _____    ______ ____
ROOT
ATOM      1  N   LIG    1       -0.650  -0.236  -1.397  0.00  0.00    -0.233 NA
ATOM      2  H   LIG    1       -0.964  -0.500  -2.325  0.00  0.00    +0.145 HD
ENDROOT
BRANCH   1   3
ATOM      3  N   LIG    1        0.630   0.167  -1.199  0.00  0.00    -0.246 N 
ATOM      4  C   LIG    1        1.661  -0.447  -0.461  0.00  0.00    +0.258 C 
ATOM      5  O   LIG    1        1.499  -1.529   0.155  0.00  0.00    -0.269 OA
ATOM      6  H   LIG    1        0.941   1.097  -1.668  0.00  0.00    +0.169 HD
BRANCH   4   7
ATOM      7  C   LIG    1        3.018   0.122  -0.347  0.00  0.00    +0.038 A 
ATOM      8  C   LIG    1        4.099  -0.684  -0.049  0.00  0.00    +0.013 A 
ATOM      9  C   LIG    1        5.385  -0.192   0.065  0.00  0.00    +0.001 A 
ATOM     10  C   LIG    1        5.615   1.154  -0.126  0.00  0.00    +0.000 A 
ATOM     11  C   LIG    1        4.548   1.973  -0.425  0.00  0.00    +0.001 A 
ATOM     12  C   LIG    1        3.252   1.465  -0.536  0.00  0.00    +0.013 A 
ENDBRANCH   4   7
ENDBRANCH   1   3
BRANCH   1  13
ATOM     13  C   LIG    1       -1.271  -0.837  -0.291  0.00  0.00    +0.099 C 
ATOM     14  C   LIG    1       -1.538  -2.316  -0.486  0.00  0.00    +0.030 C 
BRANCH  13  15
ATOM     15  C   LIG    1       -2.601  -0.192   0.045  0.00  0.00    -0.029 A 
ATOM     16  C   LIG    1       -2.944   0.144   1.339  0.00  0.00    +0.005 A 
ATOM     17  C   LIG    1       -4.159   0.721   1.634  0.00  0.00    +0.000 A 
ATOM     18  C   LIG    1       -5.072   0.979   0.641  0.00  0.00    +0.000 A 
ATOM     19  C   LIG    1       -4.749   0.651  -0.665  0.00  0.00    +0.000 A 
ATOM     20  C   LIG    1       -3.530   0.075  -0.942  0.00  0.00    +0.005 A 
ENDBRANCH  13  15
ENDBRANCH   1  13
TORSDOF 4
