REMARK  Name = molecules/BFCRRLMMHNLSCP-UHFFFAOYSA-N.pdb
REMARK                            x       y       z     vdW  Elec       q    Type
REMARK                         _______ _______ _______ _____ _____    ______ ____
ROOT
ATOM      1  C   LIG    1        0.710  -0.406   1.561  0.00  0.00    +0.075 C 
ENDROOT
BRANCH   1   2
ATOM      2  C   LIG    1       -0.593  -0.130   0.914  0.00  0.00    -0.036 A 
ATOM      3  C   LIG    1       -1.195   1.103   0.856  0.00  0.00    +0.051 A 
ATOM      4  C   LIG    1       -2.429   1.241   0.209  0.00  0.00    +0.138 A 
ATOM      5  C   LIG    1       -3.033   0.165  -0.361  0.00  0.00    +0.101 A 
ATOM      6  C   LIG    1       -2.454  -1.083  -0.320  0.00  0.00    +0.138 A 
ATOM      7 BR   LIG    1       -4.729   0.291  -1.265  0.00  0.00    -0.043 Br
ATOM      8  C   LIG    1       -1.234  -1.207   0.323  0.00  0.00    +0.051 A 
BRANCH   4   9
ATOM      9  O   LIG    1       -3.062   2.488   0.137  0.00  0.00    -0.494 OA
ATOM     10  C   LIG    1       -2.484   3.646   0.707  0.00  0.00    +0.277 C 
ENDBRANCH   4   9
BRANCH   6  11
ATOM     11  O   LIG    1       -3.057  -2.186  -0.895  0.00  0.00    -0.494 OA
ATOM     12  C   LIG    1       -2.524  -3.479  -0.887  0.00  0.00    +0.277 C 
ENDBRANCH   6  11
ENDBRANCH   1   2
BRANCH   1  13
ATOM     13  C   LIG    1        1.835  -0.379   0.585  0.00  0.00    +0.015 A 
ATOM     14  C   LIG    1        2.369  -1.573   0.101  0.00  0.00    +0.121 A 
ATOM     15  N   LIG    1        3.373  -1.567  -0.785  0.00  0.00    -0.223 NA
ATOM     16  C   LIG    1        3.922  -0.434  -1.259  0.00  0.00    +0.214 A 
ATOM     17  N   LIG    1        3.424   0.726  -0.807  0.00  0.00    -0.200 NA
ATOM     18  C   LIG    1        2.401   0.773   0.097  0.00  0.00    +0.125 A 
BRANCH  16  19
ATOM     19  N   LIG    1        4.992  -0.482  -2.207  0.00  0.00    -0.327 N 
ATOM     20  H   LIG    1        5.794   0.175  -2.231  0.00  0.00    +0.145 HD
ATOM     21  H   LIG    1        4.963  -1.232  -2.927  0.00  0.00    +0.145 HD
ENDBRANCH  16  19
BRANCH  18  22
ATOM     22  N   LIG    1        1.911   2.037   0.545  0.00  0.00    -0.343 N 
ATOM     23  H   LIG    1        1.713   2.225   1.547  0.00  0.00    +0.144 HD
ATOM     24  H   LIG    1        1.746   2.809  -0.165  0.00  0.00    +0.144 HD
ENDBRANCH  18  22
ENDBRANCH   1  13
TORSDOF 6
