REMARK  Name = molecules/BFDBKMOZYNOTPK-UHFFFAOYSA-N.pdb
REMARK                            x       y       z     vdW  Elec       q    Type
REMARK                         _______ _______ _______ _____ _____    ______ ____
ROOT
ATOM      1  C   LIG    1       -0.920   1.062   0.072  0.00  0.00    +0.075 A 
ATOM      2  N   LIG    1        0.014   0.378   0.715  0.00  0.00    -0.218 N 
ATOM      3  C   LIG    1       -0.452  -0.912   0.909  0.00  0.00    +0.117 A 
ATOM      4  C   LIG    1       -1.693  -1.015   0.363  0.00  0.00    -0.014 A 
ATOM      5  C   LIG    1       -2.003   0.203  -0.165  0.00  0.00    +0.034 A 
ENDROOT
BRANCH   1  11
ATOM      6  C   LIG    1       -1.604   3.897  -2.257  0.00  0.00    +0.001 A 
ATOM      7  C   LIG    1       -1.004   4.947  -1.597  0.00  0.00    +0.003 A 
ATOM      8  C   LIG    1       -0.416   4.742  -0.377  0.00  0.00    +0.039 A 
ATOM      9  C   LIG    1       -0.399   3.485   0.241  0.00  0.00    +0.133 A 
ATOM     10  F   LIG    1        0.113   3.425   1.501  0.00  0.00    -0.205 F 
ATOM     11  C   LIG    1       -0.987   2.443  -0.409  0.00  0.00    +0.035 A 
ATOM     12  C   LIG    1       -1.589   2.664  -1.658  0.00  0.00    +0.013 A 
ENDBRANCH   1  11
BRANCH   2  13
ATOM     13  S   LIG    1        1.641   0.840   1.036  0.00  0.00    +0.086 S 
ATOM     14  O   LIG    1        1.970   0.979   2.465  0.00  0.00    -0.148 OA
ATOM     15  O   LIG    1        1.997   2.081   0.226  0.00  0.00    -0.148 OA
BRANCH  13  16
ATOM     16  C   LIG    1        2.728  -0.380   0.330  0.00  0.00    +0.129 A 
ATOM     17  C   LIG    1        3.097  -1.408   1.169  0.00  0.00    +0.139 A 
ATOM     18  N   LIG    1        3.922  -2.379   0.693  0.00  0.00    -0.261 NA
ATOM     19  C   LIG    1        4.351  -2.300  -0.590  0.00  0.00    +0.111 A 
ATOM     20  C   LIG    1        3.989  -1.278  -1.437  0.00  0.00    +0.022 A 
ATOM     21  C   LIG    1        3.141  -0.266  -0.973  0.00  0.00    +0.032 A 
ENDBRANCH  13  16
ENDBRANCH   2  13
BRANCH   4  22
ATOM     22  C   LIG    1       -2.597  -2.213   0.321  0.00  0.00    +0.117 C 
BRANCH  22  23
ATOM     23  N   LIG    1       -1.881  -3.280   0.992  0.00  0.00    -0.315 NA
ATOM     24  C   LIG    1       -2.648  -4.485   1.015  0.00  0.00    +0.101 C 
ATOM     25  H   LIG    1       -0.953  -3.366   0.519  0.00  0.00    +0.122 HD
ENDBRANCH  22  23
ENDBRANCH   4  22
TORSDOF 5
