REMARK  Name = molecules/BFPSDSIWYFKGBC-UHFFFAOYSA-N.pdb
REMARK                            x       y       z     vdW  Elec       q    Type
REMARK                         _______ _______ _______ _____ _____    ______ ____
ROOT
ATOM      1  C   LIG    1       -0.201  -0.832   0.004  0.00  0.00    +0.008 C 
ATOM      2  C   LIG    1        1.015  -1.287  -0.210  0.00  0.00    +0.056 C 
ATOM      3 CL   LIG    1        1.369  -2.982  -0.490  0.00  0.00    -0.082 Cl
ENDROOT
BRANCH   1   4
ATOM      4  C   LIG    1       -0.477   0.565   0.255  0.00  0.00    -0.016 A 
ATOM      5  C   LIG    1        0.247   1.325   1.169  0.00  0.00    +0.012 A 
ATOM      6  C   LIG    1       -0.058   2.649   1.403  0.00  0.00    +0.046 A 
ATOM      7  C   LIG    1       -1.095   3.289   0.747  0.00  0.00    +0.120 A 
ATOM      8  C   LIG    1       -1.812   2.537  -0.156  0.00  0.00    +0.046 A 
ATOM      9  C   LIG    1       -1.511   1.198  -0.400  0.00  0.00    +0.012 A 
BRANCH   7  10
ATOM     10  O   LIG    1       -1.401   4.619   0.982  0.00  0.00    -0.495 OA
ATOM     11  C   LIG    1       -2.446   5.281   0.326  0.00  0.00    +0.277 C 
ENDBRANCH   7  10
ENDBRANCH   1   4
BRANCH   1  12
ATOM     12  C   LIG    1       -1.338  -1.740  -0.021  0.00  0.00    -0.016 A 
ATOM     13  C   LIG    1       -2.335  -1.649   0.940  0.00  0.00    +0.012 A 
ATOM     14  C   LIG    1       -3.416  -2.493   0.915  0.00  0.00    +0.046 A 
ATOM     15  C   LIG    1       -3.563  -3.458  -0.049  0.00  0.00    +0.120 A 
ATOM     16  C   LIG    1       -2.594  -3.566  -1.006  0.00  0.00    +0.046 A 
ATOM     17  C   LIG    1       -1.492  -2.710  -0.986  0.00  0.00    +0.012 A 
BRANCH  15  18
ATOM     18  O   LIG    1       -4.670  -4.275  -0.020  0.00  0.00    -0.495 OA
ATOM     19  C   LIG    1       -4.867  -5.292  -0.998  0.00  0.00    +0.277 C 
ENDBRANCH  15  18
ENDBRANCH   1  12
BRANCH   2  20
ATOM     20  C   LIG    1        2.188  -0.397  -0.215  0.00  0.00    -0.006 A 
ATOM     21  C   LIG    1        3.298  -0.814   0.490  0.00  0.00    +0.013 A 
ATOM     22  C   LIG    1        4.449  -0.037   0.509  0.00  0.00    +0.046 A 
ATOM     23  C   LIG    1        4.405   1.141  -0.202  0.00  0.00    +0.120 A 
ATOM     24  C   LIG    1        3.310   1.568  -0.907  0.00  0.00    +0.046 A 
ATOM     25  C   LIG    1        2.189   0.778  -0.907  0.00  0.00    +0.013 A 
BRANCH  23  26
ATOM     26  O   LIG    1        5.554   1.935  -0.192  0.00  0.00    -0.495 OA
ATOM     27  C   LIG    1        6.720   1.587   0.498  0.00  0.00    +0.277 C 
ENDBRANCH  23  26
ENDBRANCH   2  20
TORSDOF 6
