REMARK  Name = molecules/BFUJHVVEMMWLHC-UHFFFAOYSA-N.pdb
REMARK                            x       y       z     vdW  Elec       q    Type
REMARK                         _______ _______ _______ _____ _____    ______ ____
ROOT
ATOM      1  N   LIG    1       -1.405  -0.015  -1.483  0.00  0.00    -0.295 NA
ATOM      2  C   LIG    1       -1.216   1.090  -0.595  0.00  0.00    +0.103 C 
ATOM      3  C   LIG    1        0.257   1.407  -0.487  0.00  0.00    +0.123 C 
ATOM      4  N   LIG    1        1.098   0.304  -0.811  0.00  0.00    -0.296 N 
ATOM      5  C   LIG    1        2.090  -0.145   0.092  0.00  0.00    +0.253 C 
ATOM      6  O   LIG    1        2.219   0.444   1.189  0.00  0.00    -0.272 OA
ATOM      7  C   LIG    1        0.901  -0.342  -2.100  0.00  0.00    +0.123 C 
ATOM      8  C   LIG    1       -0.468   0.079  -2.588  0.00  0.00    +0.103 C 
ENDROOT
BRANCH   1   9
ATOM      9  C   LIG    1       -2.719  -0.131  -2.030  0.00  0.00    +0.119 C 
BRANCH   9  10
ATOM     10  C   LIG    1       -3.776  -0.237  -0.994  0.00  0.00    -0.030 A 
ATOM     11  C   LIG    1       -4.395   0.889  -0.501  0.00  0.00    +0.054 A 
ATOM     12  C   LIG    1       -5.375   0.783   0.461  0.00  0.00    +0.167 A 
ATOM     13  O   LIG    1       -6.169   1.726   1.141  0.00  0.00    -0.453 OA
ATOM     14  C   LIG    1       -6.742   1.131   2.290  0.00  0.00    +0.466 C 
ATOM     15  O   LIG    1       -6.758  -0.244   1.903  0.00  0.00    -0.453 OA
ATOM     16  C   LIG    1       -5.762  -0.446   0.955  0.00  0.00    +0.166 A 
ATOM     17  C   LIG    1       -5.133  -1.586   0.453  0.00  0.00    +0.050 A 
ATOM     18  C   LIG    1       -4.152  -1.472  -0.510  0.00  0.00    +0.009 A 
ENDBRANCH   9  10
ENDBRANCH   1   9
BRANCH   5  19
ATOM     19  C   LIG    1        2.935  -1.295  -0.295  0.00  0.00    +0.324 C 
BRANCH  19  20
ATOM     20  O   LIG    1        3.904  -1.609   0.648  0.00  0.00    -0.483 OA
BRANCH  20  21
ATOM     21  C   LIG    1        4.942  -0.796   1.077  0.00  0.00    +0.121 A 
ATOM     22  C   LIG    1        5.824  -1.275   2.054  0.00  0.00    +0.047 A 
ATOM     23  C   LIG    1        6.864  -0.490   2.496  0.00  0.00    +0.023 A 
ATOM     24  C   LIG    1        7.073   0.785   1.997  0.00  0.00    +0.041 A 
ATOM     25 CL   LIG    1        8.418   1.718   2.613  0.00  0.00    -0.084 Cl
ATOM     26  C   LIG    1        6.221   1.280   1.036  0.00  0.00    +0.023 A 
ATOM     27  C   LIG    1        5.186   0.476   0.607  0.00  0.00    +0.047 A 
ENDBRANCH  20  21
ENDBRANCH  19  20
ENDBRANCH   5  19
TORSDOF 5
