REMARK  Name = molecules/BFYIZQONLCFLEV-DAELLWKTSA-N.pdb
REMARK                            x       y       z     vdW  Elec       q    Type
REMARK                         _______ _______ _______ _____ _____    ______ ____
ROOT
ATOM      1  C   LIG    1        1.532  -0.516   1.820  0.00  0.00    +0.021 C 
ATOM      2  C   LIG    1        1.763  -0.559   0.306  0.00  0.00    +0.015 C 
ATOM      3  C   LIG    1        2.548  -1.750   0.022  0.00  0.00    -0.012 C 
ATOM      4  C   LIG    1        3.784  -1.728  -0.448  0.00  0.00    +0.047 C 
ATOM      5  C   LIG    1        4.444  -0.470  -0.719  0.00  0.00    +0.179 C 
ATOM      6  C   LIG    1        3.722   0.766  -0.470  0.00  0.00    +0.055 C 
ATOM      7  O   LIG    1        5.609  -0.440  -1.158  0.00  0.00    -0.288 OA
ATOM      8  C   LIG    1        2.496   0.722  -0.006  0.00  0.00    -0.031 C 
ATOM      9  C   LIG    1        1.721   1.948   0.184  0.00  0.00    -0.050 C 
ATOM     10  C   LIG    1        2.333   3.067   0.449  0.00  0.00    +0.012 C 
ATOM     11  C   LIG    1        0.251   1.921   0.063  0.00  0.00    +0.039 C 
ATOM     12  C   LIG    1       -0.374   0.562   0.265  0.00  0.00    +0.002 C 
ATOM     13  C   LIG    1       -1.706   0.579  -0.424  0.00  0.00    +0.006 C 
ATOM     14  C   LIG    1       -2.745   1.425   0.207  0.00  0.00    +0.012 C 
ATOM     15  C   LIG    1       -4.056   0.857  -0.344  0.00  0.00    +0.075 C 
ATOM     16  C   LIG    1       -3.683  -0.454  -0.989  0.00  0.00    +0.139 C 
ATOM     17  O   LIG    1       -4.390  -1.020  -1.783  0.00  0.00    -0.297 OA
ATOM     18  C   LIG    1       -2.365  -0.792  -0.430  0.00  0.00    +0.029 C 
ATOM     19  C   LIG    1       -2.571  -1.321   0.969  0.00  0.00    +0.019 C 
ATOM     20  C   LIG    1       -1.523  -1.681  -1.275  0.00  0.00    +0.015 C 
ATOM     21  C   LIG    1       -0.176  -1.807  -0.549  0.00  0.00    +0.006 C 
ATOM     22  C   LIG    1        0.481  -0.466  -0.446  0.00  0.00    +0.007 C 
ENDROOT
TORSDOF 0
