REMARK  Name = molecules/BFYRHDVAEJIBON-UHFFFAOYSA-N.pdb
REMARK                            x       y       z     vdW  Elec       q    Type
REMARK                         _______ _______ _______ _____ _____    ______ ____
ROOT
ATOM      1  C   LIG    1       -0.574  -1.094  -0.098  0.00  0.00    +0.251 C 
ENDROOT
BRANCH   1   2
ATOM      2  O   LIG    1        0.707  -0.550  -0.153  0.00  0.00    -0.452 OA
BRANCH   2   3
ATOM      3  C   LIG    1        1.457  -0.294   0.986  0.00  0.00    +0.351 C 
ATOM      4  O   LIG    1        0.940  -0.571   2.096  0.00  0.00    -0.246 OA
BRANCH   3   5
ATOM      5  C   LIG    1        2.811   0.284   0.860  0.00  0.00    +0.200 C 
ATOM      6  C   LIG    1        2.928   1.597   1.593  0.00  0.00    +0.067 C 
ATOM      7  C   LIG    1        3.861  -0.646   1.449  0.00  0.00    +0.067 C 
BRANCH   5   8
ATOM      8  O   LIG    1        3.161   0.504  -0.492  0.00  0.00    -0.475 OA
BRANCH   8   9
ATOM      9  C   LIG    1        4.412   1.046  -0.751  0.00  0.00    +0.122 A 
ATOM     10  C   LIG    1        4.558   2.418  -0.820  0.00  0.00    +0.047 A 
ATOM     11  C   LIG    1        5.777   3.022  -1.075  0.00  0.00    +0.023 A 
ATOM     12  C   LIG    1        6.891   2.246  -1.268  0.00  0.00    +0.041 A 
ATOM     13  C   LIG    1        6.769   0.890  -1.205  0.00  0.00    +0.023 A 
ATOM     14 CL   LIG    1        8.425   3.010  -1.589  0.00  0.00    -0.084 Cl
ATOM     15  C   LIG    1        5.544   0.281  -0.949  0.00  0.00    +0.047 A 
ENDBRANCH   8   9
ENDBRANCH   5   8
ENDBRANCH   3   5
ENDBRANCH   2   3
ENDBRANCH   1   2
BRANCH   1  16
ATOM     16  C   LIG    1       -1.642  -0.225  -0.674  0.00  0.00    +0.280 C 
BRANCH  16  17
ATOM     17  O   LIG    1       -1.734   1.030  -0.001  0.00  0.00    -0.457 OA
BRANCH  17  18
ATOM     18  C   LIG    1       -2.648   1.996  -0.359  0.00  0.00    +0.341 C 
ATOM     19  O   LIG    1       -3.413   1.729  -1.317  0.00  0.00    -0.245 OA
BRANCH  18  20
ATOM     20  C   LIG    1       -2.768   3.280   0.303  0.00  0.00    +0.077 A 
ATOM     21  C   LIG    1       -1.980   3.661   1.355  0.00  0.00    +0.018 A 
ATOM     22  C   LIG    1       -2.187   4.922   1.913  0.00  0.00    +0.020 A 
ATOM     23  C   LIG    1       -3.147   5.788   1.446  0.00  0.00    +0.111 A 
ATOM     24  N   LIG    1       -3.905   5.371   0.404  0.00  0.00    -0.262 NA
ATOM     25  C   LIG    1       -3.719   4.169  -0.140  0.00  0.00    +0.125 A 
ENDBRANCH  18  20
ENDBRANCH  17  18
ENDBRANCH  16  17
ENDBRANCH   1  16
BRANCH   1  26
ATOM     26  C   LIG    1       -0.665  -2.452  -0.756  0.00  0.00    +0.280 C 
BRANCH  26  27
ATOM     27  O   LIG    1       -1.990  -2.942  -0.663  0.00  0.00    -0.457 OA
BRANCH  27  28
ATOM     28  C   LIG    1       -2.370  -4.160  -1.178  0.00  0.00    +0.341 C 
ATOM     29  O   LIG    1       -1.492  -4.849  -1.749  0.00  0.00    -0.245 OA
BRANCH  28  30
ATOM     30  C   LIG    1       -3.737  -4.672  -1.085  0.00  0.00    +0.077 A 
ATOM     31  C   LIG    1       -4.736  -3.957  -0.469  0.00  0.00    +0.018 A 
ATOM     32  C   LIG    1       -6.016  -4.475  -0.401  0.00  0.00    +0.020 A 
ATOM     33  C   LIG    1       -6.303  -5.697  -0.942  0.00  0.00    +0.111 A 
ATOM     34  N   LIG    1       -5.319  -6.392  -1.544  0.00  0.00    -0.262 NA
ATOM     35  C   LIG    1       -4.057  -5.900  -1.619  0.00  0.00    +0.125 A 
ENDBRANCH  28  30
ENDBRANCH  27  28
ENDBRANCH  26  27
ENDBRANCH   1  26
TORSDOF 13
