REMARK  Name = molecules/BGDKAVGWHJFAGW-MRXNPFEDSA-N.pdb
REMARK                            x       y       z     vdW  Elec       q    Type
REMARK                         _______ _______ _______ _____ _____    ______ ____
ROOT
ATOM      1  C   LIG    1        0.469  -0.701  -0.669  0.00  0.00    +0.225 C 
ATOM      2  O   LIG    1        1.134  -1.727  -0.355  0.00  0.00    -0.275 OA
ATOM      3  N   LIG    1       -0.850  -0.868  -1.109  0.00  0.00    -0.297 N 
ENDROOT
BRANCH   3   4
ATOM      4  C   LIG    1       -1.333  -2.263  -1.234  0.00  0.00    +0.105 C 
ATOM      5  C   LIG    1       -1.937  -2.778   0.025  0.00  0.00    +0.024 C 
ENDBRANCH   3   4
BRANCH   1   6
ATOM      6  C   LIG    1        1.151   0.591  -0.540  0.00  0.00    +0.130 C 
BRANCH   6   7
ATOM      7  C   LIG    1        2.451   0.413   0.214  0.00  0.00    -0.033 A 
ATOM      8  C   LIG    1        2.654   1.115   1.377  0.00  0.00    +0.004 A 
ATOM      9  C   LIG    1        3.837   0.989   2.110  0.00  0.00    +0.000 A 
ATOM     10  C   LIG    1        4.838   0.146   1.677  0.00  0.00    +0.000 A 
ATOM     11  C   LIG    1        4.641  -0.562   0.512  0.00  0.00    +0.000 A 
ATOM     12  C   LIG    1        3.452  -0.427  -0.216  0.00  0.00    +0.004 A 
ENDBRANCH   6   7
BRANCH   6  13
ATOM     13  C   LIG    1        1.578   1.153  -1.889  0.00  0.00    +0.173 C 
BRANCH  13  14
ATOM     14  O   LIG    1        2.211   2.377  -1.692  0.00  0.00    -0.394 OA
ATOM     15  H   LIG    1        2.133   2.647  -0.742  0.00  0.00    +0.209 HD
ENDBRANCH  13  14
ENDBRANCH   6  13
ENDBRANCH   1   6
BRANCH   3  16
ATOM     16  C   LIG    1       -1.799   0.153  -1.466  0.00  0.00    +0.143 C 
BRANCH  16  17
ATOM     17  C   LIG    1       -2.715   0.532  -0.352  0.00  0.00    -0.027 A 
ATOM     18  C   LIG    1       -2.458   1.601   0.472  0.00  0.00    +0.025 A 
ATOM     19  C   LIG    1       -3.338   1.941   1.508  0.00  0.00    +0.111 A 
ATOM     20  N   LIG    1       -4.451   1.234   1.722  0.00  0.00    -0.263 NA
ATOM     21  C   LIG    1       -4.731   0.197   0.948  0.00  0.00    +0.111 A 
ATOM     22  C   LIG    1       -3.893  -0.172  -0.084  0.00  0.00    +0.025 A 
ENDBRANCH  16  17
ENDBRANCH   3  16
TORSDOF 7
