REMARK  Name = molecules/BGEBZHIAGXMEMV-UHFFFAOYSA-N.pdb
REMARK                            x       y       z     vdW  Elec       q    Type
REMARK                         _______ _______ _______ _____ _____    ______ ____
ROOT
ATOM      1  C   LIG    1       -0.456   0.422  -0.355  0.00  0.00    +0.141 A 
ATOM      2  C   LIG    1       -1.391  -0.568  -0.225  0.00  0.00    +0.063 A 
ATOM      3  C   LIG    1       -0.996  -1.866   0.026  0.00  0.00    +0.142 A 
ATOM      4  C   LIG    1        0.336  -2.192   0.151  0.00  0.00    +0.094 A 
ATOM      5  C   LIG    1        1.284  -1.183   0.018  0.00  0.00    +0.146 A 
ATOM      6  O   LIG    1        2.566  -1.455   0.131  0.00  0.00    -0.422 OA
ATOM      7  C   LIG    1        3.448  -0.495   0.005  0.00  0.00    +0.337 A 
ATOM      8  O   LIG    1        4.697  -0.745   0.112  0.00  0.00    -0.245 OA
ATOM      9  C   LIG    1        3.126   0.818  -0.246  0.00  0.00    +0.093 A 
ATOM     10  C   LIG    1        1.806   1.142  -0.369  0.00  0.00    +0.022 A 
ATOM     11  O   LIG    1       -2.066  -2.635   0.109  0.00  0.00    -0.463 OA
ATOM     12  C   LIG    1       -3.156  -1.925  -0.072  0.00  0.00    +0.196 A 
ATOM     13  C   LIG    1       -2.786  -0.613  -0.287  0.00  0.00    +0.053 A 
ATOM     14  C   LIG    1        0.885   0.116  -0.233  0.00  0.00    +0.060 A 
ENDROOT
BRANCH   1  15
ATOM     15  O   LIG    1       -0.883   1.721  -0.608  0.00  0.00    -0.494 OA
ATOM     16  C   LIG    1       -1.149   2.560   0.492  0.00  0.00    +0.277 C 
ENDBRANCH   1  15
TORSDOF 1
