REMARK  Name = molecules/BGSZAXLLHYERSY-XQIGCQGXSA-N.pdb
REMARK                            x       y       z     vdW  Elec       q    Type
REMARK                         _______ _______ _______ _____ _____    ______ ____
ROOT
ATOM      1  C   LIG    1       -1.959   0.909   1.597  0.00  0.00    +0.015 C 
ATOM      2  C   LIG    1       -2.016  -0.347   0.822  0.00  0.00    +0.007 C 
ATOM      3  C   LIG    1       -1.040  -1.329   1.449  0.00  0.00    +0.011 C 
ATOM      4  C   LIG    1        0.334  -0.769   1.486  0.00  0.00    +0.005 C 
ATOM      5  C   LIG    1        0.805  -0.303   0.147  0.00  0.00    -0.001 C 
ATOM      6  C   LIG    1        2.161   0.327   0.171  0.00  0.00    -0.024 C 
ATOM      7  C   LIG    1        3.099  -0.625   0.889  0.00  0.00    +0.029 C 
ATOM      8  C   LIG    1        4.561  -0.274   0.722  0.00  0.00    +0.098 C 
ATOM      9  C   LIG    1        4.884  -0.183  -0.728  0.00  0.00    +0.194 C 
ATOM     10  C   LIG    1        4.045   0.924  -1.361  0.00  0.00    +0.050 C 
ATOM     11  C   LIG    1        2.087   1.645   0.876  0.00  0.00    +0.012 C 
ATOM     12  C   LIG    1        2.613   0.446  -1.270  0.00  0.00    -0.001 C 
ATOM     13  C   LIG    1        1.674   1.179  -2.156  0.00  0.00    +0.004 C 
ATOM     14  C   LIG    1        0.304   0.527  -2.068  0.00  0.00    +0.004 C 
ATOM     15  C   LIG    1       -0.157   0.543  -0.608  0.00  0.00    -0.004 C 
ATOM     16  C   LIG    1       -3.344  -0.915   0.501  0.00  0.00    +0.170 C 
ATOM     17  C   LIG    1       -3.736  -0.451  -0.861  0.00  0.00    -0.023 C 
ATOM     18  C   LIG    1       -2.616   0.516  -1.266  0.00  0.00    -0.007 C 
ATOM     19  C   LIG    1       -1.481  -0.145  -0.581  0.00  0.00    +0.000 C 
ENDROOT
BRANCH  17  20
ATOM     20  N   LIG    1       -5.047   0.075  -1.012  0.00  0.00    +0.382 N 
ATOM     21  C   LIG    1       -5.439   1.077  -0.069  0.00  0.00    -0.091 C 
ATOM     22  C   LIG    1       -5.976  -1.047  -0.966  0.00  0.00    -0.075 C 
ATOM     23  C   LIG    1       -6.799  -1.156  -2.232  0.00  0.00    -0.018 C 
ATOM     24  C   LIG    1       -7.500   0.160  -2.534  0.00  0.00    -0.004 C 
ATOM     25  C   LIG    1       -6.408   1.174  -2.761  0.00  0.00    -0.018 C 
ATOM     26  C   LIG    1       -5.075   0.701  -2.325  0.00  0.00    -0.075 C 
ENDBRANCH  17  20
BRANCH   8  27
ATOM     27  N   LIG    1        4.968   0.807   1.526  0.00  0.00    -0.296 NA
ATOM     28  C   LIG    1        4.867   0.601   2.933  0.00  0.00    +0.085 C 
ATOM     29  C   LIG    1        5.550   1.771   3.654  0.00  0.00    +0.015 C 
ATOM     30  C   LIG    1        7.029   1.806   3.418  0.00  0.00    +0.002 C 
ATOM     31  C   LIG    1        7.313   1.193   2.065  0.00  0.00    +0.015 C 
ATOM     32  C   LIG    1        6.110   1.536   1.174  0.00  0.00    +0.085 C 
ENDBRANCH   8  27
BRANCH   9  33
ATOM     33  O   LIG    1        4.408  -1.395  -1.339  0.00  0.00    -0.460 OA
BRANCH  33  34
ATOM     34  C   LIG    1        5.222  -2.224  -2.079  0.00  0.00    +0.304 C 
ATOM     35  O   LIG    1        6.432  -1.898  -2.218  0.00  0.00    -0.251 OA
ATOM     36  C   LIG    1        4.730  -3.463  -2.702  0.00  0.00    +0.136 C 
ENDBRANCH  33  34
ENDBRANCH   9  33
BRANCH  16  37
ATOM     37  O   LIG    1       -4.324  -0.976   1.446  0.00  0.00    -0.463 OA
BRANCH  37  38
ATOM     38  C   LIG    1       -4.886  -1.999   2.095  0.00  0.00    +0.304 C 
ATOM     39  C   LIG    1       -5.942  -1.843   3.088  0.00  0.00    +0.136 C 
ATOM     40  O   LIG    1       -4.434  -3.099   1.782  0.00  0.00    -0.251 OA
ENDBRANCH  37  38
ENDBRANCH  16  37
TORSDOF 6
