REMARK  Name = molecules/BHXLLRXDAYEMPP-SBGRAJFYSA-N.pdb
REMARK                            x       y       z     vdW  Elec       q    Type
REMARK                         _______ _______ _______ _____ _____    ______ ____
ROOT
ATOM      1  CA  LIG    1        1.475  -1.955   1.067  0.00  0.00    +0.128 C 
ATOM      2  N   LIG    1        0.041  -2.002   0.875  0.00  0.00    -0.249 N 
ATOM      3  C   LIG    1       -1.257  -2.397   1.303  0.00  0.00    +0.244 C 
ATOM      4  O   LIG    1       -1.707  -3.050   2.284  0.00  0.00    -0.273 OA
ATOM      5  CA  LIG    1       -1.885  -1.741   0.142  0.00  0.00    +0.191 C 
ATOM      6  C   LIG    1       -0.515  -1.367  -0.304  0.00  0.00    +0.169 C 
ATOM      7  S   LIG    1       -0.095   0.393  -0.111  0.00  0.00    -0.131 S 
ATOM      8  C   LIG    1        1.678   0.371   0.180  0.00  0.00    +0.105 C 
ATOM      9  C   LIG    1        2.197  -0.888   0.772  0.00  0.00    -0.013 C 
ENDROOT
BRANCH   5  10
ATOM     10  N   LIG    1       -2.770  -0.629   0.486  0.00  0.00    -0.296 N 
ATOM     11  H   LIG    1       -2.360   0.069   1.091  0.00  0.00    +0.150 HD
ATOM     12  C   LIG    1       -4.063  -0.600  -0.013  0.00  0.00    +0.268 C 
ATOM     13  O   LIG    1       -4.319  -1.650  -0.775  0.00  0.00    -0.268 OA
BRANCH  12  14
ATOM     14  C   LIG    1       -5.154   0.288   0.105  0.00  0.00    +0.190 C 
ATOM     15  N   LIG    1       -6.268  -0.046  -0.545  0.00  0.00    -0.078 NA
BRANCH  14  16
ATOM     16  C   LIG    1       -5.243   1.568   0.869  0.00  0.00    +0.107 A 
ATOM     17  C   LIG    1       -4.217   2.118   1.590  0.00  0.00    +0.078 A 
ATOM     18  S   LIG    1       -4.961   3.565   2.207  0.00  0.00    -0.060 S 
ATOM     19  C   LIG    1       -6.492   3.367   1.516  0.00  0.00    +0.156 A 
ATOM     20  N   LIG    1       -6.368   2.245   0.869  0.00  0.00    -0.223 NA
BRANCH  19  21
ATOM     21  N   LIG    1       -7.635   4.245   1.633  0.00  0.00    -0.338 N 
ATOM     22  H   LIG    1       -7.779   4.652   2.588  0.00  0.00    +0.144 HD
ATOM     23  H   LIG    1       -8.252   4.443   0.821  0.00  0.00    +0.144 HD
ENDBRANCH  19  21
ENDBRANCH  14  16
BRANCH  15  24
ATOM     24  O   LIG    1       -6.375  -1.173  -1.289  0.00  0.00    -0.396 OA
ATOM     25  C   LIG    1       -7.378  -2.127  -1.032  0.00  0.00    +0.313 C 
ENDBRANCH  15  24
ENDBRANCH  12  14
ENDBRANCH   5  10
BRANCH   1  26
ATOM     26  C   LIG    1        2.038  -3.158   1.654  0.00  0.00    +0.401 C 
ATOM     27  OXT LIG    1        1.254  -4.125   1.974  0.00  0.00    -0.239 OA
ATOM     28  O   LIG    1        3.365  -3.425   1.928  0.00  0.00    -0.239 OA
ENDBRANCH   1  26
BRANCH   9  29
ATOM     29  C   LIG    1        3.634  -0.891   1.047  0.00  0.00    +0.157 C 
BRANCH  29  30
ATOM     30  N   LIG    1        4.530  -0.789  -0.079  0.00  0.00    -0.265 N 
ATOM     31  N   LIG    1        5.207   0.216  -0.582  0.00  0.00    -0.197 NA
ATOM     32  C   LIG    1        5.912  -0.204  -1.675  0.00  0.00    +0.144 C 
ATOM     33  C   LIG    1        5.654  -1.532  -1.848  0.00  0.00    +0.032 C 
ATOM     34  C   LIG    1        4.796  -1.894  -0.857  0.00  0.00    +0.087 C 
BRANCH  32  35
ATOM     35  N   LIG    1        6.759   0.629  -2.471  0.00  0.00    -0.305 NA
ATOM     36  H   LIG    1        7.494   1.190  -2.008  0.00  0.00    +0.120 HD
ATOM     37  H   LIG    1        6.648   0.677  -3.495  0.00  0.00    +0.120 HD
ENDBRANCH  32  35
BRANCH  31  38
ATOM     38  C   LIG    1        5.395   1.538  -0.043  0.00  0.00    +0.136 C 
BRANCH  38  39
ATOM     39  C   LIG    1        4.802   2.673  -0.778  0.00  0.00    +0.173 C 
BRANCH  39  40
ATOM     40  O   LIG    1        3.462   2.689  -0.954  0.00  0.00    -0.394 OA
ATOM     41  H   LIG    1        3.007   3.486  -0.568  0.00  0.00    +0.209 HD
ENDBRANCH  39  40
ENDBRANCH  38  39
ENDBRANCH  31  38
ENDBRANCH  29  30
ENDBRANCH   9  29
TORSDOF 12
