REMARK  Name = molecules/BIDNLKIUORFRQP-XYGFDPSESA-N.pdb
REMARK                            x       y       z     vdW  Elec       q    Type
REMARK                         _______ _______ _______ _____ _____    ______ ____
ROOT
ATOM      1  P   LIG    1       -1.739  -0.217   0.223  0.00  0.00    +0.216 P 
ATOM      2  O   LIG    1       -1.850   0.284   1.646  0.00  0.00    -0.290 OA
ENDROOT
BRANCH   1   3
ATOM      3  C   LIG    1       -0.024  -0.805   0.037  0.00  0.00    +0.193 C 
BRANCH   3   4
ATOM      4  C   LIG    1        0.904   0.318   0.215  0.00  0.00    +0.226 C 
ATOM      5  O   LIG    1        0.419   1.472   0.450  0.00  0.00    -0.275 OA
ATOM      6  N   LIG    1        2.299   0.153   0.130  0.00  0.00    -0.287 N 
ATOM      7  C   LIG    1        3.252   1.283   0.274  0.00  0.00    +0.112 C 
ATOM      8  C   LIG    1        4.533   0.739   0.764  0.00  0.00    +0.012 C 
ATOM      9  C   LIG    1        4.304  -0.717   0.847  0.00  0.00    +0.039 C 
ATOM     10  C   LIG    1        3.144  -0.985  -0.106  0.00  0.00    +0.185 C 
BRANCH   8  11
ATOM     11  C   LIG    1        5.764   1.141   0.016  0.00  0.00    -0.006 C 
ATOM     12  C   LIG    1        6.023   2.617  -0.027  0.00  0.00    +0.004 C 
ATOM     13  C   LIG    1        7.348   2.875  -0.705  0.00  0.00    +0.000 C 
ATOM     14  C   LIG    1        7.365   2.318  -2.091  0.00  0.00    +0.000 C 
ATOM     15  C   LIG    1        7.198   0.807  -1.981  0.00  0.00    +0.000 C 
ATOM     16  C   LIG    1        5.851   0.504  -1.355  0.00  0.00    +0.004 C 
ENDBRANCH   8  11
BRANCH  10  17
ATOM     17  C   LIG    1        2.526  -2.288   0.206  0.00  0.00    +0.325 C 
ATOM     18  O   LIG    1        2.099  -2.995  -0.732  0.00  0.00    -0.249 OA
BRANCH  17  19
ATOM     19  O   LIG    1        2.398  -2.773   1.512  0.00  0.00    -0.479 OA
ATOM     20  H   LIG    1        2.405  -3.788   1.649  0.00  0.00    +0.295 HD
ENDBRANCH  17  19
ENDBRANCH  10  17
ENDBRANCH   3   4
ENDBRANCH   1   3
BRANCH   1  21
ATOM     21  O   LIG    1       -2.829  -1.437  -0.051  0.00  0.00    -0.286 OA
BRANCH  21  22
ATOM     22  C   LIG    1       -2.591  -2.514   0.768  0.00  0.00    +0.319 C 
BRANCH  22  23
ATOM     23  C   LIG    1       -3.714  -2.658   1.797  0.00  0.00    +0.052 C 
ATOM     24  C   LIG    1       -3.399  -3.863   2.679  0.00  0.00    +0.013 C 
ATOM     25  C   LIG    1       -5.049  -2.862   1.148  0.00  0.00    +0.013 C 
ENDBRANCH  22  23
BRANCH  22  26
ATOM     26  O   LIG    1       -2.520  -3.713   0.041  0.00  0.00    -0.434 OA
BRANCH  26  27
ATOM     27  C   LIG    1       -1.446  -4.583   0.024  0.00  0.00    +0.309 C 
ATOM     28  O   LIG    1       -0.439  -4.314   0.701  0.00  0.00    -0.251 OA
BRANCH  27  29
ATOM     29  C   LIG    1       -1.459  -5.830  -0.782  0.00  0.00    +0.117 C 
ATOM     30  C   LIG    1       -0.161  -6.576  -0.627  0.00  0.00    +0.015 C 
ENDBRANCH  27  29
ENDBRANCH  26  27
ENDBRANCH  22  26
ENDBRANCH  21  22
ENDBRANCH   1  21
BRANCH   1  31
ATOM     31  C   LIG    1       -2.017   1.174  -0.887  0.00  0.00    +0.098 C 
BRANCH  31  32
ATOM     32  C   LIG    1       -2.842   2.217  -0.151  0.00  0.00    +0.010 C 
BRANCH  32  33
ATOM     33  C   LIG    1       -4.156   1.571   0.240  0.00  0.00    +0.005 C 
BRANCH  33  34
ATOM     34  C   LIG    1       -4.994   2.579   0.981  0.00  0.00    +0.035 C 
BRANCH  34  35
ATOM     35  C   LIG    1       -5.269   3.755   0.132  0.00  0.00    -0.047 A 
ATOM     36  C   LIG    1       -4.459   4.874   0.092  0.00  0.00    +0.003 A 
ATOM     37  C   LIG    1       -4.735   5.966  -0.701  0.00  0.00    +0.000 A 
ATOM     38  C   LIG    1       -5.862   5.963  -1.494  0.00  0.00    +0.000 A 
ATOM     39  C   LIG    1       -6.676   4.842  -1.456  0.00  0.00    +0.000 A 
ATOM     40  C   LIG    1       -6.409   3.760  -0.675  0.00  0.00    +0.003 A 
ENDBRANCH  34  35
ENDBRANCH  33  34
ENDBRANCH  32  33
ENDBRANCH  31  32
ENDBRANCH   1  31
TORSDOF 16
