REMARK  Name = molecules/BISFDZNIUZIKJD-XDANTLIUSA-N.pdb
REMARK                            x       y       z     vdW  Elec       q    Type
REMARK                         _______ _______ _______ _____ _____    ______ ____
ROOT
ATOM      1  C   LIG    1       -4.521   1.025  -1.021  0.00  0.00    +0.016 C 
ATOM      2  C   LIG    1       -4.394  -0.262  -0.180  0.00  0.00    -0.005 C 
ATOM      3  C   LIG    1       -4.892   0.108   1.155  0.00  0.00    -0.060 C 
ATOM      4  C   LIG    1       -4.215   1.204   1.883  0.00  0.00    +0.032 C 
ATOM      5  C   LIG    1       -2.753   1.270   1.669  0.00  0.00    +0.008 C 
ATOM      6  C   LIG    1       -2.261   0.742   0.340  0.00  0.00    -0.001 C 
ATOM      7  C   LIG    1       -0.808   0.526   0.486  0.00  0.00    +0.002 C 
ATOM      8  C   LIG    1        0.051   1.741   0.577  0.00  0.00    +0.008 C 
ATOM      9  C   LIG    1        1.434   1.149   0.403  0.00  0.00    +0.043 C 
ATOM     10  C   LIG    1        1.250  -0.248  -0.103  0.00  0.00    +0.130 C 
ATOM     11  C   LIG    1       -0.142  -0.199  -0.699  0.00  0.00    +0.009 C 
ATOM     12  C   LIG    1       -0.813  -1.536  -0.751  0.00  0.00    +0.041 C 
ATOM     13  C   LIG    1       -2.275  -1.318  -1.077  0.00  0.00    +0.119 C 
ATOM     14  C   LIG    1       -0.210   0.578  -1.949  0.00  0.00    +0.015 C 
ATOM     15  C   LIG    1       -5.912  -0.506   1.702  0.00  0.00    +0.046 C 
ATOM     16  C   LIG    1       -6.560  -1.571   0.965  0.00  0.00    +0.156 C 
ATOM     17  O   LIG    1       -7.050  -2.566   1.521  0.00  0.00    -0.293 OA
ATOM     18  C   LIG    1       -6.606  -1.403  -0.510  0.00  0.00    +0.080 C 
ATOM     19  C   LIG    1       -2.926  -0.568   0.023  0.00  0.00    +0.031 C 
ATOM     20  C   LIG    1       -5.126  -1.313  -0.911  0.00  0.00    +0.019 C 
ENDROOT
BRANCH  10  21
ATOM     21  O   LIG    1        1.081  -1.093   1.035  0.00  0.00    -0.380 OA
ATOM     22  H   LIG    1        1.381  -0.643   1.848  0.00  0.00    +0.211 HD
ENDBRANCH  10  21
BRANCH  10  23
ATOM     23  C   LIG    1        2.322  -0.761  -0.913  0.00  0.00    +0.175 C 
ATOM     24  O   LIG    1        2.665  -1.946  -0.731  0.00  0.00    -0.293 OA
BRANCH  23  25
ATOM     25  C   LIG    1        3.122  -0.085  -1.960  0.00  0.00    +0.154 C 
BRANCH  25  26
ATOM     26  S   LIG    1        4.877  -0.436  -1.689  0.00  0.00    -0.080 S 
BRANCH  26  27
ATOM     27  C   LIG    1        5.526   0.300  -0.206  0.00  0.00    +0.195 C 
ATOM     28  O   LIG    1        4.816   0.938   0.536  0.00  0.00    -0.285 OA
BRANCH  27  29
ATOM     29  C   LIG    1        6.962   0.121   0.117  0.00  0.00    +0.031 C 
ATOM     30  C   LIG    1        7.311   0.993   1.303  0.00  0.00    +0.019 C 
ATOM     31  C   LIG    1        7.229  -1.314   0.453  0.00  0.00    +0.019 C 
ATOM     32  C   LIG    1        7.738   0.561  -1.117  0.00  0.00    +0.019 C 
ENDBRANCH  27  29
ENDBRANCH  26  27
ENDBRANCH  25  26
ENDBRANCH  23  25
ENDBRANCH  10  23
BRANCH  13  33
ATOM     33  O   LIG    1       -2.461  -0.832  -2.345  0.00  0.00    -0.391 OA
ATOM     34  H   LIG    1       -2.789  -1.513  -2.977  0.00  0.00    +0.210 HD
ENDBRANCH  13  33
TORSDOF 7
