REMARK  Name = molecules/BJOLKYGKSZKIGU-UHFFFAOYSA-N.pdb
REMARK                            x       y       z     vdW  Elec       q    Type
REMARK                         _______ _______ _______ _____ _____    ______ ____
ROOT
ATOM      1  P   LIG    1        2.050  -0.362   1.068  0.00  0.00    +0.391 P 
ATOM      2  O   LIG    1        2.050  -0.438   2.587  0.00  0.00    -0.246 OA
ENDROOT
BRANCH   1   3
ATOM      3  O   LIG    1        2.058   1.235   0.523  0.00  0.00    -0.300 OA
BRANCH   3   4
ATOM      4  C   LIG    1        3.263   1.493  -0.147  0.00  0.00    +0.167 C 
ATOM      5  C   LIG    1        3.954   2.591   0.653  0.00  0.00    +0.035 C 
ENDBRANCH   3   4
ENDBRANCH   1   3
BRANCH   1   6
ATOM      6  O   LIG    1        3.345  -1.213   0.421  0.00  0.00    -0.300 OA
BRANCH   6   7
ATOM      7  C   LIG    1        2.955  -2.004  -0.662  0.00  0.00    +0.167 C 
ATOM      8  C   LIG    1        3.924  -1.902  -1.814  0.00  0.00    +0.035 C 
ENDBRANCH   6   7
ENDBRANCH   1   6
BRANCH   1   9
ATOM      9  S   LIG    1        0.270  -1.275   0.405  0.00  0.00    -0.043 S 
BRANCH   9  10
ATOM     10  C   LIG    1       -1.202  -0.408   1.044  0.00  0.00    +0.063 C 
BRANCH  10  11
ATOM     11  C   LIG    1       -2.373  -0.895   0.240  0.00  0.00    -0.065 C 
BRANCH  11  12
ATOM     12  N   LIG    1       -3.403   0.092   0.051  0.00  0.00    +0.375 N 
ATOM     13  C   LIG    1       -3.695   0.857   1.234  0.00  0.00    -0.093 C 
ATOM     14  C   LIG    1       -4.580  -0.640  -0.415  0.00  0.00    -0.093 C 
ATOM     15  C   LIG    1       -3.072   1.046  -1.004  0.00  0.00    -0.093 C 
ENDBRANCH  11  12
ENDBRANCH  10  11
ENDBRANCH   9  10
ENDBRANCH   1   9
TORSDOF 8
