REMARK  Name = molecules/BJRNKVDFDLYUGJ-RMPHRYRLSA-N.pdb
REMARK                            x       y       z     vdW  Elec       q    Type
REMARK                         _______ _______ _______ _____ _____    ______ ____
ROOT
ATOM      1  C   LIG    1       -0.313  -0.356  -0.106  0.00  0.00    +0.339 C 
ATOM      2  O   LIG    1       -1.203  -0.374   0.992  0.00  0.00    -0.331 OA
ATOM      3  C   LIG    1       -2.012   0.749   0.852  0.00  0.00    +0.179 C 
ATOM      4  C   LIG    1       -2.581   0.818  -0.538  0.00  0.00    +0.177 C 
ATOM      5  C   LIG    1       -2.489  -0.490  -1.259  0.00  0.00    +0.180 C 
ATOM      6  C   LIG    1       -1.043  -0.926  -1.324  0.00  0.00    +0.214 C 
ENDROOT
BRANCH   5   7
ATOM      7  O   LIG    1       -3.163  -1.480  -0.515  0.00  0.00    -0.386 OA
ATOM      8  H   LIG    1       -3.486  -2.131  -1.208  0.00  0.00    +0.210 HD
ENDBRANCH   5   7
BRANCH   4   9
ATOM      9  O   LIG    1       -1.924   1.798  -1.289  0.00  0.00    -0.386 OA
ATOM     10  H   LIG    1       -2.309   2.680  -1.064  0.00  0.00    +0.210 HD
ENDBRANCH   4   9
BRANCH   6  11
ATOM     11  O   LIG    1       -0.481  -0.475  -2.511  0.00  0.00    -0.383 OA
ATOM     12  H   LIG    1       -0.454   0.499  -2.561  0.00  0.00    +0.210 HD
ENDBRANCH   6  11
BRANCH   1  13
ATOM     13  O   LIG    1        0.827  -1.130   0.151  0.00  0.00    -0.461 OA
BRANCH  13  14
ATOM     14  C   LIG    1        2.133  -0.695   0.151  0.00  0.00    +0.124 A 
ATOM     15  C   LIG    1        3.107  -1.641   0.433  0.00  0.00    +0.049 A 
ATOM     16  C   LIG    1        4.453  -1.327   0.463  0.00  0.00    +0.049 A 
ATOM     17  C   LIG    1        4.858  -0.051   0.210  0.00  0.00    +0.117 A 
ATOM     18  C   LIG    1        3.908   0.912  -0.074  0.00  0.00    +0.049 A 
ATOM     19  C   LIG    1        2.549   0.583  -0.102  0.00  0.00    +0.049 A 
BRANCH  17  20
ATOM     20  O   LIG    1        6.217   0.275   0.239  0.00  0.00    -0.507 OA
ATOM     21  H   LIG    1        6.642   0.580   1.098  0.00  0.00    +0.292 HD
ENDBRANCH  17  20
ENDBRANCH  13  14
ENDBRANCH   1  13
BRANCH   3  22
ATOM     22  C   LIG    1       -3.129   0.776   1.868  0.00  0.00    +0.190 C 
BRANCH  22  23
ATOM     23  O   LIG    1       -3.929  -0.332   1.730  0.00  0.00    -0.392 OA
ATOM     24  H   LIG    1       -4.697  -0.297   2.348  0.00  0.00    +0.210 HD
ENDBRANCH  22  23
ENDBRANCH   3  22
TORSDOF 8
