REMARK  Name = molecules/BJVVMKUXKQHWJK-SSDOTTSWSA-N.pdb
REMARK                            x       y       z     vdW  Elec       q    Type
REMARK                         _______ _______ _______ _____ _____    ______ ____
ROOT
ATOM      1  C   LIG    1        0.195   0.283   0.283  0.00  0.00    +0.129 C 
ATOM      2  C   LIG    1       -0.441   1.327   1.161  0.00  0.00    +0.236 C 
ATOM      3  O   LIG    1       -0.773   0.978   2.319  0.00  0.00    -0.274 OA
ATOM      4  N   LIG    1       -0.683   2.655   0.779  0.00  0.00    -0.239 N 
ATOM      5  H   LIG    1       -0.955   3.401   1.487  0.00  0.00    +0.159 HD
ATOM      6  C   LIG    1       -0.561   3.001  -0.591  0.00  0.00    +0.312 C 
ATOM      7  O   LIG    1       -0.780   4.189  -0.920  0.00  0.00    -0.252 OA
ATOM      8  N   LIG    1       -0.199   1.982  -1.509  0.00  0.00    -0.239 N 
ATOM      9  H   LIG    1       -0.119   2.290  -2.522  0.00  0.00    +0.159 HD
ATOM     10  C   LIG    1        0.045   0.646  -1.126  0.00  0.00    +0.236 C 
ATOM     11  O   LIG    1        0.126  -0.209  -2.043  0.00  0.00    -0.274 OA
ENDROOT
BRANCH   1  12
ATOM     12  C   LIG    1       -0.408  -1.032   0.646  0.00  0.00    +0.010 C 
ATOM     13  C   LIG    1        0.376  -2.240   0.177  0.00  0.00    +0.009 C 
BRANCH  12  14
ATOM     14  C   LIG    1       -1.826  -1.269   0.268  0.00  0.00    +0.001 C 
ATOM     15  C   LIG    1       -2.845  -0.249   0.605  0.00  0.00    +0.004 C 
ENDBRANCH  12  14
ENDBRANCH   1  12
BRANCH   1  16
ATOM     16  C   LIG    1        1.660   0.440   0.649  0.00  0.00    +0.052 C 
BRANCH  16  17
ATOM     17  C   LIG    1        2.598  -0.477   0.048  0.00  0.00    -0.033 C 
ATOM     18  C   LIG    1        3.373  -1.263   0.779  0.00  0.00    +0.004 C 
ENDBRANCH  16  17
ENDBRANCH   1  16
TORSDOF 4
