REMARK  Name = molecules/BJYLYJCXYAMOFT-RSFVBTMBSA-N.pdb
REMARK                            x       y       z     vdW  Elec       q    Type
REMARK                         _______ _______ _______ _____ _____    ______ ____
ROOT
ATOM      1  C   LIG    1        0.010  -0.332   0.912  0.00  0.00    +0.012 C 
ATOM      2  C   LIG    1        0.643   0.085  -0.391  0.00  0.00    -0.022 C 
ATOM      3  C   LIG    1        0.982   1.530  -0.351  0.00  0.00    +0.008 C 
ATOM      4  C   LIG    1       -0.053   2.464  -0.919  0.00  0.00    +0.005 C 
ATOM      5  C   LIG    1       -1.466   2.037  -0.598  0.00  0.00    +0.031 C 
ATOM      6  C   LIG    1       -1.653   0.607  -0.961  0.00  0.00    -0.066 C 
ATOM      7  C   LIG    1       -2.864   0.108  -0.823  0.00  0.00    -0.000 C 
ATOM      8  C   LIG    1        1.647  -0.840  -0.918  0.00  0.00    -0.002 C 
ATOM      9  C   LIG    1        0.884  -2.041  -1.353  0.00  0.00    +0.005 C 
ATOM     10  C   LIG    1       -0.572  -1.573  -1.514  0.00  0.00    +0.009 C 
ATOM     11  C   LIG    1       -0.460  -0.089  -1.454  0.00  0.00    +0.021 C 
ENDROOT
BRANCH   7  12
ATOM     12  C   LIG    1       -3.974   0.896  -0.321  0.00  0.00    +0.004 C 
ATOM     13  C   LIG    1       -5.211   0.432  -0.217  0.00  0.00    -0.040 C 
ATOM     14  C   LIG    1       -6.356   1.204   0.333  0.00  0.00    +0.067 C 
ATOM     15  C   LIG    1       -7.346   0.270   0.984  0.00  0.00    +0.122 C 
ATOM     16  C   LIG    1       -6.700  -1.023   1.425  0.00  0.00    +0.067 C 
ATOM     17  C   LIG    1       -6.222  -1.843   0.251  0.00  0.00    +0.147 C 
ATOM     18  C   LIG    1       -5.465  -0.951  -0.651  0.00  0.00    -0.023 C 
ATOM     19  C   LIG    1       -5.016  -1.284  -1.853  0.00  0.00    +0.015 C 
BRANCH  17  20
ATOM     20  O   LIG    1       -5.484  -2.914   0.718  0.00  0.00    -0.387 OA
ATOM     21  H   LIG    1       -5.870  -3.208   1.577  0.00  0.00    +0.210 HD
ENDBRANCH  17  20
BRANCH  15  22
ATOM     22  O   LIG    1       -8.454   0.041   0.165  0.00  0.00    -0.391 OA
ATOM     23  H   LIG    1       -9.279   0.466   0.508  0.00  0.00    +0.210 HD
ENDBRANCH  15  22
ENDBRANCH   7  12
BRANCH   8  24
ATOM     24  C   LIG    1        2.852  -1.184  -0.142  0.00  0.00    -0.010 C 
ATOM     25  C   LIG    1        2.644  -1.966   1.099  0.00  0.00    +0.008 C 
BRANCH  24  26
ATOM     26  C   LIG    1        3.728   0.025   0.182  0.00  0.00    +0.006 C 
BRANCH  26  27
ATOM     27  C   LIG    1        4.914  -0.476   0.955  0.00  0.00    +0.032 C 
BRANCH  27  28
ATOM     28  C   LIG    1        5.900   0.536   1.396  0.00  0.00    +0.117 C 
BRANCH  28  29
ATOM     29  C   LIG    1        6.590   1.352   0.375  0.00  0.00    +0.011 C 
ATOM     30  C   LIG    1        5.735   2.353  -0.328  0.00  0.00    +0.010 C 
ATOM     31  C   LIG    1        7.375   0.551  -0.641  0.00  0.00    +0.010 C 
ENDBRANCH  28  29
BRANCH  28  32
ATOM     32  O   LIG    1        6.876  -0.051   2.239  0.00  0.00    -0.392 OA
ATOM     33  H   LIG    1        7.770   0.040   1.871  0.00  0.00    +0.210 HD
ENDBRANCH  28  32
ENDBRANCH  27  28
ENDBRANCH  26  27
ENDBRANCH  24  26
ENDBRANCH   8  24
TORSDOF 9
