REMARK  Name = molecules/BKYKPTRYDKTTJY-ZDUSSCGKSA-N.pdb
REMARK                            x       y       z     vdW  Elec       q    Type
REMARK                         _______ _______ _______ _____ _____    ______ ____
ROOT
ATOM      1  O   LIG    1       -1.361   3.215  -1.039  0.00  0.00    -0.153 OA
ATOM      2  S   LIG    1       -0.556   2.021  -0.625  0.00  0.00    +0.062 S 
ATOM      3  O   LIG    1        0.153   2.367   0.647  0.00  0.00    -0.153 OA
ATOM      4  C   LIG    1       -1.676   0.714  -0.302  0.00  0.00    +0.128 A 
ATOM      5  C   LIG    1       -2.941   0.935   0.190  0.00  0.00    +0.060 A 
ATOM      6  C   LIG    1       -3.803  -0.112   0.435  0.00  0.00    +0.125 A 
ATOM      7  C   LIG    1       -3.348  -1.387   0.169  0.00  0.00    +0.069 A 
ATOM      8 CL   LIG    1       -4.445  -2.722   0.482  0.00  0.00    -0.081 Cl
ATOM      9  C   LIG    1       -2.078  -1.607  -0.324  0.00  0.00    +0.047 A 
ATOM     10  C   LIG    1       -1.206  -0.553  -0.573  0.00  0.00    +0.056 A 
ATOM     11  N   LIG    1        0.104  -0.765  -1.085  0.00  0.00    -0.326 N 
ATOM     12  H   LIG    1        0.524  -1.708  -0.876  0.00  0.00    +0.148 HD
ATOM     13  C   LIG    1        0.864   0.152  -1.838  0.00  0.00    +0.160 C 
ATOM     14  N   LIG    1        0.558   1.524  -1.818  0.00  0.00    -0.170 NA
ATOM     15  H   LIG    1        0.389   1.924  -2.763  0.00  0.00    +0.150 HD
ENDROOT
BRANCH   6  16
ATOM     16  S   LIG    1       -5.425   0.162   1.066  0.00  0.00    +0.057 S 
ATOM     17  O   LIG    1       -5.565   1.632   1.339  0.00  0.00    -0.153 OA
ATOM     18  O   LIG    1       -6.473  -0.237   0.089  0.00  0.00    -0.153 OA
BRANCH  16  19
ATOM     19  N   LIG    1       -5.609  -0.651   2.590  0.00  0.00    -0.203 NA
ATOM     20  H   LIG    1       -6.567  -1.025   2.639  0.00  0.00    +0.144 HD
ATOM     21  H   LIG    1       -4.871  -1.383   2.617  0.00  0.00    +0.144 HD
ENDBRANCH  16  19
ENDBRANCH   6  16
BRANCH  13  22
ATOM     22  C   LIG    1        2.342  -0.014  -1.611  0.00  0.00    +0.043 C 
BRANCH  22  23
ATOM     23  C   LIG    1        2.861   0.565  -0.332  0.00  0.00    -0.008 C 
ATOM     24  C   LIG    1        2.329  -0.028   0.929  0.00  0.00    +0.003 C 
ATOM     25  C   LIG    1        3.192  -1.272   1.076  0.00  0.00    +0.000 C 
ATOM     26  C   LIG    1        4.559  -0.739   0.782  0.00  0.00    +0.000 C 
ATOM     27  C   LIG    1        4.378   0.335  -0.236  0.00  0.00    +0.003 C 
ENDBRANCH  22  23
ENDBRANCH  13  22
TORSDOF 4
