REMARK  Name = molecules/BLCLNMBMMGCOAS-URPVMXJPSA-N.pdb
REMARK                            x       y       z     vdW  Elec       q    Type
REMARK                         _______ _______ _______ _____ _____    ______ ____
ROOT
ATOM      1  C   LIG    1        7.645  13.996   0.000  0.00  0.00    +0.025 C 
ATOM      2  C   LIG    1        9.112  14.307   0.000  0.00  0.00    +0.011 C 
ATOM      3  C   LIG    1       10.227  13.304   0.000  0.00  0.00    +0.252 C 
ATOM      4  N   LIG    1       11.526  14.054   0.000  0.00  0.00    -0.215 NA
ATOM      5  C   LIG    1       11.214  15.521   0.000  0.00  0.00    +0.058 A 
ATOM      6  C   LIG    1       12.096  16.735   0.000  0.00  0.00    +0.025 A 
ATOM      7  C   LIG    1       11.486  18.105   0.000  0.00  0.00    +0.002 A 
ATOM      8  C   LIG    1        9.994  18.262   0.000  0.00  0.00    +0.001 A 
ATOM      9  C   LIG    1        9.112  17.048   0.000  0.00  0.00    +0.010 A 
ATOM     10  C   LIG    1        9.723  15.678   0.000  0.00  0.00    +0.005 A 
ENDROOT
BRANCH   1  11
ATOM     11  C   LIG    1        6.178  13.684   0.000  0.00  0.00    +0.079 C 
ATOM     12  N   LIG    1        6.490  12.216   0.000  0.00  0.00    -0.383 N 
ATOM     13  C   LIG    1        7.916  11.753   0.000  0.00  0.00    +0.127 C 
ATOM     14  H   LIG    1        6.449  11.065   0.000  0.00  0.00    +0.160 HD
ENDBRANCH   1  11
BRANCH   3  15
ATOM     15  O   LIG    1        9.031  12.757   0.000  0.00  0.00    -0.369 OA
ATOM     16  H   LIG    1        8.303  12.647   0.000  0.00  0.00    +0.212 HD
ENDBRANCH   3  15
TORSDOF 2
REMARK  Name = molecules/BLCLNMBMMGCOAS-URPVMXJPSA-N.pdb
REMARK                            x       y       z     vdW  Elec       q    Type
REMARK                         _______ _______ _______ _____ _____    ______ ____
ROOT
ATOM      1  C   LIG    1        4.711  13.372   0.000  0.00  0.00    -0.000 C 
ENDROOT
TORSDOF 0
REMARK  Name = molecules/BLCLNMBMMGCOAS-URPVMXJPSA-N.pdb
REMARK                            x       y       z     vdW  Elec       q    Type
REMARK                         _______ _______ _______ _____ _____    ______ ____
ROOT
ATOM      1  C   LIG    1        3.629  10.066   0.000  0.00  0.00    +0.222 C 
ENDROOT
BRANCH   1   2
ATOM      2  O   LIG    1        4.519   9.703   0.000  0.00  0.00    -0.327 OA
BRANCH   2   3
ATOM      3  C   LIG    1        5.000  10.677   0.000  0.00  0.00    +0.247 C 
BRANCH   3   4
ATOM      4  N   LIG    1        4.247  11.945   0.000  0.00  0.00    -0.224 NA
ATOM      5  H   LIG    1        3.708  11.565   0.000  0.00  0.00    +0.143 HD
ENDBRANCH   3   4
ENDBRANCH   2   3
ENDBRANCH   1   2
BRANCH   1   6
ATOM      6  N   LIG    1        3.786   8.575   0.000  0.00  0.00    -0.229 NA
BRANCH   6   7
ATOM      7  C   LIG    1        2.671   7.571   0.000  0.00  0.00    +0.260 C 
ATOM      8  O   LIG    1        3.160   6.153   0.000  0.00  0.00    -0.200 OA
ENDBRANCH   6   7
BRANCH   6   9
ATOM      9  C   LIG    1        5.253   8.263   0.000  0.00  0.00    +0.094 C 
ATOM     10  C   LIG    1        6.003   9.562   0.000  0.00  0.00    +0.012 C 
ENDBRANCH   6   9
ENDBRANCH   1   6
TORSDOF 6
REMARK  Name = molecules/BLCLNMBMMGCOAS-URPVMXJPSA-N.pdb
REMARK                            x       y       z     vdW  Elec       q    Type
REMARK                         _______ _______ _______ _____ _____    ______ ____
ROOT
ATOM      1  C   LIG    1        2.405  15.332   0.000  0.00  0.00    +0.347 C 
ATOM      2  O   LIG    1        2.868  16.759   0.000  0.00  0.00    -0.247 OA
ENDROOT
BRANCH   1   3
ATOM      3  O   LIG    1        2.156  14.568   0.000  0.00  0.00    -0.443 OA
ATOM      4  C   LIG    1        0.938  15.021   0.000  0.00  0.00    +0.256 C 
ENDBRANCH   1   3
BRANCH   1   5
ATOM      5  C   LIG    1        3.408  14.218   0.000  0.00  0.00    +0.248 C 
BRANCH   5   6
ATOM      6  O   LIG    1        4.007  14.696   0.000  0.00  0.00    -0.372 OA
ATOM      7  H   LIG    1        4.876  14.530   0.000  0.00  0.00    +0.211 HD
ENDBRANCH   5   6
ENDBRANCH   1   5
TORSDOF 3
REMARK  Name = molecules/BLCLNMBMMGCOAS-URPVMXJPSA-N.pdb
REMARK                            x       y       z     vdW  Elec       q    Type
REMARK                         _______ _______ _______ _____ _____    ______ ____
ROOT
ATOM      1  C   LIG    1        8.228  10.286   0.000  0.00  0.00    +0.000 C 
ENDROOT
TORSDOF 0
REMARK  Name = molecules/BLCLNMBMMGCOAS-URPVMXJPSA-N.pdb
REMARK                            x       y       z     vdW  Elec       q    Type
REMARK                         _______ _______ _______ _____ _____    ______ ____
ROOT
ATOM      1  C   LIG    1        2.780  11.633   0.000  0.00  0.00    +0.000 C 
ENDROOT
TORSDOF 0
REMARK  Name = molecules/BLCLNMBMMGCOAS-URPVMXJPSA-N.pdb
REMARK                            x       y       z     vdW  Elec       q    Type
REMARK                         _______ _______ _______ _____ _____    ______ ____
ROOT
ATOM      1  C   LIG    1        8.540   8.819   0.000  0.00  0.00    +0.000 C 
ENDROOT
TORSDOF 0
REMARK  Name = molecules/BLCLNMBMMGCOAS-URPVMXJPSA-N.pdb
REMARK                            x       y       z     vdW  Elec       q    Type
REMARK                         _______ _______ _______ _____ _____    ______ ____
ROOT
ATOM      1  N   LIG    1        9.695  10.598   0.000  0.00  0.00    -0.163 NA
ATOM      2  H   LIG    1       10.253  11.804   0.000  0.00  0.00    +0.163 HD
ENDROOT
TORSDOF 0
REMARK  Name = molecules/BLCLNMBMMGCOAS-URPVMXJPSA-N.pdb
REMARK                            x       y       z     vdW  Elec       q    Type
REMARK                         _______ _______ _______ _____ _____    ______ ____
ROOT
ATOM      1  C   LIG    1        3.092  10.166   0.000  0.00  0.00    +0.000 C 
ATOM      2  C   LIG    1        2.162   9.755   0.000  0.00  0.00    +0.000 C 
ENDROOT
TORSDOF 0
REMARK  Name = molecules/BLCLNMBMMGCOAS-URPVMXJPSA-N.pdb
REMARK                            x       y       z     vdW  Elec       q    Type
REMARK                         _______ _______ _______ _____ _____    ______ ____
ROOT
ATOM      1  C   LIG    1        2.468  13.101   0.000  0.00  0.00    +0.000 C 
ENDROOT
TORSDOF 0
REMARK  Name = molecules/BLCLNMBMMGCOAS-URPVMXJPSA-N.pdb
REMARK                            x       y       z     vdW  Elec       q    Type
REMARK                         _______ _______ _______ _____ _____    ______ ____
ROOT
ATOM      1  C   LIG    1        8.852   7.351   0.000  0.00  0.00    +0.119 C 
ATOM      2  N   LIG    1        7.848   6.237   0.000  0.00  0.00    -0.234 NA
ATOM      3  C   LIG    1        8.598   4.938   0.000  0.00  0.00    +0.219 C 
ATOM      4  N   LIG    1       10.066   5.249   0.000  0.00  0.00    -0.236 NA
ATOM      5  C   LIG    1       10.222   6.741   0.000  0.00  0.00    +0.285 C 
ENDROOT
BRANCH   5   6
ATOM      6  O   LIG    1       10.236   8.056   0.000  0.00  0.00    -0.366 OA
ATOM      7  H   LIG    1       10.039   8.766   0.000  0.00  0.00    +0.212 HD
ENDBRANCH   5   6
TORSDOF 1
REMARK  Name = molecules/BLCLNMBMMGCOAS-URPVMXJPSA-N.pdb
REMARK                            x       y       z     vdW  Elec       q    Type
REMARK                         _______ _______ _______ _____ _____    ______ ____
ROOT
ATOM      1  C   LIG    1       10.699   9.483   0.000  0.00  0.00    +0.015 C 
ATOM      2  C   LIG    1       12.166   9.795   0.000  0.00  0.00    +0.081 C 
ATOM      3  N   LIG    1       12.323   8.303   0.000  0.00  0.00    -0.312 N 
ATOM      4  C   LIG    1       13.790   7.991   0.000  0.00  0.00    +0.213 C 
ATOM      5  O   LIG    1       14.401   6.621   0.000  0.00  0.00    -0.276 OA
ATOM      6  C   LIG    1       14.540   9.290   0.000  0.00  0.00    +0.097 C 
ATOM      7  H   LIG    1       11.603   7.327   0.000  0.00  0.00    +0.149 HD
ATOM      8  C   LIG    1       13.537  10.405   0.000  0.00  0.00    +0.032 C 
ENDROOT
TORSDOF 0
REMARK  Name = molecules/BLCLNMBMMGCOAS-URPVMXJPSA-N.pdb
REMARK                            x       y       z     vdW  Elec       q    Type
REMARK                         _______ _______ _______ _____ _____    ______ ____
ROOT
ATOM      1  N   LIG    1        1.977   9.162   0.000  0.00  0.00    +0.000 NA
ENDROOT
TORSDOF 0
REMARK  Name = molecules/BLCLNMBMMGCOAS-URPVMXJPSA-N.pdb
REMARK                            x       y       z     vdW  Elec       q    Type
REMARK                         _______ _______ _______ _____ _____    ______ ____
ROOT
ATOM      1  C   LIG    1        0.551   9.626   0.000  0.00  0.00    -0.000 C 
ENDROOT
TORSDOF 0
REMARK  Name = molecules/BLCLNMBMMGCOAS-URPVMXJPSA-N.pdb
REMARK                            x       y       z     vdW  Elec       q    Type
REMARK                         _______ _______ _______ _____ _____    ______ ____
ROOT
ATOM      1  C   LIG    1        1.014  11.053   0.000  0.00  0.00    +0.000 C 
ENDROOT
TORSDOF 0
REMARK  Name = molecules/BLCLNMBMMGCOAS-URPVMXJPSA-N.pdb
REMARK                            x       y       z     vdW  Elec       q    Type
REMARK                         _______ _______ _______ _____ _____    ______ ____
ROOT
ATOM      1  C   LIG    1        0.087   8.199   0.000  0.00  0.00    +0.279 C 
ATOM      2  O   LIG    1        0.567   7.130   0.000  0.00  0.00    -0.279 OA
ENDROOT
TORSDOF 0
REMARK  Name = molecules/BLCLNMBMMGCOAS-URPVMXJPSA-N.pdb
REMARK                            x       y       z     vdW  Elec       q    Type
REMARK                         _______ _______ _______ _____ _____    ______ ____
ROOT
ATOM      1  C   LIG    1        1.478  12.479   0.000  0.00  0.00    -0.000 C 
ENDROOT
TORSDOF 0
REMARK  Name = molecules/BLCLNMBMMGCOAS-URPVMXJPSA-N.pdb
REMARK                            x       y       z     vdW  Elec       q    Type
REMARK                         _______ _______ _______ _____ _____    ______ ____
ROOT
ATOM      1  N   LIG    1       -1.380   7.888   0.000  0.00  0.00    +0.380 N 
ATOM      2  C   LIG    1       -1.609   8.962   0.000  0.00  0.00    -0.103 C 
ATOM      3  C   LIG    1       -0.182   8.498   0.000  0.00  0.00    -0.106 C 
ATOM      4  H   LIG    1       -2.403   7.690   0.000  0.00  0.00    -0.085 HD
ATOM      5  H   LIG    1       -0.816   7.139   0.000  0.00  0.00    -0.085 HD
ENDROOT
TORSDOF 0
REMARK  Name = molecules/BLCLNMBMMGCOAS-URPVMXJPSA-N.pdb
REMARK                            x       y       z     vdW  Elec       q    Type
REMARK                         _______ _______ _______ _____ _____    ______ ____
ROOT
ATOM      1  O   LIG    1        0.947   6.971   0.000  0.00  0.00    -0.238 OA
ATOM      2  C   LIG    1        1.245   8.035   0.000  0.00  0.00    +0.415 C 
ENDROOT
BRANCH   2   3
ATOM      3  O   LIG    1        1.876   8.282   0.000  0.00  0.00    -0.473 OA
ATOM      4  H   LIG    1        2.466   7.744   0.000  0.00  0.00    +0.296 HD
ENDBRANCH   2   3
TORSDOF 1
REMARK  Name = molecules/BLCLNMBMMGCOAS-URPVMXJPSA-N.pdb
REMARK                            x       y       z     vdW  Elec       q    Type
REMARK                         _______ _______ _______ _____ _____    ______ ____
ROOT
ATOM      1  C   LIG    1        0.474  13.594   0.000  0.00  0.00    +0.000 C 
ENDROOT
TORSDOF 0
REMARK  Name = molecules/BLCLNMBMMGCOAS-URPVMXJPSA-N.pdb
REMARK                            x       y       z     vdW  Elec       q    Type
REMARK                         _______ _______ _______ _____ _____    ______ ____
ROOT
ATOM      1  C   LIG    1        2.945  12.791   0.000  0.00  0.00    +0.000 C 
ENDROOT
TORSDOF 0
REMARK  Name = molecules/BLCLNMBMMGCOAS-URPVMXJPSA-N.pdb
REMARK                            x       y       z     vdW  Elec       q    Type
REMARK                         _______ _______ _______ _____ _____    ______ ____
ROOT
ATOM      1  C   LIG    1       -1.844   6.461   0.000  0.00  0.00    +0.000 C 
ENDROOT
TORSDOF 0
REMARK  Name = molecules/BLCLNMBMMGCOAS-URPVMXJPSA-N.pdb
REMARK                            x       y       z     vdW  Elec       q    Type
REMARK                         _______ _______ _______ _____ _____    ______ ____
ROOT
ATOM      1  C   LIG    1       -0.417   5.997   0.000  0.00  0.00    +0.170 C 
ATOM      2  N   LIG    1        0.781   6.608   0.000  0.00  0.00    -0.159 NA
ATOM      3  C   LIG    1        1.785   5.493   0.000  0.00  0.00    +0.260 C 
ATOM      4  C   LIG    1        1.321   4.067   0.000  0.00  0.00    +0.184 C 
ATOM      5  O   LIG    1        3.279   5.624   0.000  0.00  0.00    -0.272 OA
ATOM      6  N   LIG    1       -0.105   4.530   0.000  0.00  0.00    -0.219 NA
ENDROOT
BRANCH   4   7
ATOM      7  C   LIG    1        0.858   2.640   0.000  0.00  0.00    +0.037 C 
BRANCH   7   8
ATOM      8  C   LIG    1        0.394   1.214   0.000  0.00  0.00    -0.012 C 
ATOM      9  C   LIG    1       -1.032   1.677   0.000  0.00  0.00    +0.003 C 
ATOM     10  C   LIG    1       -0.069  -0.213   0.000  0.00  0.00    +0.007 C 
ENDBRANCH   7   8
ENDBRANCH   4   7
TORSDOF 2
REMARK  Name = molecules/BLCLNMBMMGCOAS-URPVMXJPSA-N.pdb
REMARK                            x       y       z     vdW  Elec       q    Type
REMARK                         _______ _______ _______ _____ _____    ______ ____
ROOT
ATOM      1  C   LIG    1       -3.270   6.925   0.000  0.00  0.00    +0.000 C 
ENDROOT
TORSDOF 0
REMARK  Name = molecules/BLCLNMBMMGCOAS-URPVMXJPSA-N.pdb
REMARK                            x       y       z     vdW  Elec       q    Type
REMARK                         _______ _______ _______ _____ _____    ______ ____
ROOT
ATOM      1  O   HOH    1       -4.697   7.388   0.000  0.00  0.00    -0.253 OA
ATOM      2  H   HOH    0       -3.499   7.999   0.000  0.00  0.00    +0.253 HD
ENDROOT
TORSDOF 0
REMARK  Name = molecules/BLCLNMBMMGCOAS-URPVMXJPSA-N.pdb
REMARK                            x       y       z     vdW  Elec       q    Type
REMARK                         _______ _______ _______ _____ _____    ______ ____
ROOT
ATOM      1  C   LIG    1       -5.009   8.855   0.000  0.00  0.00    +0.000 C 
ENDROOT
TORSDOF 0
REMARK  Name = molecules/BLCLNMBMMGCOAS-URPVMXJPSA-N.pdb
REMARK                            x       y       z     vdW  Elec       q    Type
REMARK                         _______ _______ _______ _____ _____    ______ ____
ROOT
ATOM      1  C   LIG    1       -6.476   8.543   0.000  0.00  0.00    +0.000 C 
ENDROOT
TORSDOF 0
REMARK  Name = molecules/BLCLNMBMMGCOAS-URPVMXJPSA-N.pdb
REMARK                            x       y       z     vdW  Elec       q    Type
REMARK                         _______ _______ _______ _____ _____    ______ ____
ROOT
ATOM      1  C   LIG    1       -3.542   9.167   0.000  0.00  0.00    +0.000 C 
ENDROOT
TORSDOF 0
REMARK  Name = molecules/BLCLNMBMMGCOAS-URPVMXJPSA-N.pdb
REMARK                            x       y       z     vdW  Elec       q    Type
REMARK                         _______ _______ _______ _____ _____    ______ ____
ROOT
ATOM      1  C   LIG    1       -5.321  10.322   0.000  0.00  0.00    +0.108 C 
ATOM      2  C   LIG    1       -4.774  11.356   0.000  0.00  0.00    +0.055 C 
ATOM      3  N   LIG    1       -4.462   9.889   0.000  0.00  0.00    -0.162 NA
ENDROOT
TORSDOF 0
REMARK  Name = molecules/BLCLNMBMMGCOAS-URPVMXJPSA-N.pdb
REMARK                            x       y       z     vdW  Elec       q    Type
REMARK                         _______ _______ _______ _____ _____    ______ ____
ROOT
ATOM      1  C   LIG    1       -3.035   9.425   0.000  0.00  0.00    +0.000 C 
ENDROOT
TORSDOF 0
REMARK  Name = molecules/BLCLNMBMMGCOAS-URPVMXJPSA-N.pdb
REMARK                            x       y       z     vdW  Elec       q    Type
REMARK                         _______ _______ _______ _____ _____    ______ ____
ROOT
ATOM      1  N   LIG    1        1.158  10.869   0.000  0.00  0.00    +0.000 NA
ENDROOT
TORSDOF 0
REMARK  Name = molecules/BLCLNMBMMGCOAS-URPVMXJPSA-N.pdb
REMARK                            x       y       z     vdW  Elec       q    Type
REMARK                         _______ _______ _______ _____ _____    ______ ____
ROOT
ATOM      1  N   LIG    1       -0.309  10.557   0.000  0.00  0.00    -0.163 NA
ATOM      2  H   LIG    1       -0.922   9.912   0.000  0.00  0.00    +0.163 HD
ENDROOT
TORSDOF 0
REMARK  Name = molecules/BLCLNMBMMGCOAS-URPVMXJPSA-N.pdb
REMARK                            x       y       z     vdW  Elec       q    Type
REMARK                         _______ _______ _______ _____ _____    ______ ____
ROOT
ATOM      1  N   LIG    1       -6.200  11.819   0.000  0.00  0.00    +0.000 NA
ENDROOT
TORSDOF 0
REMARK  Name = molecules/BLCLNMBMMGCOAS-URPVMXJPSA-N.pdb
REMARK                            x       y       z     vdW  Elec       q    Type
REMARK                         _______ _______ _______ _____ _____    ______ ____
ROOT
ATOM      1  N   LIG    1       -3.659  12.360   0.000  0.00  0.00    +0.000 NA
ENDROOT
TORSDOF 0
REMARK  Name = molecules/BLCLNMBMMGCOAS-URPVMXJPSA-N.pdb
REMARK                            x       y       z     vdW  Elec       q    Type
REMARK                         _______ _______ _______ _____ _____    ______ ____
ROOT
ATOM      1  C   LIG    1       -1.313  11.672   0.000  0.00  0.00    +0.000 C 
ENDROOT
TORSDOF 0
REMARK  Name = molecules/BLCLNMBMMGCOAS-URPVMXJPSA-N.pdb
REMARK                            x       y       z     vdW  Elec       q    Type
REMARK                         _______ _______ _______ _____ _____    ______ ____
ROOT
ATOM      1  N   LIG    1       -2.780  11.360   0.000  0.00  0.00    -0.163 NA
ATOM      2  H   LIG    1       -3.672  10.661   0.000  0.00  0.00    +0.163 HD
ENDROOT
TORSDOF 0
REMARK  Name = molecules/BLCLNMBMMGCOAS-URPVMXJPSA-N.pdb
REMARK                            x       y       z     vdW  Elec       q    Type
REMARK                         _______ _______ _______ _____ _____    ______ ____
ROOT
ATOM      1  O   HOH    1       -1.026  13.145   0.000  0.00  0.00    +0.000 OA
ENDROOT
TORSDOF 0
REMARK  Name = molecules/BLCLNMBMMGCOAS-URPVMXJPSA-N.pdb
REMARK                            x       y       z     vdW  Elec       q    Type
REMARK                         _______ _______ _______ _____ _____    ______ ____
ROOT
ATOM      1  H   UNK    1        5.379  10.961   0.000  0.00  0.00    +0.000 HD
ENDROOT
TORSDOF 0
REMARK  Name = molecules/BLCLNMBMMGCOAS-URPVMXJPSA-N.pdb
REMARK                            x       y       z     vdW  Elec       q    Type
REMARK                         _______ _______ _______ _____ _____    ______ ____
ROOT
ATOM      1  H   UNK    1       12.896  13.444   0.000  0.00  0.00    +0.000 HD
ENDROOT
TORSDOF 0
REMARK  Name = molecules/BLCLNMBMMGCOAS-URPVMXJPSA-N.pdb
REMARK                            x       y       z     vdW  Elec       q    Type
REMARK                         _______ _______ _______ _____ _____    ______ ____
ROOT
ATOM      1  H   UNK    1        7.122   8.330   0.000  0.00  0.00    +0.000 HD
ENDROOT
TORSDOF 0
REMARK  Name = molecules/BLCLNMBMMGCOAS-URPVMXJPSA-N.pdb
REMARK                            x       y       z     vdW  Elec       q    Type
REMARK                         _______ _______ _______ _____ _____    ______ ____
ROOT
ATOM      1  H   UNK    1        0.884  15.363   0.000  0.00  0.00    +0.000 HD
ENDROOT
TORSDOF 0
REMARK  Name = molecules/BLCLNMBMMGCOAS-URPVMXJPSA-N.pdb
REMARK                            x       y       z     vdW  Elec       q    Type
REMARK                         _______ _______ _______ _____ _____    ______ ____
ROOT
ATOM      1  H   UNK    1       11.180   4.246   0.000  0.00  0.00    +0.000 HD
ENDROOT
TORSDOF 0
REMARK  Name = molecules/BLCLNMBMMGCOAS-URPVMXJPSA-N.pdb
REMARK                            x       y       z     vdW  Elec       q    Type
REMARK                         _______ _______ _______ _____ _____    ______ ____
ROOT
ATOM      1  H   UNK    1       -2.307   5.034   0.000  0.00  0.00    +0.000 HD
ENDROOT
TORSDOF 0
REMARK  Name = molecules/BLCLNMBMMGCOAS-URPVMXJPSA-N.pdb
REMARK                            x       y       z     vdW  Elec       q    Type
REMARK                         _______ _______ _______ _____ _____    ______ ____
ROOT
ATOM      1  H   UNK    1       -0.066  16.135   0.000  0.00  0.00    +0.000 HD
ENDROOT
TORSDOF 0
REMARK  Name = molecules/BLCLNMBMMGCOAS-URPVMXJPSA-N.pdb
REMARK                            x       y       z     vdW  Elec       q    Type
REMARK                         _______ _______ _______ _____ _____    ______ ____
ROOT
ATOM      1  H   UNK    1       -3.734   5.498   0.000  0.00  0.00    +0.000 HD
ENDROOT
TORSDOF 0
REMARK  Name = molecules/BLCLNMBMMGCOAS-URPVMXJPSA-N.pdb
REMARK                            x       y       z     vdW  Elec       q    Type
REMARK                         _______ _______ _______ _____ _____    ______ ____
ROOT
ATOM      1  H   UNK    1       -1.430   3.826   0.000  0.00  0.00    +0.000 HD
ENDROOT
TORSDOF 0
REMARK  Name = molecules/BLCLNMBMMGCOAS-URPVMXJPSA-N.pdb
REMARK                            x       y       z     vdW  Elec       q    Type
REMARK                         _______ _______ _______ _____ _____    ______ ____
ROOT
ATOM      1  H   UNK    1        1.865  17.874   0.000  0.00  0.00    +0.000 HD
ENDROOT
TORSDOF 0
REMARK  Name = molecules/BLCLNMBMMGCOAS-URPVMXJPSA-N.pdb
REMARK                            x       y       z     vdW  Elec       q    Type
REMARK                         _______ _______ _______ _____ _____    ______ ____
ROOT
ATOM      1  H   UNK    1       -2.459   2.141   0.000  0.00  0.00    +0.000 HD
ENDROOT
TORSDOF 0
REMARK  Name = molecules/BLCLNMBMMGCOAS-URPVMXJPSA-N.pdb
REMARK                            x       y       z     vdW  Elec       q    Type
REMARK                         _______ _______ _______ _____ _____    ______ ____
ROOT
ATOM      1  H   UNK    1       -2.930  10.921   0.000  0.00  0.00    +0.000 HD
ENDROOT
TORSDOF 0
REMARK  Name = molecules/BLCLNMBMMGCOAS-URPVMXJPSA-N.pdb
REMARK                            x       y       z     vdW  Elec       q    Type
REMARK                         _______ _______ _______ _____ _____    ______ ____
ROOT
ATOM      1  H   UNK    1        4.765  12.158   0.000  0.00  0.00    +0.000 HD
ENDROOT
TORSDOF 0
REMARK  Name = molecules/BLCLNMBMMGCOAS-URPVMXJPSA-N.pdb
REMARK                            x       y       z     vdW  Elec       q    Type
REMARK                         _______ _______ _______ _____ _____    ______ ____
ROOT
ATOM      1  H   UNK    1       -6.512  13.287   0.000  0.00  0.00    +0.000 HD
ENDROOT
TORSDOF 0
REMARK  Name = molecules/BLCLNMBMMGCOAS-URPVMXJPSA-N.pdb
REMARK                            x       y       z     vdW  Elec       q    Type
REMARK                         _______ _______ _______ _____ _____    ______ ____
ROOT
ATOM      1  H   UNK    1       -3.971  13.827   0.000  0.00  0.00    +0.000 HD
ENDROOT
TORSDOF 0
REMARK  Name = molecules/BLCLNMBMMGCOAS-URPVMXJPSA-N.pdb
REMARK                            x       y       z     vdW  Elec       q    Type
REMARK                         _______ _______ _______ _____ _____    ______ ____
ROOT
ATOM      1  H   UNK    1       -3.484  12.685   0.000  0.00  0.00    +0.000 HD
ENDROOT
TORSDOF 0
