REMARK  Name = molecules/BLFLLBZGZJTVJG-UHFFFAOYSA-N.pdb
REMARK                            x       y       z     vdW  Elec       q    Type
REMARK                         _______ _______ _______ _____ _____    ______ ____
ROOT
ATOM      1  C   LIG    1       -0.364  -0.234  -0.163  0.00  0.00    +0.059 A 
ATOM      2  C   LIG    1       -0.905   0.411   0.911  0.00  0.00    +0.017 A 
ATOM      3  C   LIG    1       -2.277   0.685   0.956  0.00  0.00    +0.023 A 
ATOM      4  C   LIG    1       -3.103   0.315  -0.072  0.00  0.00    +0.025 A 
ATOM      5  C   LIG    1       -2.557  -0.327  -1.140  0.00  0.00    +0.023 A 
ATOM      6  C   LIG    1       -1.208  -0.601  -1.193  0.00  0.00    +0.017 A 
ENDROOT
BRANCH   4   7
ATOM      7  N   LIG    1       -4.491   0.607   0.001  0.00  0.00    -0.358 N 
ATOM      8  H   LIG    1       -5.200  -0.124   0.242  0.00  0.00    +0.142 HD
ATOM      9  H   LIG    1       -4.870   1.563  -0.183  0.00  0.00    +0.142 HD
ENDBRANCH   4   7
BRANCH   1  10
ATOM     10  C   LIG    1        1.064  -0.515  -0.202  0.00  0.00    +0.339 C 
ATOM     11  O   LIG    1        1.549  -1.110  -1.200  0.00  0.00    -0.245 OA
BRANCH  10  12
ATOM     12  O   LIG    1        1.936  -0.166   0.802  0.00  0.00    -0.461 OA
BRANCH  12  14
ATOM     13  C   LIG    1        4.019   0.217  -0.391  0.00  0.00    +0.048 C 
ATOM     14  C   LIG    1        3.318  -0.431   0.779  0.00  0.00    +0.229 C 
ENDBRANCH  12  14
ENDBRANCH  10  12
ENDBRANCH   1  10
TORSDOF 4
