REMARK  Name = molecules/BLIJXOOIHRSQRB-NWDGAFQWSA-N.pdb
REMARK                            x       y       z     vdW  Elec       q    Type
REMARK                         _______ _______ _______ _____ _____    ______ ____
ROOT
ATOM      1  C   LIG    1        0.343   0.106  -0.483  0.00  0.00    +0.092 C 
ATOM      2  C   LIG    1       -0.281  -1.215  -0.142  0.00  0.00    +0.030 C 
ENDROOT
BRANCH   1   4
ATOM      3  C   LIG    1        2.695   0.421  -1.200  0.00  0.00    +0.264 C 
ATOM      4  N   LIG    1        1.759   0.151  -0.171  0.00  0.00    -0.306 N 
ATOM      5  H   LIG    1        2.076  -0.016   0.816  0.00  0.00    +0.149 HD
ATOM      6  O   LIG    1        2.312   0.620  -2.374  0.00  0.00    -0.268 OA
BRANCH   3   7
ATOM      7  C   LIG    1        4.106   0.465  -0.881  0.00  0.00    +0.147 A 
ATOM      8  C   LIG    1        4.653   0.267   0.356  0.00  0.00    +0.060 A 
ATOM      9  C   LIG    1        6.012   0.383   0.284  0.00  0.00    +0.065 A 
ATOM     10  N   LIG    1        6.285   0.654  -1.011  0.00  0.00    -0.278 N 
ATOM     11  H   LIG    1        7.218   0.805  -1.425  0.00  0.00    +0.189 HD
ATOM     12  N   LIG    1        5.144   0.703  -1.707  0.00  0.00    -0.169 NA
BRANCH   9  13
ATOM     13  C   LIG    1        7.008   0.246   1.381  0.00  0.00    +0.159 C 
ATOM     14  C   LIG    1        7.727  -1.070   1.160  0.00  0.00    +0.044 C 
BRANCH  13  15
ATOM     15  O   LIG    1        7.941   1.298   1.283  0.00  0.00    -0.386 OA
ATOM     16  H   LIG    1        7.763   1.898   2.063  0.00  0.00    +0.210 HD
ENDBRANCH  13  15
ENDBRANCH   9  13
ENDBRANCH   3   7
ENDBRANCH   1   4
BRANCH   1  17
ATOM     17  C   LIG    1       -0.410   1.188   0.277  0.00  0.00    +0.165 C 
BRANCH  17  18
ATOM     18  N   LIG    1       -1.809   1.083  -0.082  0.00  0.00    -0.269 N 
ATOM     19  N   LIG    1       -2.751   0.348   0.526  0.00  0.00    -0.171 NA
ATOM     20  C   LIG    1       -3.924   0.521  -0.108  0.00  0.00    +0.093 A 
ATOM     21  C   LIG    1       -3.725   1.395  -1.155  0.00  0.00    +0.049 A 
ATOM     22  C   LIG    1       -2.393   1.727  -1.110  0.00  0.00    +0.109 A 
BRANCH  20  23
ATOM     23  C   LIG    1       -5.215  -0.093   0.222  0.00  0.00    +0.004 A 
ATOM     24  C   LIG    1       -5.344  -0.961   1.286  0.00  0.00    +0.011 A 
ATOM     25  C   LIG    1       -6.557  -1.540   1.598  0.00  0.00    +0.021 A 
ATOM     26  C   LIG    1       -7.694  -1.277   0.862  0.00  0.00    +0.070 A 
ATOM     27  C   LIG    1       -7.567  -0.409  -0.203  0.00  0.00    +0.059 A 
ATOM     28 CL   LIG    1       -8.994  -0.058  -1.154  0.00  0.00    -0.082 Cl
ATOM     29  C   LIG    1       -6.350   0.170  -0.513  0.00  0.00    +0.031 A 
BRANCH  26  30
ATOM     30  C   LIG    1       -8.946  -1.895   1.210  0.00  0.00    +0.101 C 
ATOM     31  N   LIG    1       -9.947  -2.405   1.499  0.00  0.00    -0.191 NA
ENDBRANCH  26  30
ENDBRANCH  20  23
ENDBRANCH  17  18
ENDBRANCH   1  17
TORSDOF 8
