REMARK  Name = molecules/BLMPQMFVWMYDKT-NZTKNTHTSA-N.pdb
REMARK                            x       y       z     vdW  Elec       q    Type
REMARK                         _______ _______ _______ _____ _____    ______ ____
ROOT
ATOM      1  C   LIG    1        0.361  -0.419  -2.885  0.00  0.00    +0.159 C 
ENDROOT
BRANCH   1   2
ATOM      2  N   LIG    1        1.550  -0.896  -2.235  0.00  0.00    -0.302 N 
ATOM      3  C   LIG    1        2.301  -0.174  -1.285  0.00  0.00    +0.234 C 
ATOM      4  O   LIG    1        1.872   0.980  -0.979  0.00  0.00    -0.274 OA
ATOM      5  H   LIG    1        1.886  -1.852  -2.483  0.00  0.00    +0.150 HD
BRANCH   3   6
ATOM      6  C   LIG    1        3.532  -0.693  -0.650  0.00  0.00    +0.159 C 
BRANCH   6   7
ATOM      7  N   LIG    1        4.040   0.168   0.345  0.00  0.00    -0.303 N 
ATOM      8  H   LIG    1        3.635   0.193   1.298  0.00  0.00    +0.149 HD
ATOM      9  C   LIG    1        5.144   1.083   0.160  0.00  0.00    +0.228 C 
ATOM     10  O   LIG    1        5.673   1.102  -0.975  0.00  0.00    -0.274 OA
BRANCH   9  11
ATOM     11  C   LIG    1        5.634   1.951   1.226  0.00  0.00    +0.180 C 
BRANCH  11  12
ATOM     12  N   LIG    1        6.734   2.804   0.812  0.00  0.00    -0.290 NA
ATOM     13  C   LIG    1        7.068   3.590   2.003  0.00  0.00    +0.113 C 
ATOM     14  C   LIG    1        8.155   4.583   1.782  0.00  0.00    +0.175 C 
ATOM     15  O   LIG    1        8.073   5.137   0.524  0.00  0.00    -0.377 OA
ATOM     16  C   LIG    1        6.745   5.102   0.111  0.00  0.00    +0.175 C 
ATOM     17  C   LIG    1        6.322   3.698  -0.261  0.00  0.00    +0.113 C 
ENDBRANCH  11  12
ENDBRANCH   9  11
ENDBRANCH   6   7
BRANCH   6  18
ATOM     18  C   LIG    1        3.558  -2.117  -0.309  0.00  0.00    +0.036 C 
BRANCH  18  19
ATOM     19  C   LIG    1        2.556  -2.697   0.598  0.00  0.00    +0.037 C 
BRANCH  19  20
ATOM     20  C   LIG    1        2.458  -2.172   1.962  0.00  0.00    -0.047 A 
ATOM     21  C   LIG    1        3.309  -2.653   2.937  0.00  0.00    +0.003 A 
ATOM     22  C   LIG    1        3.245  -2.219   4.260  0.00  0.00    +0.000 A 
ATOM     23  C   LIG    1        2.316  -1.283   4.641  0.00  0.00    +0.000 A 
ATOM     24  C   LIG    1        1.457  -0.793   3.677  0.00  0.00    +0.000 A 
ATOM     25  C   LIG    1        1.516  -1.218   2.366  0.00  0.00    +0.003 A 
ENDBRANCH  19  20
ENDBRANCH  18  19
ENDBRANCH   6  18
ENDBRANCH   3   6
ENDBRANCH   1   2
BRANCH   1  27
ATOM     26  N   LIG    1       -2.174  -0.519  -2.652  0.00  0.00    -0.302 N 
ATOM     27  C   LIG    1       -0.886  -0.791  -2.170  0.00  0.00    +0.234 C 
ATOM     28  O   LIG    1       -0.730  -1.372  -1.072  0.00  0.00    -0.274 OA
ATOM     29  H   LIG    1       -2.187  -0.045  -3.638  0.00  0.00    +0.150 HD
BRANCH  26  30
ATOM     30  C   LIG    1       -3.426  -0.771  -2.046  0.00  0.00    +0.163 C 
BRANCH  30  33
ATOM     31  N   LIG    1       -4.691   0.224  -0.041  0.00  0.00    -0.304 N 
ATOM     32  H   LIG    1       -5.597  -0.124  -0.413  0.00  0.00    +0.149 HD
ATOM     33  C   LIG    1       -3.479  -0.015  -0.737  0.00  0.00    +0.234 C 
ATOM     34  O   LIG    1       -2.414   0.416  -0.269  0.00  0.00    -0.274 OA
BRANCH  31  35
ATOM     35  C   LIG    1       -4.653   0.971   1.224  0.00  0.00    +0.143 C 
BRANCH  35  36
ATOM     36  C   LIG    1       -5.421   0.172   2.218  0.00  0.00    +0.187 C 
ATOM     37  O   LIG    1       -6.051  -0.796   1.861  0.00  0.00    -0.292 OA
BRANCH  36  38
ATOM     38  C   LIG    1       -5.415   0.556   3.657  0.00  0.00    +0.149 C 
ATOM     39  O   LIG    1       -5.232  -0.611   4.558  0.00  0.00    -0.361 OA
ATOM     40  C   LIG    1       -6.502   0.116   4.489  0.00  0.00    +0.203 C 
ATOM     41  C   LIG    1       -4.579   1.704   4.139  0.00  0.00    +0.052 C 
ENDBRANCH  36  38
ENDBRANCH  35  36
BRANCH  35  42
ATOM     42  C   LIG    1       -5.416   2.269   1.063  0.00  0.00    +0.033 C 
BRANCH  42  43
ATOM     43  C   LIG    1       -4.829   3.252   0.118  0.00  0.00    -0.015 C 
ATOM     44  C   LIG    1       -3.489   3.789   0.612  0.00  0.00    +0.007 C 
ATOM     45  C   LIG    1       -4.691   2.824  -1.298  0.00  0.00    +0.007 C 
ENDBRANCH  42  43
ENDBRANCH  35  42
ENDBRANCH  31  35
ENDBRANCH  30  33
BRANCH  30  46
ATOM     46  C   LIG    1       -3.887  -2.147  -1.799  0.00  0.00    +0.067 C 
BRANCH  46  47
ATOM     47  C   LIG    1       -3.177  -3.012  -0.888  0.00  0.00    -0.045 A 
ATOM     48  C   LIG    1       -3.278  -2.900   0.473  0.00  0.00    +0.004 A 
ATOM     49  C   LIG    1       -2.624  -3.770   1.344  0.00  0.00    +0.000 A 
ATOM     50  C   LIG    1       -1.859  -4.767   0.849  0.00  0.00    +0.000 A 
ATOM     51  C   LIG    1       -1.721  -4.929  -0.510  0.00  0.00    +0.000 A 
ATOM     52  C   LIG    1       -2.388  -4.043  -1.355  0.00  0.00    +0.004 A 
ENDBRANCH  46  47
ENDBRANCH  30  46
ENDBRANCH  26  30
ENDBRANCH   1  27
BRANCH   1  53
ATOM     53  C   LIG    1        0.397  -0.502  -4.342  0.00  0.00    +0.034 C 
BRANCH  53  54
ATOM     54  C   LIG    1        0.184  -1.784  -5.033  0.00  0.00    -0.015 C 
ATOM     55  C   LIG    1       -1.122  -2.465  -4.810  0.00  0.00    +0.007 C 
ATOM     56  C   LIG    1        1.304  -2.796  -4.856  0.00  0.00    +0.007 C 
ENDBRANCH  53  54
ENDBRANCH   1  53
TORSDOF 20
