REMARK  Name = molecules/BLUAFEHZUWYNDE-NNWCWBAJSA-N.pdb
REMARK                            x       y       z     vdW  Elec       q    Type
REMARK                         _______ _______ _______ _____ _____    ______ ____
ROOT
ATOM      1  C   LIG    1       -3.396  -1.886  -0.205  0.00  0.00    +0.019 C 
ATOM      2  C   LIG    1       -1.893  -1.843   0.074  0.00  0.00    +0.101 C 
ATOM      3  C   LIG    1       -1.520  -0.421   0.321  0.00  0.00    +0.044 C 
ATOM      4  C   LIG    1       -0.023  -0.295   0.222  0.00  0.00    +0.173 C 
ATOM      5  O   LIG    1        0.489  -1.137   1.234  0.00  0.00    -0.218 OA
ATOM      6  O   LIG    1        1.411  -1.935   0.743  0.00  0.00    -0.199 OA
ATOM      7  C   LIG    1        2.390  -1.075   0.194  0.00  0.00    +0.204 C 
ATOM      8  C   LIG    1        2.562   0.052   1.171  0.00  0.00    +0.068 C 
ATOM      9  C   LIG    1        1.841   1.312   0.728  0.00  0.00    +0.012 C 
ATOM     10  C   LIG    1        3.670  -1.846   0.125  0.00  0.00    +0.077 C 
ATOM     11  O   LIG    1        1.917  -0.662  -1.026  0.00  0.00    -0.305 OA
ATOM     12  C   LIG    1        0.370   1.106   0.566  0.00  0.00    +0.034 C 
ATOM     13  C   LIG    1       -0.269   2.041  -0.425  0.00  0.00    -0.008 C 
ATOM     14  C   LIG    1       -1.779   1.958  -0.191  0.00  0.00    +0.004 C 
ATOM     15  C   LIG    1        0.222   3.457  -0.306  0.00  0.00    +0.008 C 
ATOM     16  C   LIG    1        0.532  -0.781  -1.073  0.00  0.00    +0.349 C 
ATOM     17  O   LIG    1        0.172  -2.140  -1.242  0.00  0.00    -0.432 OA
ATOM     18  C   LIG    1       -2.258   0.572  -0.519  0.00  0.00    +0.008 C 
ATOM     19  C   LIG    1       -1.147  -2.488  -1.019  0.00  0.00    +0.313 C 
ATOM     20  O   LIG    1       -1.762  -3.350  -1.719  0.00  0.00    -0.250 OA
ENDROOT
TORSDOF 0
