REMARK  Name = molecules/BMCQMVFGOVHVNG-TUFAYURCSA-N.pdb
REMARK                            x       y       z     vdW  Elec       q    Type
REMARK                         _______ _______ _______ _____ _____    ______ ____
ROOT
ATOM      1  C   LIG    1       -1.950  -1.550  -0.127  0.00  0.00    +0.179 C 
ATOM      2  C   LIG    1       -1.265  -2.903   0.279  0.00  0.00    +0.057 C 
ATOM      3  C   LIG    1       -0.031  -2.800  -0.639  0.00  0.00    +0.009 C 
ATOM      4  C   LIG    1        0.382  -1.476  -0.189  0.00  0.00    +0.003 C 
ATOM      5  C   LIG    1        1.558  -0.795  -0.732  0.00  0.00    -0.001 C 
ATOM      6  C   LIG    1        1.878   0.304   0.285  0.00  0.00    +0.031 C 
ATOM      7  C   LIG    1        0.700   1.200   0.406  0.00  0.00    +0.119 C 
ATOM      8  C   LIG    1       -0.640   0.537   0.489  0.00  0.00    +0.043 C 
ATOM      9  C   LIG    1        3.199   0.937   0.132  0.00  0.00    -0.005 C 
ATOM     10  C   LIG    1        3.831   1.093   1.505  0.00  0.00    +0.019 C 
ATOM     11  C   LIG    1        5.155   1.816   1.476  0.00  0.00    +0.080 C 
ATOM     12  C   LIG    1        6.010   1.374   0.376  0.00  0.00    +0.156 C 
ATOM     13  O   LIG    1        7.167   1.790   0.236  0.00  0.00    -0.293 OA
ATOM     14  C   LIG    1        5.451   0.416  -0.565  0.00  0.00    +0.046 C 
ATOM     15  C   LIG    1        3.150   2.364  -0.436  0.00  0.00    +0.016 C 
ATOM     16  C   LIG    1        4.160   0.192  -0.701  0.00  0.00    -0.060 C 
ATOM     17  C   LIG    1        3.749  -0.824  -1.706  0.00  0.00    +0.032 C 
ATOM     18  C   LIG    1        2.740  -1.710  -0.975  0.00  0.00    +0.008 C 
ATOM     19  C   LIG    1       -0.852  -0.612  -0.447  0.00  0.00    +0.020 C 
ATOM     20  C   LIG    1       -0.891  -0.121  -1.872  0.00  0.00    +0.016 C 
ENDROOT
BRANCH   7  21
ATOM     21  O   LIG    1        0.681   2.270  -0.505  0.00  0.00    -0.391 OA
ATOM     22  H   LIG    1        0.185   3.035  -0.168  0.00  0.00    +0.210 HD
ENDBRANCH   7  21
BRANCH   1  23
ATOM     23  C   LIG    1       -2.815  -1.985  -1.229  0.00  0.00    +0.202 C 
ATOM     24  O   LIG    1       -2.336  -2.104  -2.341  0.00  0.00    -0.291 OA
BRANCH  23  25
ATOM     25  C   LIG    1       -4.237  -2.293  -1.074  0.00  0.00    +0.234 C 
BRANCH  25  26
ATOM     26  O   LIG    1       -4.727  -2.409   0.200  0.00  0.00    -0.387 OA
ATOM     27  H   LIG    1       -5.658  -2.162   0.311  0.00  0.00    +0.210 HD
ENDBRANCH  25  26
ENDBRANCH  23  25
ENDBRANCH   1  23
BRANCH   1  28
ATOM     28  O   LIG    1       -2.761  -1.155   0.973  0.00  0.00    -0.450 OA
BRANCH  28  29
ATOM     29  C   LIG    1       -3.681  -0.120   0.872  0.00  0.00    +0.308 C 
ATOM     30  O   LIG    1       -3.859   0.520  -0.193  0.00  0.00    -0.251 OA
BRANCH  29  31
ATOM     31  C   LIG    1       -4.518   0.286   2.052  0.00  0.00    +0.120 C 
BRANCH  31  32
ATOM     32  C   LIG    1       -5.432   1.430   1.678  0.00  0.00    +0.008 C 
ATOM     33  C   LIG    1       -4.660   2.642   1.222  0.00  0.00    +0.004 C 
ENDBRANCH  31  32
ENDBRANCH  29  31
ENDBRANCH  28  29
ENDBRANCH   1  28
TORSDOF 8
