REMARK  Name = molecules/BMGQWWVMWDBQGC-IIFHNQTCSA-N.pdb
REMARK                            x       y       z     vdW  Elec       q    Type
REMARK                         _______ _______ _______ _____ _____    ______ ____
ROOT
ATOM      1  C   LIG    1       -3.047  -0.153   0.620  0.00  0.00    +0.015 A 
ATOM      2  C   LIG    1       -3.042  -1.359   1.292  0.00  0.00    +0.008 A 
ATOM      3  C   LIG    1       -3.869  -1.824   2.292  0.00  0.00    +0.010 A 
ATOM      4  C   LIG    1       -3.630  -3.088   2.800  0.00  0.00    +0.001 A 
ATOM      5  C   LIG    1       -2.579  -3.821   2.285  0.00  0.00    +0.002 A 
ATOM      6  C   LIG    1       -1.766  -3.333   1.285  0.00  0.00    +0.026 A 
ATOM      7  C   LIG    1       -1.979  -2.093   0.767  0.00  0.00    +0.053 A 
ATOM      8  N   LIG    1       -1.341  -1.386  -0.196  0.00  0.00    -0.307 N 
ATOM      9  C   LIG    1       -0.225  -1.822  -1.012  0.00  0.00    +0.174 C 
ATOM     10  C   LIG    1        1.050  -1.707  -0.220  0.00  0.00    +0.191 C 
ATOM     11  C   LIG    1        2.027  -0.962  -1.110  0.00  0.00    +0.114 C 
ATOM     12  C   LIG    1        1.455   0.379  -1.399  0.00  0.00    +0.080 C 
ATOM     13  C   LIG    1        0.230   0.103  -2.309  0.00  0.00    +0.224 C 
ATOM     14  N   LIG    1       -0.818   1.067  -1.993  0.00  0.00    -0.311 N 
ATOM     15  C   LIG    1       -1.775   0.864  -1.066  0.00  0.00    +0.077 A 
ATOM     16  C   LIG    1       -2.560   2.023  -1.027  0.00  0.00    +0.022 A 
ATOM     17  C   LIG    1       -3.618   2.053  -0.116  0.00  0.00    +0.052 A 
ATOM     18  C   LIG    1       -4.590   3.072   0.164  0.00  0.00    +0.245 C 
ATOM     19  N   LIG    1       -5.452   2.552   1.212  0.00  0.00    -0.307 N 
ATOM     20  H   LIG    1       -6.249   3.097   1.603  0.00  0.00    +0.149 HD
ATOM     21  C   LIG    1       -5.036   1.242   1.587  0.00  0.00    +0.141 C 
ATOM     22  O   LIG    1       -4.737   4.203  -0.343  0.00  0.00    -0.270 OA
ATOM     23  C   LIG    1       -2.057   2.913  -1.946  0.00  0.00    +0.008 A 
ATOM     24  C   LIG    1       -2.374   4.169  -2.364  0.00  0.00    +0.010 A 
ATOM     25  C   LIG    1       -1.649   4.834  -3.349  0.00  0.00    +0.001 A 
ATOM     26  C   LIG    1       -0.572   4.223  -3.934  0.00  0.00    +0.002 A 
ATOM     27  C   LIG    1       -0.247   2.949  -3.514  0.00  0.00    +0.026 A 
ATOM     28  C   LIG    1       -0.963   2.282  -2.535  0.00  0.00    +0.052 A 
ATOM     29  C   LIG    1       -0.385  -3.298  -1.416  0.00  0.00    +0.069 C 
ATOM     30  O   LIG    1       -0.201  -1.159  -2.234  0.00  0.00    -0.328 OA
ATOM     31  C   LIG    1       -3.867   0.968   0.713  0.00  0.00    -0.008 A 
ATOM     32  C   LIG    1       -2.024  -0.209  -0.248  0.00  0.00    +0.077 A 
ENDROOT
BRANCH  11  33
ATOM     33  N   LIG    1        3.397  -1.138  -0.884  0.00  0.00    -0.295 N 
ATOM     34  C   LIG    1        4.356  -0.757   0.024  0.00  0.00    +0.247 C 
ATOM     35  O   LIG    1        5.544  -1.286  -0.257  0.00  0.00    -0.270 OA
ATOM     36  C   LIG    1        4.015  -2.034  -1.986  0.00  0.00    +0.132 C 
BRANCH  34  37
ATOM     37  C   LIG    1        4.380   0.071   1.200  0.00  0.00    +0.037 A 
ATOM     38  C   LIG    1        5.574   0.082   1.958  0.00  0.00    +0.013 A 
ATOM     39  C   LIG    1        5.734   0.853   3.082  0.00  0.00    +0.001 A 
ATOM     40  C   LIG    1        4.724   1.665   3.533  0.00  0.00    +0.000 A 
ATOM     41  C   LIG    1        3.566   1.654   2.795  0.00  0.00    +0.001 A 
ATOM     42  C   LIG    1        3.406   0.883   1.670  0.00  0.00    +0.013 A 
ENDBRANCH  34  37
ENDBRANCH  11  33
BRANCH  10  43
ATOM     43  O   LIG    1        0.931  -1.094   0.991  0.00  0.00    -0.373 OA
ATOM     44  C   LIG    1        1.429  -1.816   2.063  0.00  0.00    +0.194 C 
ENDBRANCH  10  43
TORSDOF 3
