REMARK  Name = molecules/BMQGVNUXMIRLCK-OAGWZNDDSA-N.pdb
REMARK                            x       y       z     vdW  Elec       q    Type
REMARK                         _______ _______ _______ _____ _____    ______ ____
ROOT
ATOM      1  C   LIG    1        0.448   1.010   1.865  0.00  0.00    +0.187 C 
ATOM      2  C   LIG    1       -0.652   0.880   2.856  0.00  0.00    +0.024 C 
ATOM      3  C   LIG    1       -0.514   0.052   4.049  0.00  0.00    +0.016 C 
ATOM      4  C   LIG    1       -1.767   1.536   2.574  0.00  0.00    +0.031 C 
ATOM      5  C   LIG    1       -2.888   0.841   3.183  0.00  0.00    +0.192 C 
ATOM      6  C   LIG    1       -3.863   0.348   2.141  0.00  0.00    +0.171 C 
ATOM      7  O   LIG    1       -4.925   0.168   2.709  0.00  0.00    -0.294 OA
ATOM      8  C   LIG    1       -4.008   0.012   0.711  0.00  0.00    +0.065 C 
ATOM      9  C   LIG    1       -4.444  -1.440   0.671  0.00  0.00    +0.134 C 
ATOM     10  C   LIG    1       -4.840  -1.705  -0.759  0.00  0.00    +0.068 C 
ATOM     11  C   LIG    1       -3.688  -1.528  -1.669  0.00  0.00    +0.167 C 
ATOM     12  C   LIG    1       -2.464  -0.921  -1.072  0.00  0.00    +0.170 C 
ATOM     13  C   LIG    1       -2.384  -0.580  -2.534  0.00  0.00    +0.211 C 
ATOM     14  O   LIG    1       -3.732  -0.372  -2.507  0.00  0.00    -0.368 OA
ATOM     15  C   LIG    1       -5.184   0.775   0.203  0.00  0.00    +0.022 C 
ATOM     16  C   LIG    1       -2.719   0.192  -0.103  0.00  0.00    +0.097 C 
ATOM     17  C   LIG    1       -2.369   1.591  -0.433  0.00  0.00    +0.217 C 
ATOM     18  C   LIG    1       -1.224   2.210   0.351  0.00  0.00    +0.112 C 
ATOM     19  C   LIG    1       -1.659   2.759   1.723  0.00  0.00    +0.007 C 
ATOM     20  C   LIG    1       -0.506   3.665   2.209  0.00  0.00    +0.014 C 
ATOM     21  C   LIG    1       -2.876   3.582   1.720  0.00  0.00    +0.014 C 
ATOM     22  C   LIG    1        0.002   1.386   0.495  0.00  0.00    +0.084 C 
ENDROOT
BRANCH   5  23
ATOM     23  O   LIG    1       -3.618   1.786   3.909  0.00  0.00    -0.372 OA
ATOM     24  C   LIG    1       -3.853   1.454   5.215  0.00  0.00    +0.195 C 
ENDBRANCH   5  23
BRANCH  18  25
ATOM     25  O   LIG    1       -0.849   3.409  -0.284  0.00  0.00    -0.384 OA
ATOM     26  H   LIG    1       -1.524   3.840  -0.811  0.00  0.00    +0.210 HD
ENDBRANCH  18  25
BRANCH   9  27
ATOM     27  O   LIG    1       -5.587  -1.574   1.433  0.00  0.00    -0.379 OA
ATOM     28  C   LIG    1       -5.479  -2.596   2.377  0.00  0.00    +0.194 C 
ENDBRANCH   9  27
BRANCH   1  29
ATOM     29  O   LIG    1        1.120  -0.265   1.742  0.00  0.00    -0.459 OA
BRANCH  29  30
ATOM     30  C   LIG    1        2.383  -0.465   2.251  0.00  0.00    +0.338 C 
ATOM     31  O   LIG    1        2.921   0.533   2.821  0.00  0.00    -0.248 OA
BRANCH  30  32
ATOM     32  C   LIG    1        3.135  -1.727   2.194  0.00  0.00    +0.247 C 
BRANCH  32  33
ATOM     33  O   LIG    1        4.267  -1.620   3.045  0.00  0.00    -0.379 OA
ATOM     34  H   LIG    1        4.915  -1.041   2.562  0.00  0.00    +0.211 HD
ENDBRANCH  32  33
BRANCH  32  35
ATOM     35  C   LIG    1        3.646  -1.978   0.839  0.00  0.00    +0.146 C 
BRANCH  35  36
ATOM     36  C   LIG    1        4.291  -3.324   0.692  0.00  0.00    -0.024 A 
ATOM     37  C   LIG    1        4.965  -3.982   1.669  0.00  0.00    +0.005 A 
ATOM     38  C   LIG    1        5.476  -5.255   1.391  0.00  0.00    +0.000 A 
ATOM     39  C   LIG    1        5.304  -5.846   0.143  0.00  0.00    +0.000 A 
ATOM     40  C   LIG    1        4.621  -5.179  -0.851  0.00  0.00    +0.000 A 
ATOM     41  C   LIG    1        4.127  -3.930  -0.558  0.00  0.00    +0.005 A 
ENDBRANCH  35  36
BRANCH  35  42
ATOM     42  N   LIG    1        4.542  -0.945   0.433  0.00  0.00    -0.271 N 
ATOM     43  H   LIG    1        4.445   0.011   0.954  0.00  0.00    +0.153 HD
ATOM     44  C   LIG    1        5.540  -0.935  -0.555  0.00  0.00    +0.401 C 
ATOM     45  O   LIG    1        5.796  -1.938  -1.243  0.00  0.00    -0.226 OA
BRANCH  44  46
ATOM     46  O   LIG    1        6.309   0.204  -0.823  0.00  0.00    -0.445 OA
BRANCH  46  47
ATOM     47  C   LIG    1        7.342   0.211  -1.771  0.00  0.00    +0.107 C 
ATOM     48  C   LIG    1        8.462  -0.702  -1.269  0.00  0.00    +0.055 C 
ATOM     49  C   LIG    1        7.947   1.617  -1.866  0.00  0.00    +0.055 C 
ATOM     50  C   LIG    1        6.964  -0.183  -3.158  0.00  0.00    +0.055 C 
ENDBRANCH  46  47
ENDBRANCH  44  46
ENDBRANCH  35  42
ENDBRANCH  32  35
ENDBRANCH  30  32
ENDBRANCH  29  30
ENDBRANCH   1  29
BRANCH  17  51
ATOM     51  O   LIG    1       -2.438   1.972  -1.755  0.00  0.00    -0.454 OA
BRANCH  51  52
ATOM     52  C   LIG    1       -3.293   2.850  -2.325  0.00  0.00    +0.340 C 
ATOM     53  O   LIG    1       -4.105   3.361  -1.523  0.00  0.00    -0.245 OA
BRANCH  52  54
ATOM     54  C   LIG    1       -3.315   3.203  -3.732  0.00  0.00    +0.059 A 
ATOM     55  C   LIG    1       -4.266   4.123  -4.215  0.00  0.00    +0.015 A 
ATOM     56  C   LIG    1       -4.319   4.464  -5.547  0.00  0.00    +0.001 A 
ATOM     57  C   LIG    1       -3.431   3.910  -6.478  0.00  0.00    +0.000 A 
ATOM     58  C   LIG    1       -2.515   3.022  -5.998  0.00  0.00    +0.001 A 
ATOM     59  C   LIG    1       -2.456   2.676  -4.662  0.00  0.00    +0.015 A 
ENDBRANCH  52  54
ENDBRANCH  51  52
ENDBRANCH  17  51
BRANCH  12  60
ATOM     60  O   LIG    1       -1.363  -1.726  -0.759  0.00  0.00    -0.453 OA
BRANCH  60  61
ATOM     61  C   LIG    1       -0.830  -2.807  -1.308  0.00  0.00    +0.305 C 
ATOM     62  C   LIG    1        0.398  -3.530  -0.841  0.00  0.00    +0.136 C 
ATOM     63  O   LIG    1       -1.375  -3.298  -2.317  0.00  0.00    -0.251 OA
ENDBRANCH  60  61
ENDBRANCH  12  60
TORSDOF 17
