REMARK  Name = molecules/BNRNXUUZRGQAQC-UHFFFAOYSA-N.pdb
REMARK                            x       y       z     vdW  Elec       q    Type
REMARK                         _______ _______ _______ _____ _____    ______ ____
ROOT
ATOM      1  C   LIG    1        0.080  -1.137   0.567  0.00  0.00    +0.061 A 
ATOM      2  C   LIG    1        0.367  -0.498   1.760  0.00  0.00    +0.131 A 
ATOM      3  C   LIG    1        1.683  -0.525   2.219  0.00  0.00    +0.048 A 
ATOM      4  C   LIG    1        2.713  -1.152   1.552  0.00  0.00    +0.032 A 
ATOM      5  C   LIG    1        2.402  -1.778   0.373  0.00  0.00    +0.106 A 
ATOM      6  C   LIG    1        1.098  -1.769  -0.114  0.00  0.00    +0.043 A 
ENDROOT
BRANCH   1  10
ATOM      7  C   LIG    1       -4.691   0.216   0.764  0.00  0.00    +0.089 A 
ATOM      8  C   LIG    1       -3.530  -0.387   0.319  0.00  0.00    +0.119 A 
ATOM      9  N   LIG    1       -2.258  -0.414   0.749  0.00  0.00    -0.225 NA
ATOM     10  C   LIG    1       -1.304  -1.113   0.105  0.00  0.00    +0.145 A 
ATOM     11  N   LIG    1       -1.698  -1.784  -0.998  0.00  0.00    -0.305 N 
ATOM     12  C   LIG    1       -2.950  -1.796  -1.476  0.00  0.00    +0.278 A 
ATOM     13  O   LIG    1       -3.276  -2.440  -2.515  0.00  0.00    -0.265 OA
ATOM     14  H   LIG    1       -1.003  -2.347  -1.544  0.00  0.00    +0.170 HD
ATOM     15  C   LIG    1       -3.925  -1.088  -0.824  0.00  0.00    +0.151 A 
ATOM     16  N   LIG    1       -5.242  -0.912  -1.043  0.00  0.00    -0.260 N 
ATOM     17  C   LIG    1       -6.024  -1.487  -2.143  0.00  0.00    +0.173 C 
ATOM     18  N   LIG    1       -5.695  -0.133  -0.093  0.00  0.00    -0.174 NA
BRANCH   7  19
ATOM     19  C   LIG    1       -4.840   1.111   1.927  0.00  0.00    +0.059 C 
BRANCH  19  21
ATOM     20  C   LIG    1       -2.998   2.628   1.097  0.00  0.00    +0.004 C 
ATOM     21  C   LIG    1       -4.410   2.506   1.555  0.00  0.00    +0.003 C 
ENDBRANCH  19  21
ENDBRANCH   7  19
ENDBRANCH   1  10
BRANCH   5  22
ATOM     22  S   LIG    1        3.663  -2.587  -0.510  0.00  0.00    +0.061 S 
ATOM     23  O   LIG    1        4.684  -3.084   0.492  0.00  0.00    -0.153 OA
ATOM     24  O   LIG    1        3.124  -3.790  -1.225  0.00  0.00    -0.153 OA
BRANCH  22  25
ATOM     25  N   LIG    1        4.455  -1.599  -1.646  0.00  0.00    -0.174 NA
ATOM     26  C   LIG    1        5.418  -0.699  -1.104  0.00  0.00    +0.125 C 
ATOM     27  C   LIG    1        5.564   0.477  -2.052  0.00  0.00    +0.101 C 
ATOM     28  N   LIG    1        4.295   1.159  -2.076  0.00  0.00    -0.303 NA
ATOM     29  C   LIG    1        3.222   0.345  -2.553  0.00  0.00    +0.101 C 
ATOM     30  C   LIG    1        4.431   2.426  -2.732  0.00  0.00    +0.105 C 
ATOM     31  C   LIG    1        3.622  -1.085  -2.682  0.00  0.00    +0.125 C 
ENDBRANCH  22  25
ENDBRANCH   5  22
BRANCH   2  32
ATOM     32  O   LIG    1       -0.619   0.162   2.504  0.00  0.00    -0.492 OA
BRANCH  32  33
ATOM     33  C   LIG    1       -0.223   0.783   3.712  0.00  0.00    +0.226 C 
ATOM     34  C   LIG    1       -1.343   1.453   4.433  0.00  0.00    +0.048 C 
ENDBRANCH  32  33
ENDBRANCH   2  32
TORSDOF 7
