REMARK  Name = molecules/BOBLHFUVNSFZPJ-JOYXJVLSSA-N.pdb
REMARK                            x       y       z     vdW  Elec       q    Type
REMARK                         _______ _______ _______ _____ _____    ______ ____
ROOT
ATOM      1  C   LIG    1        1.897   0.141   0.340  0.00  0.00    +0.182 C 
ATOM      2  C   LIG    1        2.034   1.642   0.305  0.00  0.00    +0.038 C 
ATOM      3  C   LIG    1        0.740   2.218  -0.243  0.00  0.00    +0.012 C 
ATOM      4  C   LIG    1       -0.187   1.104   0.146  0.00  0.00    +0.006 C 
ATOM      5  C   LIG    1       -1.593   1.204  -0.280  0.00  0.00    +0.037 C 
ATOM      6  C   LIG    1       -2.228   2.371   0.392  0.00  0.00    +0.048 C 
ATOM      7  C   LIG    1       -3.709   2.300   0.607  0.00  0.00    +0.194 C 
ATOM      8  F   LIG    1       -4.060   2.961   1.772  0.00  0.00    -0.241 F 
ATOM      9  C   LIG    1       -4.264   0.953   0.585  0.00  0.00    -0.020 C 
ATOM     10  C   LIG    1       -5.247   0.643   1.390  0.00  0.00    +0.054 C 
ATOM     11  C   LIG    1       -5.831  -0.688   1.429  0.00  0.00    +0.179 C 
ATOM     12  O   LIG    1       -6.783  -1.001   2.203  0.00  0.00    -0.288 OA
ATOM     13  C   LIG    1       -5.295  -1.706   0.538  0.00  0.00    +0.047 C 
ATOM     14  C   LIG    1       -4.302  -1.357  -0.261  0.00  0.00    -0.009 C 
ATOM     15  C   LIG    1       -3.690  -0.034  -0.334  0.00  0.00    +0.047 C 
ATOM     16  C   LIG    1       -3.907   0.482  -1.742  0.00  0.00    +0.023 C 
ATOM     17  C   LIG    1       -2.239  -0.128   0.044  0.00  0.00    +0.153 C 
ATOM     18  F   LIG    1       -2.208  -0.258   1.428  0.00  0.00    -0.238 F 
ATOM     19  C   LIG    1       -1.530  -1.290  -0.529  0.00  0.00    +0.154 C 
ATOM     20  C   LIG    1       -0.104  -1.334  -0.036  0.00  0.00    +0.045 C 
ATOM     21  C   LIG    1        3.251   2.148  -0.417  0.00  0.00    +0.012 C 
ATOM     22  C   LIG    1        0.582  -0.054  -0.448  0.00  0.00    +0.021 C 
ATOM     23  C   LIG    1        0.739   0.014  -1.911  0.00  0.00    +0.016 C 
ENDROOT
BRANCH   1  24
ATOM     24  C   LIG    1        2.979  -0.598  -0.323  0.00  0.00    +0.214 C 
ATOM     25  O   LIG    1        3.429  -0.107  -1.376  0.00  0.00    -0.289 OA
BRANCH  24  26
ATOM     26  C   LIG    1        3.608  -1.863   0.094  0.00  0.00    +0.310 C 
BRANCH  26  27
ATOM     27  O   LIG    1        4.618  -2.260  -0.852  0.00  0.00    -0.457 OA
BRANCH  27  28
ATOM     28  C   LIG    1        5.727  -1.527  -1.153  0.00  0.00    +0.304 C 
ATOM     29  O   LIG    1        5.907  -0.428  -0.580  0.00  0.00    -0.251 OA
ATOM     30  C   LIG    1        6.735  -1.981  -2.136  0.00  0.00    +0.136 C 
ENDBRANCH  27  28
ENDBRANCH  26  27
ENDBRANCH  24  26
ENDBRANCH   1  24
BRANCH  19  31
ATOM     31  O   LIG    1       -1.613  -1.429  -1.908  0.00  0.00    -0.389 OA
ATOM     32  H   LIG    1       -1.723  -2.368  -2.195  0.00  0.00    +0.210 HD
ENDBRANCH  19  31
BRANCH   1  33
ATOM     33  O   LIG    1        1.515  -0.341   1.599  0.00  0.00    -0.450 OA
BRANCH  33  34
ATOM     34  C   LIG    1        2.232  -0.396   2.746  0.00  0.00    +0.305 C 
ATOM     35  C   LIG    1        1.638  -0.970   3.971  0.00  0.00    +0.136 C 
ATOM     36  O   LIG    1        3.392   0.055   2.705  0.00  0.00    -0.251 OA
ENDBRANCH  33  34
ENDBRANCH   1  33
TORSDOF 7
