REMARK  Name = molecules/BOEGTKLJZSQCCD-UEKVPHQBSA-N.pdb
REMARK                            x       y       z     vdW  Elec       q    Type
REMARK                         _______ _______ _______ _____ _____    ______ ____
ROOT
ATOM      1  N   LIG    1       -0.136  -0.160   0.547  0.00  0.00    -0.300 N 
ATOM      2  C   LIG    1       -1.420  -0.132   1.173  0.00  0.00    +0.235 C 
ATOM      3  O   LIG    1       -1.676   0.727   2.085  0.00  0.00    -0.274 OA
ATOM      4  H   LIG    1        0.030  -0.864  -0.180  0.00  0.00    +0.150 HD
ENDROOT
BRANCH   1  10
ATOM      5  C   LIG    1        6.129  -0.698  -0.468  0.00  0.00    +0.042 C 
ATOM      6  C   LIG    1        4.677  -0.567  -0.088  0.00  0.00    -0.034 C 
ATOM      7  C   LIG    1        4.005  -1.818   0.302  0.00  0.00    +0.103 C 
ATOM      8  S   LIG    1        2.363  -1.580   0.988  0.00  0.00    -0.131 S 
ATOM      9  C   LIG    1        2.188   0.181   1.345  0.00  0.00    +0.169 C 
ATOM     10  CA  LIG    1        0.860   0.779   0.949  0.00  0.00    +0.191 C 
ATOM     11  C   LIG    1        1.531   1.535  -0.104  0.00  0.00    +0.244 C 
ATOM     12  O   LIG    1        1.172   2.412  -0.925  0.00  0.00    -0.273 OA
ATOM     13  N   LIG    1        2.741   0.868   0.193  0.00  0.00    -0.249 N 
ATOM     14  CA  LIG    1        4.112   0.630  -0.147  0.00  0.00    +0.122 C 
BRANCH  14  15
ATOM     15  C   LIG    1        4.865   1.805  -0.594  0.00  0.00    +0.351 C 
ATOM     16  O   LIG    1        6.059   1.677  -0.919  0.00  0.00    -0.244 OA
BRANCH  15  17
ATOM     17  OXT LIG    1        4.319   3.066  -0.675  0.00  0.00    -0.476 OA
ATOM     18  HXT LIG    1        4.061   3.412  -1.595  0.00  0.00    +0.295 HD
ENDBRANCH  15  17
ENDBRANCH  14  15
ENDBRANCH   1  10
BRANCH   2  19
ATOM     19  CA  LIG    1       -2.502  -1.060   0.821  0.00  0.00    +0.168 C 
BRANCH  19  20
ATOM     20  C   LIG    1       -3.750  -0.457   0.371  0.00  0.00    -0.022 A 
ATOM     21  C   LIG    1       -3.942   0.875   0.310  0.00  0.00    +0.009 A 
ATOM     22  C   LIG    1       -5.149   1.401  -0.119  0.00  0.00    +0.046 A 
ATOM     23  C   LIG    1       -6.181   0.547  -0.494  0.00  0.00    +0.117 A 
ATOM     24  C   LIG    1       -5.979  -0.799  -0.430  0.00  0.00    +0.046 A 
ATOM     25  C   LIG    1       -4.778  -1.296  -0.003  0.00  0.00    +0.009 A 
BRANCH  23  26
ATOM     26  O   LIG    1       -7.405   1.048  -0.930  0.00  0.00    -0.507 OA
ATOM     27  H   LIG    1       -7.604   2.030  -0.995  0.00  0.00    +0.292 HD
ENDBRANCH  23  26
ENDBRANCH  19  20
BRANCH  19  28
ATOM     28  N   LIG    1       -2.077  -2.083  -0.118  0.00  0.00    -0.316 NA
ATOM     29  H1  LIG    1       -2.711  -2.902   0.020  0.00  0.00    +0.119 HD
ATOM     30  H2  LIG    1       -2.245  -1.774  -1.122  0.00  0.00    +0.119 HD
ENDBRANCH  19  28
ENDBRANCH   2  19
TORSDOF 7
