REMARK  Name = molecules/BOFKYYWJAOZDPB-FZNHGJLXSA-N.pdb
REMARK                            x       y       z     vdW  Elec       q    Type
REMARK                         _______ _______ _______ _____ _____    ______ ____
ROOT
ATOM      1  C   LIG    1        1.087   1.648  -1.282  0.00  0.00    +0.179 C 
ATOM      2  C   LIG    1        0.978   2.902  -0.432  0.00  0.00    +0.057 C 
ATOM      3  C   LIG    1        0.146   2.460   0.769  0.00  0.00    +0.009 C 
ATOM      4  C   LIG    1       -0.348   1.111   0.396  0.00  0.00    +0.003 C 
ATOM      5  C   LIG    1       -1.739   0.753   0.779  0.00  0.00    -0.000 C 
ATOM      6  C   LIG    1       -2.047   0.934   2.219  0.00  0.00    +0.008 C 
ATOM      7  C   LIG    1       -3.280   0.278   2.699  0.00  0.00    +0.032 C 
ATOM      8  C   LIG    1       -3.653  -0.963   1.976  0.00  0.00    -0.056 C 
ATOM      9  C   LIG    1       -4.272  -1.887   2.657  0.00  0.00    +0.051 C 
ATOM     10  C   LIG    1       -4.675  -3.124   2.011  0.00  0.00    +0.179 C 
ATOM     11  O   LIG    1       -5.269  -3.996   2.697  0.00  0.00    -0.288 OA
ATOM     12  C   LIG    1       -4.372  -3.292   0.604  0.00  0.00    +0.047 C 
ATOM     13  C   LIG    1       -3.734  -2.327  -0.078  0.00  0.00    -0.012 C 
ATOM     14  C   LIG    1       -3.302  -1.075   0.509  0.00  0.00    +0.013 C 
ATOM     15  C   LIG    1       -4.171   0.029  -0.126  0.00  0.00    +0.020 C 
ATOM     16  C   LIG    1       -1.845  -0.757   0.457  0.00  0.00    +0.035 C 
ATOM     17  C   LIG    1       -1.044  -1.137  -0.700  0.00  0.00    +0.120 C 
ATOM     18  C   LIG    1       -0.767  -0.046  -1.708  0.00  0.00    +0.043 C 
ATOM     19  C   LIG    1       -0.397   1.250  -1.147  0.00  0.00    +0.020 C 
ATOM     20  C   LIG    1       -1.308   2.346  -1.552  0.00  0.00    +0.016 C 
ENDROOT
BRANCH  17  21
ATOM     21  O   LIG    1       -1.411  -2.269  -1.399  0.00  0.00    -0.391 OA
ATOM     22  H   LIG    1       -0.670  -2.769  -1.786  0.00  0.00    +0.210 HD
ENDBRANCH  17  21
BRANCH   1  23
ATOM     23  C   LIG    1        1.506   1.923  -2.647  0.00  0.00    +0.202 C 
ATOM     24  O   LIG    1        1.121   2.938  -3.271  0.00  0.00    -0.291 OA
BRANCH  23  25
ATOM     25  C   LIG    1        2.407   1.049  -3.437  0.00  0.00    +0.234 C 
BRANCH  25  26
ATOM     26  O   LIG    1        2.497   1.495  -4.790  0.00  0.00    -0.387 OA
ATOM     27  H   LIG    1        2.842   0.694  -5.272  0.00  0.00    +0.210 HD
ENDBRANCH  25  26
ENDBRANCH  23  25
ENDBRANCH   1  23
BRANCH   1  28
ATOM     28  O   LIG    1        1.774   0.619  -0.700  0.00  0.00    -0.450 OA
BRANCH  28  29
ATOM     29  C   LIG    1        3.084   0.511  -0.360  0.00  0.00    +0.308 C 
ATOM     30  O   LIG    1        3.796   1.514  -0.586  0.00  0.00    -0.251 OA
BRANCH  29  31
ATOM     31  C   LIG    1        3.691  -0.706   0.249  0.00  0.00    +0.120 C 
BRANCH  31  32
ATOM     32  C   LIG    1        5.153  -0.432   0.476  0.00  0.00    +0.011 C 
BRANCH  32  33
ATOM     33  C   LIG    1        5.859  -1.619   1.096  0.00  0.00    -0.003 C 
ATOM     34  C   LIG    1        5.270  -1.994   2.435  0.00  0.00    +0.004 C 
ENDBRANCH  32  33
ENDBRANCH  31  32
ENDBRANCH  29  31
ENDBRANCH  28  29
ENDBRANCH   1  28
TORSDOF 9
