REMARK  Name = molecules/BOVGTQGAOIONJV-BETUJISGSA-N.pdb
REMARK                            x       y       z     vdW  Elec       q    Type
REMARK                         _______ _______ _______ _____ _____    ______ ____
ROOT
ATOM      1  N   LIG    1       -0.880  -0.047   1.380  0.00  0.00    -0.231 N 
ATOM      2  H   LIG    1       -1.306  -0.498   2.221  0.00  0.00    +0.171 HD
ATOM      3  C   LIG    1        0.311  -0.619   0.877  0.00  0.00    +0.333 C 
ATOM      4  N   LIG    1        0.894  -1.748   1.483  0.00  0.00    -0.168 N 
ATOM      5  H   LIG    1        0.466  -2.214   2.338  0.00  0.00    +0.178 HD
ATOM      6  O   LIG    1        0.849  -0.109  -0.121  0.00  0.00    -0.250 OA
ENDROOT
BRANCH   1   7
ATOM      7  N   LIG    1       -1.505   1.056   0.837  0.00  0.00    -0.225 NA
ATOM      8  C   LIG    1       -2.803   1.211   1.455  0.00  0.00    +0.109 C 
ATOM      9  C   LIG    1       -3.696   0.202   0.775  0.00  0.00    +0.009 C 
ATOM     10  C   LIG    1       -5.007   0.780   0.330  0.00  0.00    +0.005 C 
ATOM     11  C   LIG    1       -5.295  -0.084  -0.902  0.00  0.00    +0.001 C 
ATOM     12  C   LIG    1       -3.967   0.054  -1.633  0.00  0.00    +0.005 C 
ATOM     13  C   LIG    1       -2.983  -0.125  -0.505  0.00  0.00    +0.009 C 
ATOM     14  C   LIG    1       -1.879   0.887  -0.553  0.00  0.00    +0.109 C 
ENDBRANCH   1   7
BRANCH   4  15
ATOM     15  S   LIG    1        2.342  -2.421   0.849  0.00  0.00    +0.076 S 
ATOM     16  O   LIG    1        3.091  -3.051   2.007  0.00  0.00    -0.150 OA
ATOM     17  O   LIG    1        2.014  -3.566  -0.089  0.00  0.00    -0.150 OA
BRANCH  15  18
ATOM     18  C   LIG    1        3.331  -1.242   0.060  0.00  0.00    +0.109 A 
ATOM     19  C   LIG    1        4.280  -0.548   0.779  0.00  0.00    +0.029 A 
ATOM     20  C   LIG    1        5.100   0.404   0.210  0.00  0.00    +0.005 A 
ATOM     21  C   LIG    1        4.929   0.642  -1.151  0.00  0.00    -0.050 A 
ATOM     22  C   LIG    1        5.791   1.662  -1.815  0.00  0.00    +0.044 C 
ATOM     23  C   LIG    1        3.999  -0.021  -1.915  0.00  0.00    +0.005 A 
ATOM     24  C   LIG    1        3.205  -0.968  -1.278  0.00  0.00    +0.029 A 
ENDBRANCH  15  18
ENDBRANCH   4  15
TORSDOF 3
