REMARK  Name = molecules/BPEGJWRSRHCHSN-UHFFFAOYSA-N.pdb
REMARK                            x       y       z     vdW  Elec       q    Type
REMARK                         _______ _______ _______ _____ _____    ______ ____
ROOT
ATOM      1  C   LIG    1       -1.836  -0.701   0.318  0.00  0.00    +0.171 A 
ATOM      2  N   LIG    1       -1.582  -1.730   1.141  0.00  0.00    -0.228 NA
ATOM      3  C   LIG    1       -0.252  -1.813   1.276  0.00  0.00    +0.210 A 
ATOM      4  N   LIG    1        0.343  -0.853   0.552  0.00  0.00    -0.232 N 
ATOM      5  C   LIG    1        1.625  -0.482   0.327  0.00  0.00    +0.353 A 
ATOM      6  O   LIG    1        2.562  -1.111   0.871  0.00  0.00    -0.244 OA
ATOM      7  N   LIG    1        1.941   0.554  -0.470  0.00  0.00    -0.199 N 
ATOM      8  C   LIG    1        3.306   0.973  -0.728  0.00  0.00    +0.179 C 
ATOM      9  N   LIG    1        0.953   1.225  -1.050  0.00  0.00    -0.060 NA
ATOM     10  N   LIG    1       -0.310   0.889  -0.851  0.00  0.00    -0.110 NA
ATOM     11  C   LIG    1       -0.625  -0.154  -0.048  0.00  0.00    +0.197 A 
ENDROOT
BRANCH   1  12
ATOM     12  C   LIG    1       -3.165  -0.235  -0.117  0.00  0.00    +0.264 C 
ATOM     13  O   LIG    1       -4.196  -0.810   0.281  0.00  0.00    -0.269 OA
ATOM     14  N   LIG    1       -3.268   0.868  -0.990  0.00  0.00    -0.324 N 
ATOM     15  H   LIG    1       -2.597   1.669  -0.975  0.00  0.00    +0.145 HD
ATOM     16  H   LIG    1       -4.035   0.951  -1.714  0.00  0.00    +0.145 HD
ENDBRANCH   1  12
TORSDOF 1
