REMARK  Name = molecules/BPKAHTKRCLCHEA-UBFJEZKGSA-N.pdb
REMARK                            x       y       z     vdW  Elec       q    Type
REMARK                         _______ _______ _______ _____ _____    ______ ____
ROOT
ATOM      1  C   LIG    1        1.510  -0.387  -0.579  0.00  0.00    +0.002 C 
ATOM      2  C   LIG    1        0.401   0.349   0.019  0.00  0.00    -0.022 C 
ATOM      3  C   LIG    1       -0.241  -0.204   1.236  0.00  0.00    +0.012 C 
ATOM      4  C   LIG    1        0.675   1.824   0.265  0.00  0.00    +0.008 C 
ATOM      5  C   LIG    1       -0.542   2.598   0.626  0.00  0.00    +0.005 C 
ATOM      6  C   LIG    1       -1.843   2.108   0.124  0.00  0.00    +0.031 C 
ATOM      7  C   LIG    1       -1.831   0.897  -0.689  0.00  0.00    -0.066 C 
ATOM      8  C   LIG    1       -2.973   0.278  -0.956  0.00  0.00    -0.001 C 
ATOM      9  C   LIG    1       -0.550   0.409  -1.193  0.00  0.00    +0.021 C 
ATOM     10  C   LIG    1       -0.561  -0.994  -1.701  0.00  0.00    +0.009 C 
ATOM     11  C   LIG    1        0.915  -1.351  -1.618  0.00  0.00    +0.005 C 
ENDROOT
BRANCH   8  12
ATOM     12  C   LIG    1       -4.264   0.705  -0.492  0.00  0.00    -0.001 C 
ATOM     13  C   LIG    1       -5.345   0.036  -0.805  0.00  0.00    -0.065 C 
ATOM     14  C   LIG    1       -6.679   0.539  -0.280  0.00  0.00    +0.062 C 
ATOM     15  C   LIG    1       -7.559  -0.667  -0.041  0.00  0.00    +0.121 C 
ATOM     16  C   LIG    1       -6.754  -1.874   0.393  0.00  0.00    +0.063 C 
ATOM     17  C   LIG    1       -5.790  -2.327  -0.682  0.00  0.00    +0.121 C 
ATOM     18  C   LIG    1       -5.438  -1.183  -1.618  0.00  0.00    +0.062 C 
BRANCH  17  19
ATOM     19  O   LIG    1       -4.606  -2.727  -0.047  0.00  0.00    -0.391 OA
ATOM     20  H   LIG    1       -4.858  -3.403   0.625  0.00  0.00    +0.210 HD
ENDBRANCH  17  19
BRANCH  15  21
ATOM     21  O   LIG    1       -8.387  -0.933  -1.106  0.00  0.00    -0.391 OA
ATOM     22  H   LIG    1       -9.320  -1.018  -0.834  0.00  0.00    +0.210 HD
ENDBRANCH  15  21
ENDBRANCH   8  12
BRANCH   1  24
ATOM     23  C   LIG    1        1.883  -2.337   0.987  0.00  0.00    +0.012 C 
ATOM     24  C   LIG    1        2.464  -1.163   0.240  0.00  0.00    +0.012 C 
BRANCH  24  25
ATOM     25  C   LIG    1        3.389  -0.347   1.046  0.00  0.00    -0.027 C 
ATOM     26  C   LIG    1        4.695  -0.460   0.868  0.00  0.00    -0.025 C 
BRANCH  26  27
ATOM     27  C   LIG    1        5.722   0.309   1.619  0.00  0.00    +0.039 C 
ATOM     28  C   LIG    1        5.100   1.273   2.602  0.00  0.00    +0.015 C 
BRANCH  27  29
ATOM     29  C   LIG    1        6.572   1.128   0.671  0.00  0.00    +0.066 C 
ATOM     30  C   LIG    1        5.762   2.129  -0.100  0.00  0.00    +0.041 C 
ATOM     31  C   LIG    1        7.291   0.248  -0.333  0.00  0.00    +0.041 C 
BRANCH  29  32
ATOM     32  O   LIG    1        7.546   1.828   1.384  0.00  0.00    -0.389 OA
ATOM     33  H   LIG    1        8.411   1.343   1.381  0.00  0.00    +0.210 HD
ENDBRANCH  29  32
ENDBRANCH  27  29
ENDBRANCH  26  27
ENDBRANCH  24  25
ENDBRANCH   1  24
TORSDOF 8
