REMARK  Name = molecules/BPKIMPVREBSLAJ-QTBYCLKRSA-N.pdb
REMARK                            x       y       z     vdW  Elec       q    Type
REMARK                         _______ _______ _______ _____ _____    ______ ____
ROOT
ATOM      1  CA  CYS A  1        3.553  -6.647  -5.254  0.00  0.00    +0.148 C 
ATOM      2  CB  CYS A  1        2.329  -7.486  -5.487  0.00  0.00    +0.109 C 
ATOM      3  SG  CYS A  1        1.435  -7.113  -6.990  0.00  0.00    -0.091 S 
ATOM      4  SG  CYS A 16       -0.664  -6.885  -6.573  0.00  0.00    -0.091 S 
ATOM      5  CB  CYS A 16       -0.767  -5.997  -4.992  0.00  0.00    +0.112 C 
ATOM      6  CA  CYS A 16       -2.096  -5.217  -4.865  0.00  0.00    +0.169 C 
ATOM      7  C   CYS A 16       -2.481  -5.328  -3.434  0.00  0.00    +0.235 C 
ATOM      8  N   THR A 17       -1.975  -4.555  -2.383  0.00  0.00    -0.300 N 
ATOM      9  H   THR A 17       -2.688  -4.026  -1.780  0.00  0.00    +0.150 HD
ATOM     10  CA  THR A 17       -0.616  -4.360  -1.965  0.00  0.00    +0.187 C 
ATOM     11  C   THR A 17       -0.277  -5.031  -0.680  0.00  0.00    +0.236 C 
ATOM     12  N   GLY A 18       -0.936  -4.830   0.554  0.00  0.00    -0.305 N 
ATOM     13  CA  GLY A 18       -1.225  -3.565   1.190  0.00  0.00    +0.200 C 
ATOM     14  C   GLY A 18       -1.375  -3.716   2.684  0.00  0.00    +0.231 C 
ATOM     15  N   SER A 19       -1.859  -2.649   3.453  0.00  0.00    -0.301 N 
ATOM     16  H   SER A 19       -1.454  -2.492   4.409  0.00  0.00    +0.150 HD
ATOM     17  CA  SER A 19       -2.888  -1.732   3.029  0.00  0.00    +0.184 C 
ATOM     18  C   SER A 19       -2.728  -0.351   3.496  0.00  0.00    +0.236 C 
ATOM     19  N   CYS A 20       -2.974   0.179   4.774  0.00  0.00    -0.302 N 
ATOM     20  CA  CYS A 20       -2.478  -0.281   6.051  0.00  0.00    +0.169 C 
ATOM     21  C   CYS A 20       -3.134   0.504   7.165  0.00  0.00    +0.235 C 
ATOM     22  N   ARG A 21       -4.146   0.051   7.994  0.00  0.00    -0.302 N 
ATOM     23  CA  ARG A 21       -4.173  -1.168   8.767  0.00  0.00    +0.159 C 
ATOM     24  C   ARG A 21       -5.505  -1.481   9.309  0.00  0.00    +0.234 C 
ATOM     25  O   ARG A 21       -5.959  -0.616  10.143  0.00  0.00    -0.274 OA
ATOM     26  N   UNK A 22       -6.314  -2.593   9.029  0.00  0.00    -0.301 N 
ATOM     27  H   UNK A 22       -6.647  -3.164   9.883  0.00  0.00    +0.150 HD
ATOM     28  C   UNK A 22       -6.769  -3.063   7.739  0.00  0.00    +0.184 C 
ATOM     29  C   UNK A 22       -5.970  -4.200   7.234  0.00  0.00    +0.236 C 
ATOM     30  O   UNK A 22       -4.778  -4.328   7.694  0.00  0.00    -0.274 OA
ATOM     31  N   UNK A 22       -6.374  -5.159   6.302  0.00  0.00    -0.305 N 
ATOM     32  H   UNK A 22       -6.243  -6.194   6.553  0.00  0.00    +0.149 HD
ATOM     33  C   UNK A 22       -6.970  -4.950   5.007  0.00  0.00    +0.200 C 
ATOM     34  C   UNK A 22       -8.473  -4.952   5.114  0.00  0.00    +0.231 C 
ATOM     35  O   UNK A 22       -8.977  -5.236   6.226  0.00  0.00    -0.274 OA
ATOM     36  N   UNK A 22       -9.291  -4.650   4.014  0.00  0.00    -0.303 N 
ATOM     37  H   UNK A 22      -10.273  -4.334   4.148  0.00  0.00    +0.149 HD
ATOM     38  C   UNK A 22       -8.843  -4.751   2.614  0.00  0.00    +0.159 C 
ATOM     39  C   UNK A 22       -9.425  -3.619   1.847  0.00  0.00    +0.234 C 
ATOM     40  O   UNK A 22      -10.517  -3.135   2.322  0.00  0.00    -0.274 OA
ATOM     41  N   UNK A 22       -8.884  -3.059   0.668  0.00  0.00    -0.302 N 
ATOM     42  H   UNK A 22       -9.019  -2.019   0.528  0.00  0.00    +0.150 HD
ATOM     43  C   UNK A 22       -8.171  -3.748  -0.371  0.00  0.00    +0.169 C 
ATOM     44  C   UNK A 22       -8.473  -3.111  -1.734  0.00  0.00    +0.112 C 
ATOM     45  S   UNK A 22       -7.529  -3.950  -3.030  0.00  0.00    -0.091 S 
ATOM     46  S   UNK A 15       -6.371  -2.510  -4.085  0.00  0.00    -0.091 S 
ATOM     47  C   UNK A 15       -4.676  -3.210  -4.277  0.00  0.00    +0.112 C 
ATOM     48  C   UNK A 15       -3.977  -2.337  -5.298  0.00  0.00    +0.169 C 
ATOM     49  C   UNK A 15       -2.776  -2.961  -5.904  0.00  0.00    +0.235 C 
ATOM     50  O   UNK A 15       -2.572  -2.575  -7.114  0.00  0.00    -0.274 OA
ATOM     51  N   UNK A 15       -4.939  -1.919  -6.297  0.00  0.00    -0.302 N 
ATOM     52  C   ASP A 14       -5.391  -0.630  -6.588  0.00  0.00    +0.235 C 
ATOM     53  O   ASP A 14       -6.668  -0.436  -6.502  0.00  0.00    -0.274 OA
ATOM     54  CA  ASP A 14       -4.605   0.562  -6.989  0.00  0.00    +0.169 C 
ATOM     55  N   ASP A 14       -3.433   0.808  -6.231  0.00  0.00    -0.302 N 
ATOM     56  C   TYR A 13       -3.245   1.908  -5.359  0.00  0.00    +0.234 C 
ATOM     57  O   TYR A 13       -2.570   1.712  -4.311  0.00  0.00    -0.274 OA
ATOM     58  CA  TYR A 13       -3.806   3.295  -5.609  0.00  0.00    +0.163 C 
ATOM     59  N   TYR A 13       -3.957   4.079  -4.457  0.00  0.00    -0.302 N 
ATOM     60  H   TYR A 13       -4.109   3.379  -3.575  0.00  0.00    +0.150 HD
ATOM     61  C   MET A 12       -4.008   5.383  -4.030  0.00  0.00    +0.234 C 
ATOM     62  O   MET A 12       -5.165   5.849  -3.688  0.00  0.00    -0.274 OA
ATOM     63  CA  MET A 12       -2.942   6.426  -3.867  0.00  0.00    +0.160 C 
ATOM     64  N   MET A 12       -1.706   5.968  -4.425  0.00  0.00    -0.302 N 
ATOM     65  C   LEU A 11       -0.495   6.641  -4.375  0.00  0.00    +0.234 C 
ATOM     66  CA  LEU A 11       -0.067   7.819  -3.588  0.00  0.00    +0.159 C 
ATOM     67  N   LEU A 11        0.872   7.239  -2.564  0.00  0.00    -0.302 N 
ATOM     68  C   ARG A 10        1.149   7.919  -1.345  0.00  0.00    +0.234 C 
ATOM     69  CA  ARG A 10        0.129   8.424  -0.398  0.00  0.00    +0.159 C 
ATOM     70  N   ARG A 10       -0.263   7.524   0.633  0.00  0.00    -0.302 N 
ATOM     71  C   SER A  9        0.178   7.258   1.910  0.00  0.00    +0.236 C 
ATOM     72  O   SER A  9       -0.666   7.529   2.866  0.00  0.00    -0.274 OA
ATOM     73  CA  SER A  9        1.454   6.709   2.426  0.00  0.00    +0.184 C 
ATOM     74  N   SER A  9        1.850   5.497   1.738  0.00  0.00    -0.301 N 
ATOM     75  C   CYS A  8        2.676   4.495   2.216  0.00  0.00    +0.235 C 
ATOM     76  CA  CYS A  8        2.687   3.821   3.525  0.00  0.00    +0.169 C 
ATOM     77  N   CYS A  8        3.456   4.482   4.546  0.00  0.00    -0.302 N 
ATOM     78  C   LYS A  7        4.447   3.831   5.376  0.00  0.00    +0.234 C 
ATOM     79  O   LYS A  7        4.535   4.117   6.551  0.00  0.00    -0.274 OA
ATOM     80  CA  LYS A  7        5.340   2.814   4.739  0.00  0.00    +0.159 C 
ATOM     81  N   LYS A  7        6.007   3.388   3.593  0.00  0.00    -0.302 N 
ATOM     82  H   LYS A  7        5.578   4.296   3.204  0.00  0.00    +0.150 HD
ATOM     83  C   ALA A  6        7.140   2.940   2.916  0.00  0.00    +0.234 C 
ATOM     84  O   ALA A  6        8.130   3.772   2.783  0.00  0.00    -0.274 OA
ATOM     85  CA  ALA A  6        7.404   1.624   2.302  0.00  0.00    +0.156 C 
ATOM     86  N   ALA A  6        8.665   1.075   2.799  0.00  0.00    -0.303 N 
ATOM     87  H   ALA A  6        9.022   1.479   3.692  0.00  0.00    +0.149 HD
ATOM     88  C   GLY A  5        9.365   0.064   2.114  0.00  0.00    +0.231 C 
ATOM     89  O   GLY A  5       10.285  -0.502   2.830  0.00  0.00    -0.274 OA
ATOM     90  CA  GLY A  5        9.167  -0.391   0.757  0.00  0.00    +0.200 C 
ATOM     91  N   GLY A  5       10.450  -0.259   0.045  0.00  0.00    -0.305 N 
ATOM     92  H   GLY A  5       10.846   0.720   0.070  0.00  0.00    +0.149 HD
ATOM     93  C   LYS A  4       11.109  -1.307  -0.621  0.00  0.00    +0.234 C 
ATOM     94  O   LYS A  4       12.364  -1.166  -0.841  0.00  0.00    -0.274 OA
ATOM     95  CA  LYS A  4       10.456  -2.574  -1.089  0.00  0.00    +0.159 C 
ATOM     96  N   LYS A  4       10.968  -2.918  -2.385  0.00  0.00    -0.303 N 
ATOM     97  H   LYS A  4       11.767  -2.315  -2.756  0.00  0.00    +0.149 HD
ATOM     98  C   GLY A  3       10.504  -3.958  -3.212  0.00  0.00    +0.231 C 
ATOM     99  CA  GLY A  3        9.063  -4.286  -3.451  0.00  0.00    +0.200 C 
ATOM    100  N   GLY A  3        8.893  -4.628  -4.848  0.00  0.00    -0.305 N 
ATOM    101  H   GLY A  3        9.761  -4.612  -5.478  0.00  0.00    +0.149 HD
ATOM    102  C   LYS A  2        7.693  -4.998  -5.484  0.00  0.00    +0.234 C 
ATOM    103  CA  LYS A  2        6.742  -6.042  -5.027  0.00  0.00    +0.159 C 
ATOM    104  N   LYS A  2        5.932  -6.478  -6.177  0.00  0.00    -0.303 N 
ATOM    105  H   LYS A  2        6.368  -6.303  -7.126  0.00  0.00    +0.149 HD
ATOM    106  O   LYS A  2        7.400  -4.367  -6.562  0.00  0.00    -0.274 OA
ATOM    107  O   GLY A  3       11.329  -4.684  -3.815  0.00  0.00    -0.274 OA
ATOM    108  CB  ALA A  6        6.341   0.588   2.562  0.00  0.00    +0.038 C 
ATOM    109  H   CYS A  8        3.281   5.499   4.698  0.00  0.00    +0.150 HD
ATOM    110  CB  CYS A  8        1.300   3.571   4.094  0.00  0.00    +0.112 C 
ATOM    111  SG  CYS A  8        1.283   2.033   5.069  0.00  0.00    -0.091 S 
ATOM    112  SG  CYS A 20       -0.356   0.794   4.615  0.00  0.00    -0.091 S 
ATOM    113  O   CYS A  8        3.578   4.076   1.399  0.00  0.00    -0.274 OA
ATOM    114  H   SER A  9        1.429   5.407   0.746  0.00  0.00    +0.150 HD
ATOM    115  H   ARG A 10       -1.130   6.908   0.333  0.00  0.00    +0.150 HD
ATOM    116  O   ARG A 10        2.404   8.081  -1.093  0.00  0.00    -0.274 OA
ATOM    117  H   LEU A 11        1.339   6.326  -2.738  0.00  0.00    +0.150 HD
ATOM    118  O   LEU A 11        0.463   6.183  -5.136  0.00  0.00    -0.274 OA
ATOM    119  H   MET A 12       -1.709   5.001  -4.914  0.00  0.00    +0.150 HD
ATOM    120  H   ASP A 14       -2.645   0.096  -6.352  0.00  0.00    +0.150 HD
ATOM    121  H   UNK A 15       -5.347  -2.734  -6.863  0.00  0.00    +0.150 HD
ATOM    122  H   ARG A 21       -5.021   0.672   8.087  0.00  0.00    +0.150 HD
ATOM    123  O   CYS A 20       -2.689   1.685   7.321  0.00  0.00    -0.274 OA
ATOM    124  CB  CYS A 20       -0.997   0.074   6.137  0.00  0.00    +0.112 C 
ATOM    125  H   CYS A 20       -3.620   1.047   4.847  0.00  0.00    +0.150 HD
ATOM    126  O   SER A 19       -2.297   0.482   2.602  0.00  0.00    -0.274 OA
ATOM    127  O   GLY A 18       -1.038  -4.831   3.167  0.00  0.00    -0.274 OA
ATOM    128  H   GLY A 18       -1.277  -5.676   1.115  0.00  0.00    +0.149 HD
ATOM    129  O   THR A 17        0.696  -5.874  -0.652  0.00  0.00    -0.274 OA
ATOM    130  O   CYS A 16       -3.368  -6.235  -3.184  0.00  0.00    -0.274 OA
ATOM    131  N   CYS A 16       -1.884  -3.874  -5.325  0.00  0.00    -0.302 N 
ATOM    132  H   CYS A 16       -0.852  -3.554  -5.201  0.00  0.00    +0.150 HD
ATOM    133  C   CYS A  1        4.683  -7.085  -6.112  0.00  0.00    +0.231 C 
ATOM    134  O   CYS A  1        4.484  -8.111  -6.853  0.00  0.00    -0.274 OA
ENDROOT
BRANCH  43 135
ATOM    135  C   UNK A 22       -6.773  -3.983  -0.156  0.00  0.00    +0.232 C 
ATOM    136  O   UNK A 22       -6.089  -3.629   0.799  0.00  0.00    -0.274 OA
ATOM    137  N   UNK A 22       -6.001  -4.727  -1.173  0.00  0.00    -0.328 N 
ATOM    138  H   UNK A 22       -6.390  -5.618  -1.469  0.00  0.00    +0.145 HD
ATOM    139  H   UNK A 22       -5.129  -4.329  -1.521  0.00  0.00    +0.145 HD
ENDBRANCH  43 135
BRANCH   1 140
ATOM    140  N   CYS A  1        3.320  -5.239  -5.293  0.00  0.00    -0.319 NA
ATOM    141  H1  CYS A  1        3.637  -4.744  -4.430  0.00  0.00    +0.119 HD
ATOM    142  H2  CYS A  1        3.860  -4.859  -6.109  0.00  0.00    +0.119 HD
ENDBRANCH   1 140
BRANCH  10 143
ATOM    143  CB  THR A 17       -0.124  -2.946  -2.081  0.00  0.00    +0.141 C 
ATOM    144  CG2 THR A 17       -1.030  -1.879  -1.595  0.00  0.00    +0.040 C 
BRANCH 143 145
ATOM    145  OG1 THR A 17        1.185  -2.885  -1.598  0.00  0.00    -0.390 OA
ATOM    146  HG1 THR A 17        1.290  -3.462  -0.794  0.00  0.00    +0.210 HD
ENDBRANCH 143 145
ENDBRANCH  10 143
BRANCH  38 147
ATOM    147  C   UNK A 22       -9.370  -6.094   2.094  0.00  0.00    +0.032 C 
BRANCH 147 148
ATOM    148  C   UNK A 22      -10.867  -6.147   2.146  0.00  0.00    +0.003 C 
BRANCH 148 149
ATOM    149  C   UNK A 22      -11.336  -7.464   1.592  0.00  0.00    +0.015 C 
BRANCH 149 150
ATOM    150  C   UNK A 22      -10.799  -8.638   2.336  0.00  0.00    +0.077 C 
BRANCH 150 151
ATOM    151  N   UNK A 22      -11.152  -8.656   3.726  0.00  0.00    -0.330 NA
ATOM    152  H   UNK A 22      -10.325  -8.700   4.364  0.00  0.00    +0.118 HD
ATOM    153  H   UNK A 22      -11.851  -7.928   3.990  0.00  0.00    +0.118 HD
ENDBRANCH 150 151
ENDBRANCH 149 150
ENDBRANCH 148 149
ENDBRANCH 147 148
ENDBRANCH  38 147
BRANCH  63 154
ATOM    154  CB  MET A 12       -3.352   7.809  -4.233  0.00  0.00    +0.042 C 
BRANCH 154 155
ATOM    155  CG  MET A 12       -4.637   8.317  -3.598  0.00  0.00    +0.071 C 
BRANCH 155 156
ATOM    156  SD  MET A 12       -4.723  10.086  -4.154  0.00  0.00    -0.164 S 
ATOM    157  CE  MET A 12       -4.883  10.130  -5.963  0.00  0.00    +0.084 C 
ENDBRANCH 155 156
ENDBRANCH 154 155
ENDBRANCH  63 154
BRANCH  66 158
ATOM    158  CB  LEU A 11        0.733   8.721  -4.492  0.00  0.00    +0.034 C 
BRANCH 158 159
ATOM    159  CG  LEU A 11        0.050   9.457  -5.552  0.00  0.00    -0.015 C 
ATOM    160  CD2 LEU A 11       -0.692  10.695  -5.090  0.00  0.00    +0.007 C 
ATOM    161  CD1 LEU A 11       -0.707   8.742  -6.598  0.00  0.00    +0.007 C 
ENDBRANCH 158 159
ENDBRANCH  66 158
BRANCH  58 162
ATOM    162  CB  TYR A 13       -3.341   3.785  -6.907  0.00  0.00    +0.067 C 
BRANCH 162 163
ATOM    163  CG  TYR A 13       -4.110   4.796  -7.615  0.00  0.00    -0.045 A 
ATOM    164  CD2 TYR A 13       -3.834   6.116  -7.594  0.00  0.00    +0.007 A 
ATOM    165  CE2 TYR A 13       -4.603   7.061  -8.297  0.00  0.00    +0.045 A 
ATOM    166  CZ  TYR A 13       -5.693   6.625  -9.052  0.00  0.00    +0.117 A 
ATOM    167  CE1 TYR A 13       -5.989   5.264  -9.087  0.00  0.00    +0.045 A 
ATOM    168  CD1 TYR A 13       -5.202   4.402  -8.377  0.00  0.00    +0.007 A 
BRANCH 166 169
ATOM    169  OH  TYR A 13       -6.451   7.548  -9.745  0.00  0.00    -0.507 OA
ATOM    170  HH  TYR A 13       -7.236   7.191 -10.286  0.00  0.00    +0.292 HD
ENDBRANCH 166 169
ENDBRANCH 162 163
ENDBRANCH  58 162
BRANCH  54 171
ATOM    171  CB  ASP A 14       -4.305   0.320  -8.489  0.00  0.00    +0.152 C 
BRANCH 171 172
ATOM    172  CG  ASP A 14       -5.574   0.092  -9.211  0.00  0.00    +0.307 C 
ATOM    173  OD2 ASP A 14       -5.941  -1.148  -9.356  0.00  0.00    -0.251 OA
BRANCH 172 174
ATOM    174  OD1 ASP A 14       -6.413   1.013  -9.751  0.00  0.00    -0.481 OA
ATOM    175  HD1 ASP A 14       -7.218   1.316  -9.219  0.00  0.00    +0.295 HD
ENDBRANCH 172 174
ENDBRANCH 171 172
ENDBRANCH  54 171
BRANCH  23 176
ATOM    176  CB  ARG A 21       -3.251  -0.986   9.985  0.00  0.00    +0.035 C 
BRANCH 176 177
ATOM    177  CG  ARG A 21       -3.270  -2.214  10.847  0.00  0.00    +0.039 C 
BRANCH 177 178
ATOM    178  CD  ARG A 21       -2.355  -1.988  12.043  0.00  0.00    +0.196 C 
BRANCH 178 179
ATOM    179  NE  ARG A 21       -2.357  -3.113  12.929  0.00  0.00    -0.276 N 
ATOM    180  HE  ARG A 21       -1.531  -3.709  13.049  0.00  0.00    +0.258 HD
BRANCH 179 181
ATOM    181  CZ  ARG A 21       -3.534  -3.425  13.671  0.00  0.00    +0.376 C 
ATOM    182  NH2 ARG A 21       -3.559  -4.519  14.577  0.00  0.00    -0.289 N 
ATOM    183 HH21 ARG A 21       -2.952  -4.574  15.430  0.00  0.00    +0.255 HD
ATOM    184 HH22 ARG A 21       -4.209  -5.311  14.401  0.00  0.00    +0.255 HD
BRANCH 181 185
ATOM    185  NH1 ARG A 21       -4.596  -2.691  13.493  0.00  0.00    -0.130 NA
ATOM    186  HH1 ARG A 21       -5.479  -2.842  13.980  0.00  0.00    +0.306 HD
ENDBRANCH 181 185
ENDBRANCH 179 181
ENDBRANCH 178 179
ENDBRANCH 177 178
ENDBRANCH 176 177
ENDBRANCH  23 176
BRANCH  28 187
ATOM    187  C   UNK A 22       -6.915  -1.933   6.726  0.00  0.00    +0.187 C 
BRANCH 187 188
ATOM    188  O   UNK A 22       -7.864  -1.033   7.263  0.00  0.00    -0.393 OA
ATOM    189  H   UNK A 22       -8.756  -1.430   7.048  0.00  0.00    +0.209 HD
ENDBRANCH 187 188
ENDBRANCH  28 187
BRANCH  17 190
ATOM    190  CB  SER A 19       -4.225  -2.368   3.376  0.00  0.00    +0.187 C 
BRANCH 190 191
ATOM    191  OG  SER A 19       -4.356  -2.631   4.727  0.00  0.00    -0.393 OA
ATOM    192  H   SER A 19       -3.781  -3.390   4.980  0.00  0.00    +0.209 HD
ENDBRANCH 190 191
ENDBRANCH  17 190
BRANCH  69 193
ATOM    193  CB  ARG A 10        0.464   9.842   0.096  0.00  0.00    +0.035 C 
BRANCH 193 194
ATOM    194  CG  ARG A 10        0.823  10.717  -1.057  0.00  0.00    +0.039 C 
BRANCH 194 195
ATOM    195  CD  ARG A 10        1.112  12.137  -0.692  0.00  0.00    +0.196 C 
BRANCH 195 196
ATOM    196  NE  ARG A 10        2.222  12.342   0.189  0.00  0.00    -0.276 N 
ATOM    197  HE  ARG A 10        3.117  12.814  -0.159  0.00  0.00    +0.258 HD
BRANCH 196 198
ATOM    198  CZ  ARG A 10        2.208  11.953   1.527  0.00  0.00    +0.376 C 
ATOM    199  NH2 ARG A 10        1.041  11.978   2.331  0.00  0.00    -0.289 N 
ATOM    200 HH21 ARG A 10        0.906  11.348   3.155  0.00  0.00    +0.255 HD
ATOM    201 HH22 ARG A 10        0.280  12.639   2.092  0.00  0.00    +0.255 HD
BRANCH 198 202
ATOM    202  NH1 ARG A 10        3.300  11.554   2.100  0.00  0.00    -0.130 NA
ATOM    203  HH1 ARG A 10        4.223  11.503   1.606  0.00  0.00    +0.306 HD
ENDBRANCH 198 202
ENDBRANCH 196 198
ENDBRANCH 195 196
ENDBRANCH 194 195
ENDBRANCH 193 194
ENDBRANCH  69 193
BRANCH  73 204
ATOM    204  CB  SER A  9        2.558   7.733   2.518  0.00  0.00    +0.187 C 
BRANCH 204 205
ATOM    205  OG  SER A  9        2.131   8.874   3.226  0.00  0.00    -0.393 OA
ATOM    206  H   SER A  9        2.943   9.164   3.748  0.00  0.00    +0.209 HD
ENDBRANCH 204 205
ENDBRANCH  73 204
BRANCH 103 207
ATOM    207  CB  LYS A  2        7.472  -7.316  -4.583  0.00  0.00    +0.032 C 
BRANCH 207 208
ATOM    208  CG  LYS A  2        8.333  -7.852  -5.688  0.00  0.00    +0.003 C 
BRANCH 208 209
ATOM    209  CD  LYS A  2        9.025  -9.122  -5.227  0.00  0.00    +0.015 C 
BRANCH 209 210
ATOM    210  CE  LYS A  2        9.889  -9.684  -6.339  0.00  0.00    +0.077 C 
BRANCH 210 211
ATOM    211  NZ  LYS A  2        9.105  -9.985  -7.518  0.00  0.00    -0.330 NA
ATOM    212  HZ1 LYS A  2        8.851  -9.062  -7.986  0.00  0.00    +0.118 HD
ATOM    213  HZ2 LYS A  2        9.746 -10.445  -8.210  0.00  0.00    +0.118 HD
ENDBRANCH 210 211
ENDBRANCH 209 210
ENDBRANCH 208 209
ENDBRANCH 207 208
ENDBRANCH 103 207
BRANCH  95 214
ATOM    214  CB  LYS A  4       10.626  -3.675  -0.120  0.00  0.00    +0.032 C 
BRANCH 214 215
ATOM    215  CG  LYS A  4       11.988  -4.129   0.207  0.00  0.00    +0.003 C 
BRANCH 215 216
ATOM    216  CD  LYS A  4       12.774  -4.688  -0.925  0.00  0.00    +0.015 C 
BRANCH 216 217
ATOM    217  CE  LYS A  4       14.155  -5.165  -0.460  0.00  0.00    +0.077 C 
BRANCH 217 218
ATOM    218  NZ  LYS A  4       14.036  -6.194   0.546  0.00  0.00    -0.330 NA
ATOM    219  HZ1 LYS A  4       13.930  -5.811   1.504  0.00  0.00    +0.118 HD
ATOM    220  HZ2 LYS A  4       13.396  -6.960   0.312  0.00  0.00    +0.118 HD
ENDBRANCH 217 218
ENDBRANCH 216 217
ENDBRANCH 215 216
ENDBRANCH 214 215
ENDBRANCH  95 214
BRANCH  80 221
ATOM    221  CB  LYS A  7        6.301   2.262   5.773  0.00  0.00    +0.032 C 
BRANCH 221 222
ATOM    222  CG  LYS A  7        7.265   3.254   6.317  0.00  0.00    +0.003 C 
BRANCH 222 223
ATOM    223  CD  LYS A  7        8.294   2.720   7.262  0.00  0.00    +0.015 C 
BRANCH 223 224
ATOM    224  CE  LYS A  7        7.737   2.110   8.483  0.00  0.00    +0.077 C 
BRANCH 224 225
ATOM    225  NZ  LYS A  7        6.929   0.970   8.205  0.00  0.00    -0.330 NA
ATOM    226  HZ1 LYS A  7        6.302   0.767   9.031  0.00  0.00    +0.118 HD
ATOM    227  HZ2 LYS A  7        7.585   0.165   8.037  0.00  0.00    +0.118 HD
ENDBRANCH 224 225
ENDBRANCH 223 224
ENDBRANCH 222 223
ENDBRANCH 221 222
ENDBRANCH  80 221
TORSDOF 53
