REMARK  Name = molecules/BPLBGHOLXOTWMN-MBNYWOFBSA-N.pdb
REMARK                            x       y       z     vdW  Elec       q    Type
REMARK                         _______ _______ _______ _____ _____    ______ ____
ROOT
ATOM      1  C   LIG    1       -4.661  -1.674   1.320  0.00  0.00    +0.025 C 
ATOM      2  C   LIG    1       -3.648  -0.577   1.010  0.00  0.00    +0.042 C 
ATOM      3  C   LIG    1       -3.292   0.177   2.243  0.00  0.00    +0.025 C 
ATOM      4  S   LIG    1       -2.194  -1.293   0.182  0.00  0.00    -0.127 S 
ATOM      5  C   LIG    1       -2.317  -0.330  -1.370  0.00  0.00    +0.165 C 
ATOM      6  N   LIG    1       -3.060   0.803  -0.862  0.00  0.00    -0.271 N 
ATOM      7  C   LIG    1       -2.133   1.637  -1.530  0.00  0.00    +0.240 C 
ATOM      8  O   LIG    1       -2.073   2.850  -1.928  0.00  0.00    -0.273 OA
ATOM      9  CA  LIG    1       -1.127   0.549  -1.646  0.00  0.00    +0.190 C 
ATOM     10  CA  LIG    1       -4.168   0.349  -0.071  0.00  0.00    +0.201 C 
ENDROOT
BRANCH   9  11
ATOM     11  N   LIG    1       -0.089   0.550  -0.678  0.00  0.00    -0.299 N 
ATOM     12  H   LIG    1       -0.314   0.712   0.321  0.00  0.00    +0.150 HD
ATOM     13  C   LIG    1        1.257   0.333  -1.046  0.00  0.00    +0.251 C 
ATOM     14  O   LIG    1        1.550   0.135  -2.248  0.00  0.00    -0.272 OA
BRANCH  13  15
ATOM     15  C   LIG    1        2.376   0.325  -0.069  0.00  0.00    +0.324 C 
BRANCH  15  16
ATOM     16  O   LIG    1        3.612   0.090  -0.670  0.00  0.00    -0.483 OA
BRANCH  16  17
ATOM     17  C   LIG    1        4.816   0.026  -0.029  0.00  0.00    +0.121 A 
ATOM     18  C   LIG    1        4.945   0.193   1.334  0.00  0.00    +0.045 A 
ATOM     19  C   LIG    1        6.174   0.123   1.952  0.00  0.00    +0.004 A 
ATOM     20  C   LIG    1        7.323  -0.117   1.232  0.00  0.00    +0.000 A 
ATOM     21  C   LIG    1        7.213  -0.288  -0.138  0.00  0.00    +0.004 A 
ATOM     22  C   LIG    1        5.969  -0.214  -0.744  0.00  0.00    +0.045 A 
ENDBRANCH  16  17
ENDBRANCH  15  16
ENDBRANCH  13  15
ENDBRANCH   9  11
BRANCH  10  23
ATOM     23  C   LIG    1       -5.176  -0.260  -0.938  0.00  0.00    +0.327 C 
ATOM     24  OXT LIG    1       -6.239  -0.760  -0.506  0.00  0.00    -0.249 OA
BRANCH  23  25
ATOM     25  O   LIG    1       -4.973  -0.299  -2.306  0.00  0.00    -0.479 OA
ATOM     26  H   LIG    1       -4.639   0.517  -2.825  0.00  0.00    +0.295 HD
ENDBRANCH  23  25
ENDBRANCH  10  23
TORSDOF 6
