REMARK  Name = molecules/BPQMGSKTAYIVFO-UHFFFAOYSA-N.pdb
REMARK                            x       y       z     vdW  Elec       q    Type
REMARK                         _______ _______ _______ _____ _____    ______ ____
ROOT
ATOM      1  N   LIG    1       -0.041  -0.105  -0.581  0.00  0.00    -0.281 N 
ATOM      2  H   LIG    1       -0.009  -0.264   0.483  0.00  0.00    +0.155 HD
ATOM      3  C   LIG    1       -1.243   0.052  -1.251  0.00  0.00    +0.250 C 
ATOM      4  O   LIG    1       -1.381   0.235  -2.452  0.00  0.00    -0.270 OA
ENDROOT
BRANCH   1   9
ATOM      5 CL   LIG    1        5.413  -0.027  -2.960  0.00  0.00    -0.083 Cl
ATOM      6  C   LIG    1        3.819  -0.047  -2.272  0.00  0.00    +0.050 A 
ATOM      7  C   LIG    1        3.661  -0.065  -0.892  0.00  0.00    +0.020 A 
ATOM      8  C   LIG    1        2.393  -0.080  -0.414  0.00  0.00    +0.034 A 
ATOM      9  C   LIG    1        1.226  -0.079  -1.209  0.00  0.00    +0.034 A 
ATOM     10  C   LIG    1        1.432  -0.061  -2.567  0.00  0.00    +0.025 A 
ATOM     11  C   LIG    1        2.727  -0.045  -3.112  0.00  0.00    +0.022 A 
BRANCH   7  12
ATOM     12  C   LIG    1        4.867  -0.066  -0.075  0.00  0.00    +0.072 A 
ATOM     13  C   LIG    1        4.872  -0.082   1.302  0.00  0.00    +0.028 A 
ATOM     14  C   LIG    1        6.038  -0.083   2.063  0.00  0.00    +0.004 A 
ATOM     15  C   LIG    1        7.256  -0.066   1.420  0.00  0.00    +0.020 A 
ATOM     16  C   LIG    1        7.244  -0.050   0.044  0.00  0.00    +0.111 A 
ATOM     17  N   LIG    1        6.102  -0.050  -0.657  0.00  0.00    -0.255 NA
ENDBRANCH   7  12
ENDBRANCH   1   9
BRANCH   3  18
ATOM     18  C   LIG    1       -2.488  -0.004  -0.451  0.00  0.00    +0.055 A 
ATOM     19  C   LIG    1       -2.953   1.182   0.064  0.00  0.00    +0.055 A 
ATOM     20  C   LIG    1       -4.114   1.155   0.814  0.00  0.00    +0.047 A 
ATOM     21  C   LIG    1       -4.816  -0.001   1.063  0.00  0.00    +0.089 A 
ATOM     22  C   LIG    1       -4.316  -1.188   0.525  0.00  0.00    +0.028 A 
ATOM     23 CL   LIG    1       -2.089   2.670  -0.232  0.00  0.00    -0.083 Cl
ATOM     24  C   LIG    1       -3.161  -1.186  -0.226  0.00  0.00    +0.016 A 
BRANCH  21  25
ATOM     25  S   LIG    1       -6.279  -0.007   2.013  0.00  0.00    -0.006 S 
ATOM     26  O   LIG    1       -6.234   1.013   3.092  0.00  0.00    -0.170 OA
ATOM     27  O   LIG    1       -6.370  -1.364   2.673  0.00  0.00    -0.170 OA
ATOM     28  C   LIG    1       -7.652   0.244   0.902  0.00  0.00    +0.200 C 
ENDBRANCH  21  25
ENDBRANCH   3  18
TORSDOF 4
