REMARK  Name = molecules/BPSMYQFMCXXNPC-PFJUCRORSA-N.pdb
REMARK                            x       y       z     vdW  Elec       q    Type
REMARK                         _______ _______ _______ _____ _____    ______ ____
ROOT
ATOM      1  C   UNK A  0        0.597  -9.649   0.000  0.00  0.00    +0.000 C 
ENDROOT
BRANCH   1   2
ATOM      2  C   UNK A  0        0.336 -11.127   0.000  0.00  0.00    +0.000 C 
BRANCH   2   3
ATOM      3  C   UNK A  0        0.076 -12.604   0.000  0.00  0.00    +0.000 C 
BRANCH   3   4
ATOM      4  C   UNK A  0       -0.185 -14.081   0.000  0.00  0.00    +0.000 C 
BRANCH   4   5
ATOM      5  C   UNK A  0       -0.445 -15.558   0.000  0.00  0.00    +0.004 C 
BRANCH   5   6
ATOM      6  C   UNK A  0       -0.706 -17.035   0.000  0.00  0.00    +0.027 C 
BRANCH   6   7
ATOM      7  C   UNK A  0       -0.966 -18.512   0.000  0.00  0.00    -0.031 C 
ATOM      8  C   UNK A  0        0.183 -19.477   0.000  0.00  0.00    -0.031 C 
BRANCH   8   9
ATOM      9  C   UNK A  0        1.593 -18.964   0.000  0.00  0.00    +0.027 C 
BRANCH   9  10
ATOM     10  C   UNK A  0        3.002 -18.451   0.000  0.00  0.00    +0.004 C 
BRANCH  10  11
ATOM     11  C   UNK A  0        4.412 -17.938   0.000  0.00  0.00    +0.000 C 
BRANCH  11  12
ATOM     12  C   UNK A  0        5.821 -17.425   0.000  0.00  0.00    -0.000 C 
BRANCH  12  13
ATOM     13  C   UNK A  0        7.231 -16.912   0.000  0.00  0.00    -0.003 C 
ATOM     14  C   UNK A  0        8.640 -16.398   0.000  0.00  0.00    +0.004 C 
ENDBRANCH  12  13
ENDBRANCH  11  12
ENDBRANCH  10  11
ENDBRANCH   9  10
ENDBRANCH   8   9
ENDBRANCH   6   7
ENDBRANCH   5   6
ENDBRANCH   4   5
ENDBRANCH   3   4
ENDBRANCH   2   3
ENDBRANCH   1   2
BRANCH   1  15
ATOM     15  C   UNK A  0        0.857  -8.172   0.000  0.00  0.00    +0.000 C 
BRANCH  15  16
ATOM     16  C   UNK A  0        1.118  -6.695   0.000  0.00  0.00    +0.009 C 
BRANCH  16  17
ATOM     17  C   UNK A  0        1.378  -5.218   0.000  0.00  0.00    +0.096 C 
BRANCH  17  21
ATOM     18  CA  SER A  1        0.750  -1.299   0.000  0.00  0.00    +0.061 C 
ATOM     19  N   SER A  1        0.489  -2.776   0.000  0.00  0.00    -0.287 N 
ATOM     20  H   SER A  1       -0.387  -3.223   0.000  0.00  0.00    +0.154 HD
ATOM     21  C   UNK A  0        1.639  -3.740   0.000  0.00  0.00    +0.217 C 
ATOM     22  O   UNK A  0        3.048  -3.227   0.000  0.00  0.00    -0.275 OA
BRANCH  18  23
ATOM     23  CB  SER A  1       -0.750  -1.299   0.000  0.00  0.00    +0.237 C 
ATOM     24  OG  SER A  1       -2.159  -1.812   0.000  0.00  0.00    -0.222 OA
ENDBRANCH  18  23
BRANCH  18  25
ATOM     25  C   SER A  1        1.500   0.000   0.000  0.00  0.00    +0.176 C 
BRANCH  25  26
ATOM     26  O   SER A  1        2.649  -0.964   0.000  0.00  0.00    -0.376 OA
ATOM     27  H   SER A  1        2.159  -1.812   0.000  0.00  0.00    +0.211 HD
ENDBRANCH  25  26
ENDBRANCH  18  25
ENDBRANCH  17  21
ENDBRANCH  16  17
ENDBRANCH  15  16
ENDBRANCH   1  15
TORSDOF 18
REMARK  Name = molecules/BPSMYQFMCXXNPC-PFJUCRORSA-N.pdb
REMARK                            x       y       z     vdW  Elec       q    Type
REMARK                         _______ _______ _______ _____ _____    ______ ____
ROOT
ATOM      1  C   LIG    1        6.878   0.575   0.000  0.00  0.00    +0.118 C 
ENDROOT
BRANCH   1   3
ATOM      2  C   LIG    1        4.059  -0.451   0.000  0.00  0.00    +0.003 C 
ATOM      3  C   LIG    1        5.468   0.062   0.000  0.00  0.00    +0.031 C 
ENDBRANCH   1   3
BRANCH   1   4
ATOM      4  O   LIG    1        8.287   1.088   0.000  0.00  0.00    -0.380 OA
ATOM      5  C   LIG    1        9.436   0.124   0.000  0.00  0.00    +0.194 C 
ENDBRANCH   1   4
BRANCH   1   6
ATOM      6  C   LIG    1        6.365   1.984   0.000  0.00  0.00    +0.035 C 
BRANCH   6   7
ATOM      7  C   LIG    1        5.852   3.394   0.000  0.00  0.00    -0.001 C 
ATOM      8  C   LIG    1        5.339   4.803   0.000  0.00  0.00    -0.000 C 
ENDBRANCH   6   7
ENDBRANCH   1   6
TORSDOF 4
REMARK  Name = molecules/BPSMYQFMCXXNPC-PFJUCRORSA-N.pdb
REMARK                            x       y       z     vdW  Elec       q    Type
REMARK                         _______ _______ _______ _____ _____    ______ ____
ROOT
ATOM      1  C   LIG    1        0.750   1.299   0.000  0.00  0.00    +0.169 C 
ATOM      2  O   LIG    1        2.159   1.812   0.000  0.00  0.00    -0.379 OA
ATOM      3  H   LIG    1        2.329   0.889   0.000  0.00  0.00    +0.211 HD
ENDROOT
TORSDOF 0
REMARK  Name = molecules/BPSMYQFMCXXNPC-PFJUCRORSA-N.pdb
REMARK                            x       y       z     vdW  Elec       q    Type
REMARK                         _______ _______ _______ _____ _____    ______ ____
ROOT
ATOM      1  C   LIG    1       -0.750   1.299   0.000  0.00  0.00    +0.176 C 
ATOM      2  O   LIG    1       -1.500   0.000   0.000  0.00  0.00    -0.386 OA
ATOM      3  H   LIG    1       -2.651   0.500   0.000  0.00  0.00    +0.210 HD
ENDROOT
TORSDOF 0
REMARK  Name = molecules/BPSMYQFMCXXNPC-PFJUCRORSA-N.pdb
REMARK                            x       y       z     vdW  Elec       q    Type
REMARK                         _______ _______ _______ _____ _____    ______ ____
ROOT
ATOM      1  P   LIG    1        2.420   3.289   0.000  0.00  0.00    +0.144 P 
ATOM      2  O   LIG    1        3.854   2.851   0.000  0.00  0.00    -0.360 OA
ATOM      3  H   LIG    1        4.515   2.713   0.000  0.00  0.00    +0.216 HD
ENDROOT
TORSDOF 0
REMARK  Name = molecules/BPSMYQFMCXXNPC-PFJUCRORSA-N.pdb
REMARK                            x       y       z     vdW  Elec       q    Type
REMARK                         _______ _______ _______ _____ _____    ______ ____
ROOT
ATOM      1  C   LIG    1       -0.489   2.776   0.000  0.00  0.00    +0.000 C 
ENDROOT
TORSDOF 0
REMARK  Name = molecules/BPSMYQFMCXXNPC-PFJUCRORSA-N.pdb
REMARK                            x       y       z     vdW  Elec       q    Type
REMARK                         _______ _______ _______ _____ _____    ______ ____
ROOT
ATOM      1  C   LIG    1       -5.208  -1.183   0.000  0.00  0.00    +0.148 C 
ATOM      2  C   LIG    1       -6.708  -1.183   0.000  0.00  0.00    +0.115 C 
ATOM      3  C   LIG    1       -7.458   0.116   0.000  0.00  0.00    +0.118 C 
ATOM      4  C   LIG    1       -6.708   1.415   0.000  0.00  0.00    +0.304 C 
ATOM      5  O   LIG    1       -5.208   1.415   0.000  0.00  0.00    -0.429 OA
ATOM      6  C   LIG    1       -4.458   0.116   0.000  0.00  0.00    +0.241 C 
ENDROOT
BRANCH   1   8
ATOM      7  C   LIG    1       -3.309  -0.848   0.000  0.00  0.00    +0.252 C 
ATOM      8  O   LIG    1       -3.798  -1.696   0.000  0.00  0.00    -0.473 OA
ENDBRANCH   1   8
BRANCH   3   9
ATOM      9  N   LIG    1       -8.607  -0.848   0.000  0.00  0.00    -0.263 NA
ATOM     10  H   LIG    1       -8.044  -1.864   0.000  0.00  0.00    +0.170 HD
ENDBRANCH   3   9
BRANCH   4  11
ATOM     11  O   LIG    1       -8.117   1.928   0.000  0.00  0.00    -0.479 OA
ATOM     12  H   LIG    1       -8.607   1.081   0.000  0.00  0.00    +0.295 HD
ENDBRANCH   4  11
TORSDOF 3
REMARK  Name = molecules/BPSMYQFMCXXNPC-PFJUCRORSA-N.pdb
REMARK                            x       y       z     vdW  Elec       q    Type
REMARK                         _______ _______ _______ _____ _____    ______ ____
ROOT
ATOM      1  O   HOH    1        0.943   3.550   0.000  0.00  0.00    -0.253 OA
ATOM      2  H   HOH    0        1.008   2.698   0.000  0.00  0.00    +0.253 HD
ENDROOT
TORSDOF 0
REMARK  Name = molecules/BPSMYQFMCXXNPC-PFJUCRORSA-N.pdb
REMARK                            x       y       z     vdW  Elec       q    Type
REMARK                         _______ _______ _______ _____ _____    ______ ____
ROOT
ATOM      1  O   HOH    1        2.680   4.766   0.000  0.00  0.00    -0.410 OA
ATOM      2  H   HOH    0        3.364   5.876   0.000  0.00  0.00    +0.205 HD
ATOM      3  H   HOH    0        3.929   4.290   0.000  0.00  0.00    +0.205 HD
ENDROOT
TORSDOF 0
REMARK  Name = molecules/BPSMYQFMCXXNPC-PFJUCRORSA-N.pdb
REMARK                            x       y       z     vdW  Elec       q    Type
REMARK                         _______ _______ _______ _____ _____    ______ ____
ROOT
ATOM      1  O   LIG    1       -0.229   4.253   0.000  0.00  0.00    -0.398 OA
ATOM      2  C   LIG    1       -1.378   5.218   0.000  0.00  0.00    +0.189 C 
ATOM      3  H   LIG    1        0.430   4.959   0.000  0.00  0.00    +0.209 HD
ENDROOT
TORSDOF 0
REMARK  Name = molecules/BPSMYQFMCXXNPC-PFJUCRORSA-N.pdb
REMARK                            x       y       z     vdW  Elec       q    Type
REMARK                         _______ _______ _______ _____ _____    ______ ____
ROOT
ATOM      1  C   LIG    1        4.826   6.213   0.000  0.00  0.00    -0.000 C 
ENDROOT
TORSDOF 0
REMARK  Name = molecules/BPSMYQFMCXXNPC-PFJUCRORSA-N.pdb
REMARK                            x       y       z     vdW  Elec       q    Type
REMARK                         _______ _______ _______ _____ _____    ______ ____
ROOT
ATOM      1  C   LIG    1        4.312   7.623   0.000  0.00  0.00    -0.000 C 
ATOM      2  C   LIG    1        3.800   9.032   0.000  0.00  0.00    -0.003 C 
ATOM      3  C   LIG    1        3.287  10.442   0.000  0.00  0.00    +0.004 C 
ENDROOT
TORSDOF 0
REMARK  Name = molecules/BPSMYQFMCXXNPC-PFJUCRORSA-N.pdb
REMARK                            x       y       z     vdW  Elec       q    Type
REMARK                         _______ _______ _______ _____ _____    ______ ____
ROOT
ATOM      1  O   HOH    1       -6.447  -2.660   0.000  0.00  0.00    -0.253 OA
ATOM      2  H   HOH    0       -5.468  -2.660   0.000  0.00  0.00    +0.253 HD
ENDROOT
TORSDOF 0
REMARK  Name = molecules/BPSMYQFMCXXNPC-PFJUCRORSA-N.pdb
REMARK                            x       y       z     vdW  Elec       q    Type
REMARK                         _______ _______ _______ _____ _____    ______ ____
ROOT
ATOM      1  C   LIG    1       -7.596  -3.624   0.000  0.00  0.00    +0.152 C 
ENDROOT
BRANCH   1   2
ATOM      2  O   LIG    1       -7.612  -2.820   0.000  0.00  0.00    -0.358 OA
ATOM      3  C   LIG    1       -8.346  -2.325   0.000  0.00  0.00    +0.174 C 
ENDBRANCH   1   2
BRANCH   1   4
ATOM      4  C   LIG    1       -8.745  -4.588   0.000  0.00  0.00    +0.026 C 
ATOM      5  C   LIG    1       -9.495  -3.289   0.000  0.00  0.00    +0.007 C 
ENDBRANCH   1   4
TORSDOF 2
REMARK  Name = molecules/BPSMYQFMCXXNPC-PFJUCRORSA-N.pdb
REMARK                            x       y       z     vdW  Elec       q    Type
REMARK                         _______ _______ _______ _____ _____    ______ ____
ROOT
ATOM      1  P   LIG    1       -8.378   3.406   0.000  0.00  0.00    +0.468 P 
ATOM      2  O   LIG    1       -8.638   4.883   0.000  0.00  0.00    -0.243 OA
ATOM      3  O   LIG    1       -9.855   3.145   0.000  0.00  0.00    -0.131 OA
ENDROOT
BRANCH   1   4
ATOM      4  O   LIG    1       -6.901   3.666   0.000  0.00  0.00    -0.314 OA
ATOM      5  H   LIG    1       -6.098   2.786   0.000  0.00  0.00    +0.220 HD
ENDBRANCH   1   4
TORSDOF 1
REMARK  Name = molecules/BPSMYQFMCXXNPC-PFJUCRORSA-N.pdb
REMARK                            x       y       z     vdW  Elec       q    Type
REMARK                         _______ _______ _______ _____ _____    ______ ____
ROOT
ATOM      1  C   LIG    1      -13.342  -8.445   0.000  0.00  0.00    +0.002 C 
ENDROOT
BRANCH   1   2
ATOM      2  C   LIG    1      -12.193  -7.481   0.000  0.00  0.00    +0.028 C 
BRANCH   2   3
ATOM      3  C   LIG    1      -11.043  -6.517   0.000  0.00  0.00    +0.160 C 
BRANCH   3   5
ATOM      4  C   LIG    1       -9.894  -5.553   0.000  0.00  0.00    +0.181 C 
ATOM      5  O   LIG    1      -10.749  -5.750   0.000  0.00  0.00    -0.371 OA
ENDBRANCH   3   5
ENDBRANCH   2   3
ENDBRANCH   1   2
BRANCH   1   6
ATOM      6  C   LIG    1      -14.491  -9.409   0.000  0.00  0.00    +0.000 C 
BRANCH   6   7
ATOM      7  C   LIG    1      -15.640 -10.373   0.000  0.00  0.00    -0.000 C 
BRANCH   7   8
ATOM      8  C   LIG    1      -16.789 -11.338   0.000  0.00  0.00    -0.003 C 
ATOM      9  C   LIG    1      -17.938 -12.302   0.000  0.00  0.00    +0.004 C 
ENDBRANCH   7   8
ENDBRANCH   6   7
ENDBRANCH   1   6
TORSDOF 6
REMARK  Name = molecules/BPSMYQFMCXXNPC-PFJUCRORSA-N.pdb
REMARK                            x       y       z     vdW  Elec       q    Type
REMARK                         _______ _______ _______ _____ _____    ______ ____
ROOT
ATOM      1  C   LIG    1      -10.644  -4.253   0.000  0.00  0.00    +0.000 C 
ENDROOT
TORSDOF 0
REMARK  Name = molecules/BPSMYQFMCXXNPC-PFJUCRORSA-N.pdb
REMARK                            x       y       z     vdW  Elec       q    Type
REMARK                         _______ _______ _______ _____ _____    ______ ____
ROOT
ATOM      1  C   LIG    1      -19.102  -1.175   0.000  0.00  0.00    -0.000 C 
ENDROOT
BRANCH   1   2
ATOM      2  C   LIG    1      -17.692  -1.688   0.000  0.00  0.00    -0.000 C 
BRANCH   2   3
ATOM      3  C   LIG    1      -16.283  -2.201   0.000  0.00  0.00    -0.000 C 
BRANCH   3   4
ATOM      4  C   LIG    1      -14.873  -2.714   0.000  0.00  0.00    -0.000 C 
BRANCH   4   6
ATOM      5  C   LIG    1      -12.054  -3.740   0.000  0.00  0.00    +0.004 C 
ATOM      6  C   LIG    1      -13.463  -3.227   0.000  0.00  0.00    -0.003 C 
ENDBRANCH   4   6
ENDBRANCH   3   4
ENDBRANCH   2   3
ENDBRANCH   1   2
BRANCH   1   7
ATOM      7  C   LIG    1      -20.511  -0.662   0.000  0.00  0.00    -0.000 C 
BRANCH   7   8
ATOM      8  C   LIG    1      -21.921  -0.149   0.000  0.00  0.00    -0.000 C 
BRANCH   8   9
ATOM      9  C   LIG    1      -23.330   0.364   0.000  0.00  0.00    -0.000 C 
BRANCH   9  10
ATOM     10  C   LIG    1      -24.740   0.877   0.000  0.00  0.00    -0.003 C 
ATOM     11  C   LIG    1      -26.149   1.390   0.000  0.00  0.00    +0.004 C 
ENDBRANCH   9  10
ENDBRANCH   8   9
ENDBRANCH   7   8
ENDBRANCH   1   7
TORSDOF 8
REMARK  Name = molecules/BPSMYQFMCXXNPC-PFJUCRORSA-N.pdb
REMARK                            x       y       z     vdW  Elec       q    Type
REMARK                         _______ _______ _______ _____ _____    ______ ____
ROOT
ATOM      1  H   UNK    1       -1.967   3.037   0.000  0.00  0.00    +0.000 HD
ENDROOT
TORSDOF 0
REMARK  Name = molecules/BPSMYQFMCXXNPC-PFJUCRORSA-N.pdb
REMARK                            x       y       z     vdW  Elec       q    Type
REMARK                         _______ _______ _______ _____ _____    ______ ____
ROOT
ATOM      1  H   UNK    1       -3.966  -2.196   0.000  0.00  0.00    +0.000 HD
ENDROOT
TORSDOF 0
REMARK  Name = molecules/BPSMYQFMCXXNPC-PFJUCRORSA-N.pdb
REMARK                            x       y       z     vdW  Elec       q    Type
REMARK                         _______ _______ _______ _____ _____    ______ ____
ROOT
ATOM      1  H   UNK    1       -3.538  -3.173   0.000  0.00  0.00    +0.000 HD
ENDROOT
TORSDOF 0
REMARK  Name = molecules/BPSMYQFMCXXNPC-PFJUCRORSA-N.pdb
REMARK                            x       y       z     vdW  Elec       q    Type
REMARK                         _______ _______ _______ _____ _____    ______ ____
ROOT
ATOM      1  H   UNK    1      -10.016  -0.335   0.000  0.00  0.00    +0.000 HD
ENDROOT
TORSDOF 0
REMARK  Name = molecules/BPSMYQFMCXXNPC-PFJUCRORSA-N.pdb
REMARK                            x       y       z     vdW  Elec       q    Type
REMARK                         _______ _______ _______ _____ _____    ______ ____
ROOT
ATOM      1  H   UNK    1       -6.387   5.076   0.000  0.00  0.00    +0.000 HD
ENDROOT
TORSDOF 0
REMARK  Name = molecules/BPSMYQFMCXXNPC-PFJUCRORSA-N.pdb
REMARK                            x       y       z     vdW  Elec       q    Type
REMARK                         _______ _______ _______ _____ _____    ______ ____
ROOT
ATOM      1  H   UNK    1       -7.489   5.847   0.000  0.00  0.00    +0.000 HD
ENDROOT
TORSDOF 0
REMARK  Name = molecules/BPSMYQFMCXXNPC-PFJUCRORSA-N.pdb
REMARK                            x       y       z     vdW  Elec       q    Type
REMARK                         _______ _______ _______ _____ _____    ______ ____
ROOT
ATOM      1  H   UNK    1       -8.930  -6.702   0.000  0.00  0.00    +0.000 HD
ENDROOT
TORSDOF 0
