REMARK  Name = molecules/BQIPXWYNLPYNHW-HNNXBMFYSA-N.pdb
REMARK                            x       y       z     vdW  Elec       q    Type
REMARK                         _______ _______ _______ _____ _____    ______ ____
ROOT
ATOM      1  C   LIG    1        0.891   0.018  -0.716  0.00  0.00    +0.124 A 
ATOM      2  C   LIG    1        1.171  -0.340   0.579  0.00  0.00    +0.053 A 
ATOM      3  C   LIG    1        2.478  -0.400   1.078  0.00  0.00    -0.004 A 
ATOM      4  C   LIG    1        2.709  -0.792   2.485  0.00  0.00    +0.048 C 
ATOM      5  C   LIG    1        3.556  -0.101   0.281  0.00  0.00    +0.138 A 
ATOM      6  C   LIG    1        3.288   0.259  -1.021  0.00  0.00    -0.001 A 
ATOM      7  C   LIG    1        4.483   0.577  -1.865  0.00  0.00    +0.048 C 
ATOM      8  C   LIG    1        2.009   0.322  -1.521  0.00  0.00    -0.002 A 
ATOM      9  C   LIG    1        1.782   0.714  -2.928  0.00  0.00    +0.048 C 
ENDROOT
BRANCH   1  10
ATOM     10  O   LIG    1       -0.347   0.102  -1.288  0.00  0.00    -0.489 OA
BRANCH  10  11
ATOM     11  C   LIG    1       -1.619  -0.088  -0.854  0.00  0.00    +0.261 C 
BRANCH  11  12
ATOM     12  C   LIG    1       -2.027   0.877   0.207  0.00  0.00    +0.166 C 
BRANCH  12  13
ATOM     13  O   LIG    1       -1.980   2.212  -0.256  0.00  0.00    -0.387 OA
ATOM     14  H   LIG    1       -2.356   2.238  -1.188  0.00  0.00    +0.210 HD
ENDBRANCH  12  13
BRANCH  12  15
ATOM     15  C   LIG    1       -3.422   0.575   0.743  0.00  0.00    +0.115 C 
BRANCH  15  16
ATOM     16  N   LIG    1       -4.376   0.764  -0.314  0.00  0.00    -0.311 NA
ATOM     17  H   LIG    1       -4.186   0.110  -1.112  0.00  0.00    +0.122 HD
BRANCH  16  18
ATOM     18  C   LIG    1       -5.737   0.511   0.160  0.00  0.00    +0.048 C 
ATOM     19  C   LIG    1       -5.880  -0.940   0.610  0.00  0.00    +0.023 C 
ATOM     20  C   LIG    1       -6.656   0.697  -1.031  0.00  0.00    +0.023 C 
ENDBRANCH  16  18
ENDBRANCH  15  16
ENDBRANCH  12  15
ENDBRANCH  11  12
ENDBRANCH  10  11
ENDBRANCH   1  10
BRANCH   5  21
ATOM     21  O   LIG    1        4.852  -0.159   0.769  0.00  0.00    -0.425 OA
BRANCH  21  22
ATOM     22  C   LIG    1        5.667  -1.257   0.715  0.00  0.00    +0.309 C 
ATOM     23  C   LIG    1        7.034  -1.154   1.285  0.00  0.00    +0.136 C 
ATOM     24  O   LIG    1        5.204  -2.297   0.181  0.00  0.00    -0.251 OA
ENDBRANCH  21  22
ENDBRANCH   5  21
TORSDOF 9
