REMARK  Name = molecules/BQJCRHHNABKAKU-KBQPJGBKSA-N.pdb
REMARK                            x       y       z     vdW  Elec       q    Type
REMARK                         _______ _______ _______ _____ _____    ______ ____
ROOT
ATOM      1  C   LIG    1        2.053  -1.934   0.420  0.00  0.00    +0.178 C 
ATOM      2  C   LIG    1        1.214  -1.796   1.628  0.00  0.00    +0.004 C 
ATOM      3  C   LIG    1       -0.046  -1.397   1.596  0.00  0.00    -0.023 C 
ATOM      4  C   LIG    1       -0.653  -1.071   0.296  0.00  0.00    +0.043 C 
ATOM      5  C   LIG    1       -1.863  -0.174   0.385  0.00  0.00    +0.068 C 
ATOM      6  C   LIG    1       -1.594   1.238   0.754  0.00  0.00    +0.055 C 
ATOM      7  C   LIG    1       -0.195   1.667   0.672  0.00  0.00    -0.038 A 
ATOM      8  C   LIG    1        0.267   2.839   1.219  0.00  0.00    +0.008 A 
ATOM      9  C   LIG    1        1.626   3.155   1.093  0.00  0.00    +0.049 A 
ATOM     10  C   LIG    1        2.494   2.299   0.428  0.00  0.00    +0.159 A 
ATOM     11  C   LIG    1        2.039   1.118  -0.125  0.00  0.00    +0.166 A 
ATOM     12  O   LIG    1        2.588   0.048  -0.836  0.00  0.00    -0.481 OA
ATOM     13  C   LIG    1        0.701   0.867   0.032  0.00  0.00    +0.012 A 
ATOM     14  N   LIG    1       -2.552  -0.214  -0.875  0.00  0.00    -0.301 NA
ATOM     15  C   LIG    1       -3.807  -0.875  -0.843  0.00  0.00    +0.105 C 
ATOM     16  C   LIG    1       -1.752  -0.566  -1.994  0.00  0.00    +0.085 C 
ATOM     17  C   LIG    1       -0.331  -0.117  -1.911  0.00  0.00    +0.031 C 
ATOM     18  C   LIG    1        0.328  -0.426  -0.607  0.00  0.00    +0.048 C 
ATOM     19  C   LIG    1        1.674  -1.068  -0.719  0.00  0.00    +0.217 C 
ENDROOT
BRANCH   1  20
ATOM     20  O   LIG    1        3.382  -1.626   0.767  0.00  0.00    -0.384 OA
ATOM     21  H   LIG    1        3.734  -2.384   1.292  0.00  0.00    +0.210 HD
ENDBRANCH   1  20
BRANCH  10  22
ATOM     22  O   LIG    1        3.839   2.621   0.309  0.00  0.00    -0.503 OA
ATOM     23  H   LIG    1        4.491   2.023  -0.166  0.00  0.00    +0.292 HD
ENDBRANCH  10  22
TORSDOF 2
