REMARK  Name = molecules/BQXQGZPYHWWCEB-CYBMUJFWSA-N.pdb
REMARK                            x       y       z     vdW  Elec       q    Type
REMARK                         _______ _______ _______ _____ _____    ______ ____
ROOT
ATOM      1  C   LIG    1       -1.554  -1.070   0.245  0.00  0.00    +0.130 A 
ATOM      2  C   LIG    1       -1.261  -2.417   0.359  0.00  0.00    +0.046 A 
ATOM      3  C   LIG    1       -2.313  -3.306   0.434  0.00  0.00    +0.006 A 
ATOM      4  C   LIG    1       -3.633  -2.892   0.399  0.00  0.00    +0.026 A 
ATOM      5  C   LIG    1       -3.924  -1.539   0.285  0.00  0.00    +0.051 A 
ATOM      6  N   LIG    1       -5.114  -0.876   0.230  0.00  0.00    -0.354 N 
ATOM      7  H   LIG    1       -6.040  -1.353   0.271  0.00  0.00    +0.166 HD
ATOM      8  C   LIG    1       -4.879   0.456   0.117  0.00  0.00    +0.048 A 
ATOM      9  C   LIG    1       -3.496   0.592   0.105  0.00  0.00    +0.011 A 
ATOM     10  C   LIG    1       -2.991   1.869  -0.003  0.00  0.00    +0.011 A 
ATOM     11  C   LIG    1       -3.834   2.978  -0.095  0.00  0.00    +0.001 A 
ATOM     12  C   LIG    1       -5.203   2.822  -0.082  0.00  0.00    +0.002 A 
ATOM     13  C   LIG    1       -5.718   1.547   0.026  0.00  0.00    +0.026 A 
ATOM     14  C   LIG    1       -2.908  -0.649   0.210  0.00  0.00    +0.049 A 
ENDROOT
BRANCH   1  15
ATOM     15  O   LIG    1       -0.641  -0.115   0.166  0.00  0.00    -0.489 OA
BRANCH  15  16
ATOM     16  C   LIG    1        0.655   0.132   0.132  0.00  0.00    +0.261 C 
BRANCH  16  17
ATOM     17  C   LIG    1        1.511  -0.371  -1.005  0.00  0.00    +0.166 C 
BRANCH  17  18
ATOM     18  O   LIG    1        1.576  -1.722  -1.163  0.00  0.00    -0.387 OA
ATOM     19  H   LIG    1        1.915  -2.137  -0.338  0.00  0.00    +0.210 HD
ENDBRANCH  17  18
BRANCH  17  20
ATOM     20  C   LIG    1        2.896   0.200  -0.805  0.00  0.00    +0.115 C 
BRANCH  20  21
ATOM     21  N   LIG    1        3.515  -0.355   0.356  0.00  0.00    -0.311 NA
ATOM     22  H   LIG    1        3.693  -1.379   0.153  0.00  0.00    +0.122 HD
BRANCH  21  23
ATOM     23  C   LIG    1        4.830   0.220   0.606  0.00  0.00    +0.048 C 
ATOM     24  C   LIG    1        4.710   1.708   0.879  0.00  0.00    +0.023 C 
ATOM     25  C   LIG    1        5.837  -0.102  -0.450  0.00  0.00    +0.023 C 
ENDBRANCH  21  23
ENDBRANCH  20  21
ENDBRANCH  17  20
ENDBRANCH  16  17
ENDBRANCH  15  16
ENDBRANCH   1  15
TORSDOF 7
