REMARK  Name = molecules/BRABPYPSZVCCLR-UHFFFAOYSA-N.pdb
REMARK                            x       y       z     vdW  Elec       q    Type
REMARK                         _______ _______ _______ _____ _____    ______ ____
ROOT
ATOM      1  C   LIG    1        3.039  -2.050   0.185  0.00  0.00    +0.122 A 
ATOM      2  C   LIG    1        1.947  -1.272   0.562  0.00  0.00    +0.070 A 
ATOM      3  C   LIG    1        1.779   0.024   0.112  0.00  0.00    +0.051 A 
ATOM      4  N   LIG    1        0.626   0.732   0.544  0.00  0.00    -0.298 N 
ATOM      5  C   LIG    1        0.384   2.062   0.105  0.00  0.00    +0.044 C 
ATOM      6  C   LIG    1       -0.752   2.699   0.571  0.00  0.00    +0.006 C 
ATOM      7  C   LIG    1       -1.067   3.996   0.203  0.00  0.00    +0.047 C 
ATOM      8  C   LIG    1       -0.251   4.688  -0.641  0.00  0.00    -0.017 C 
ATOM      9  C   LIG    1        0.882   4.074  -1.113  0.00  0.00    +0.013 C 
ATOM     10  C   LIG    1        1.162   2.802  -0.734  0.00  0.00    +0.034 C 
ATOM     11  S   LIG    1        2.661   2.111  -1.390  0.00  0.00    -0.086 S 
ATOM     12  C   LIG    1        2.757   0.474  -0.723  0.00  0.00    +0.034 A 
ATOM     13  C   LIG    1        3.830  -0.263  -1.105  0.00  0.00    +0.020 A 
ATOM     14  C   LIG    1        4.001  -1.556  -0.657  0.00  0.00    +0.047 A 
ENDROOT
BRANCH   1  16
ATOM     15  C   LIG    1        4.236  -4.192   0.330  0.00  0.00    +0.277 C 
ATOM     16  O   LIG    1        3.174  -3.349   0.658  0.00  0.00    -0.495 OA
ENDBRANCH   1  16
BRANCH   4  17
ATOM     17  C   LIG    1       -0.319   0.055   1.411  0.00  0.00    +0.112 C 
BRANCH  17  18
ATOM     18  C   LIG    1       -1.385  -0.707   0.744  0.00  0.00    +0.035 C 
BRANCH  18  19
ATOM     19  C   LIG    1       -2.322  -0.034  -0.165  0.00  0.00    +0.085 C 
BRANCH  19  20
ATOM     20  N   LIG    1       -3.275  -0.994  -0.718  0.00  0.00    -0.308 NA
ATOM     21  C   LIG    1       -4.056  -1.637   0.303  0.00  0.00    +0.104 C 
ATOM     22  C   LIG    1       -4.195  -0.315  -1.613  0.00  0.00    +0.104 C 
ENDBRANCH  19  20
ENDBRANCH  18  19
ENDBRANCH  17  18
ENDBRANCH   4  17
TORSDOF 5
