REMARK  Name = molecules/BRBKOPJOKNSWSG-UHFFFAOYSA-N.pdb
REMARK                            x       y       z     vdW  Elec       q    Type
REMARK                         _______ _______ _______ _____ _____    ______ ____
ROOT
ATOM      1  S   LIG    1        1.347   1.543   0.139  0.00  0.00    +0.120 S 
ATOM      2  O   LIG    1        2.092   1.501   1.451  0.00  0.00    -0.135 OA
ATOM      3  O   LIG    1        1.112   3.003  -0.172  0.00  0.00    -0.135 OA
ENDROOT
BRANCH   1   4
ATOM      4  C   LIG    1       -0.197   0.753   0.234  0.00  0.00    +0.124 A 
ATOM      5  C   LIG    1       -0.462  -0.327   1.029  0.00  0.00    +0.032 A 
ATOM      6  C   LIG    1       -1.693  -0.946   1.096  0.00  0.00    +0.025 A 
ATOM      7  C   LIG    1       -2.713  -0.451   0.319  0.00  0.00    +0.025 A 
ATOM      8  C   LIG    1       -2.485   0.637  -0.498  0.00  0.00    +0.025 A 
ATOM      9  C   LIG    1       -1.226   1.244  -0.544  0.00  0.00    +0.032 A 
BRANCH   7  10
ATOM     10  N   LIG    1       -3.989  -1.078   0.375  0.00  0.00    -0.358 N 
ATOM     11  H   LIG    1       -4.299  -1.640   1.194  0.00  0.00    +0.142 HD
ATOM     12  H   LIG    1       -4.665  -0.990  -0.421  0.00  0.00    +0.142 HD
ENDBRANCH   7  10
ENDBRANCH   1   4
BRANCH   1  13
ATOM     13  N   LIG    1        2.357   0.865  -1.078  0.00  0.00    -0.136 N 
ATOM     14  H   LIG    1        2.686   1.444  -1.883  0.00  0.00    +0.291 HD
BRANCH  13  15
ATOM     15  C   LIG    1        2.775  -0.481  -1.036  0.00  0.00    +0.399 C 
ATOM     16  N   LIG    1        3.303  -1.034   0.149  0.00  0.00    -0.288 N 
ATOM     17  H   LIG    1        2.806  -1.016   1.067  0.00  0.00    +0.255 HD
ATOM     18  H   LIG    1        4.240  -1.494   0.148  0.00  0.00    +0.255 HD
BRANCH  15  19
ATOM     19  N   LIG    1        2.678  -1.214  -2.079  0.00  0.00    -0.128 NA
ATOM     20  H   LIG    1        2.301  -0.889  -2.997  0.00  0.00    +0.306 HD
ENDBRANCH  15  19
ENDBRANCH  13  15
ENDBRANCH   1  13
TORSDOF 5
