REMARK  Name = molecules/BRJULSXZDFYSPG-IXHZLSCUSA-N.pdb
REMARK                            x       y       z     vdW  Elec       q    Type
REMARK                         _______ _______ _______ _____ _____    ______ ____
ROOT
ATOM      1  C   LIG    1        0.868   1.334   1.097  0.00  0.00    +0.009 C 
ATOM      2  C   LIG    1       -0.465   1.335   0.394  0.00  0.00    +0.068 C 
ATOM      3  C   LIG    1       -0.842   0.012  -0.186  0.00  0.00    +0.206 C 
ATOM      4  O   LIG    1       -1.297  -0.793   0.881  0.00  0.00    -0.197 OA
ATOM      5  O   LIG    1       -2.389  -0.103   1.222  0.00  0.00    -0.196 OA
ATOM      6  C   LIG    1       -3.010  -0.022  -0.048  0.00  0.00    +0.211 C 
ATOM      7  C   LIG    1       -3.964   1.128   0.015  0.00  0.00    +0.052 C 
ATOM      8  C   LIG    1       -4.720   0.982   1.343  0.00  0.00    +0.012 C 
ATOM      9  C   LIG    1       -5.456  -0.326   1.296  0.00  0.00    -0.010 C 
ATOM     10  C   LIG    1       -4.553  -1.511   1.091  0.00  0.00    +0.012 C 
ATOM     11  C   LIG    1       -6.483  -0.231   0.185  0.00  0.00    +0.007 C 
ATOM     12  C   LIG    1       -5.770  -0.090  -1.120  0.00  0.00    -0.010 C 
ATOM     13  C   LIG    1       -4.799  -1.247  -1.317  0.00  0.00    +0.012 C 
ATOM     14  C   LIG    1       -4.939   1.172  -1.118  0.00  0.00    +0.012 C 
ATOM     15  C   LIG    1       -3.782  -1.300  -0.216  0.00  0.00    +0.052 C 
ATOM     16  C   LIG    1        0.284  -0.680  -0.915  0.00  0.00    +0.068 C 
ATOM     17  C   LIG    1        1.477  -0.722   0.000  0.00  0.00    +0.009 C 
ATOM     18  O   LIG    1       -1.982   0.138  -0.944  0.00  0.00    -0.311 OA
ATOM     19  C   LIG    1        1.926   0.737   0.180  0.00  0.00    -0.002 C 
ENDROOT
BRANCH  19  20
ATOM     20  C   LIG    1        3.259   0.842   0.841  0.00  0.00    +0.099 C 
BRANCH  20  21
ATOM     21  C   LIG    1        4.299   0.282  -0.056  0.00  0.00    +0.215 C 
ATOM     22  N   LIG    1        5.654   0.209   0.405  0.00  0.00    -0.298 N 
ATOM     23  H   LIG    1        5.890   0.549   1.360  0.00  0.00    +0.150 HD
ATOM     24  O   LIG    1        3.993  -0.123  -1.207  0.00  0.00    -0.276 OA
BRANCH  22  25
ATOM     25  C   LIG    1        6.639  -0.343  -0.497  0.00  0.00    +0.077 C 
ATOM     26  C   LIG    1        7.994  -0.331   0.178  0.00  0.00    +0.048 C 
ATOM     27  C   LIG    1        6.637   0.449  -1.768  0.00  0.00    +0.048 C 
BRANCH  25  28
ATOM     28  N   LIG    1        6.209  -1.707  -0.801  0.00  0.00    -0.311 NA
ATOM     29  H   LIG    1        6.350  -2.317   0.024  0.00  0.00    +0.120 HD
ATOM     30  H   LIG    1        6.768  -2.105  -1.594  0.00  0.00    +0.120 HD
ENDBRANCH  25  28
ENDBRANCH  22  25
ENDBRANCH  20  21
ENDBRANCH  19  20
TORSDOF 4
