REMARK  Name = molecules/BSHWLCACYCVCJE-REWPJTCUSA-N.pdb
REMARK                            x       y       z     vdW  Elec       q    Type
REMARK                         _______ _______ _______ _____ _____    ______ ____
ROOT
ATOM      1  N   LIG    1       -1.323   0.670   0.149  0.00  0.00    -0.297 NA
ATOM      2  C   LIG    1       -0.777  -0.605   0.211  0.00  0.00    +0.100 C 
ATOM      3  C   LIG    1        0.658  -0.638  -0.251  0.00  0.00    +0.100 C 
ATOM      4  N   LIG    1        1.503   0.328   0.416  0.00  0.00    -0.300 NA
ATOM      5  C   LIG    1        0.771   1.375   1.045  0.00  0.00    +0.100 C 
ATOM      6  C   LIG    1       -0.447   1.785   0.200  0.00  0.00    +0.100 C 
ENDROOT
BRANCH   1   7
ATOM      7  C   LIG    1       -2.597   0.893  -0.411  0.00  0.00    +0.120 C 
BRANCH   7   8
ATOM      8  C   LIG    1       -3.542  -0.252  -0.470  0.00  0.00    +0.162 C 
BRANCH   8   9
ATOM      9  C   LIG    1       -3.975  -0.639   0.918  0.00  0.00    -0.018 A 
ATOM     10  C   LIG    1       -4.789   0.236   1.618  0.00  0.00    +0.006 A 
ATOM     11  C   LIG    1       -5.236  -0.035   2.894  0.00  0.00    +0.000 A 
ATOM     12  C   LIG    1       -4.833  -1.238   3.461  0.00  0.00    +0.000 A 
ATOM     13  C   LIG    1       -4.027  -2.119   2.787  0.00  0.00    +0.000 A 
ATOM     14  C   LIG    1       -3.602  -1.811   1.516  0.00  0.00    +0.006 A 
ENDBRANCH   8   9
BRANCH   8  15
ATOM     15  O   LIG    1       -4.723   0.243  -1.069  0.00  0.00    -0.371 OA
BRANCH  15  16
ATOM     16  C   LIG    1       -5.099  -0.541  -2.152  0.00  0.00    +0.157 C 
ATOM     17  C   LIG    1       -6.354   0.042  -2.736  0.00  0.00    +0.034 C 
ENDBRANCH  15  16
ENDBRANCH   8  15
ENDBRANCH   7   8
ENDBRANCH   1   7
BRANCH   4  18
ATOM     18  C   LIG    1        2.417   0.904  -0.565  0.00  0.00    +0.091 C 
BRANCH  18  19
ATOM     19  C   LIG    1        3.543   1.678   0.035  0.00  0.00    +0.043 C 
ATOM     20  C   LIG    1        4.336   2.371  -1.071  0.00  0.00    +0.012 C 
BRANCH  19  21
ATOM     21  C   LIG    1        4.406   0.893   0.924  0.00  0.00    +0.169 C 
ATOM     22  O   LIG    1        4.402   1.205   2.181  0.00  0.00    -0.219 OA
BRANCH  21  23
ATOM     23  C   LIG    1        5.251  -0.199   0.513  0.00  0.00    -0.009 A 
ATOM     24  C   LIG    1        5.898  -0.899   1.538  0.00  0.00    +0.006 A 
ATOM     25  C   LIG    1        6.736  -1.931   1.217  0.00  0.00    +0.000 A 
ATOM     26  C   LIG    1        6.946  -2.285  -0.092  0.00  0.00    +0.000 A 
ATOM     27  C   LIG    1        6.312  -1.599  -1.089  0.00  0.00    +0.000 A 
ATOM     28  C   LIG    1        5.446  -0.534  -0.799  0.00  0.00    +0.006 A 
ENDBRANCH  21  23
ENDBRANCH  19  21
ENDBRANCH  18  19
ENDBRANCH   4  18
TORSDOF 9
