REMARK  Name = molecules/BSYNRYMUTXBXSQ-UHFFFAOYSA-N.pdb
REMARK                            x       y       z     vdW  Elec       q    Type
REMARK                         _______ _______ _______ _____ _____    ______ ____
ROOT
ATOM      1  C   LIG    1        0.010   0.175  -0.648  0.00  0.00    +0.146 A 
ATOM      2  C   LIG    1       -1.035  -0.173   0.213  0.00  0.00    +0.101 A 
ATOM      3  C   LIG    1       -2.235   0.518   0.182  0.00  0.00    +0.018 A 
ATOM      4  C   LIG    1       -2.445   1.563  -0.686  0.00  0.00    +0.001 A 
ATOM      5  C   LIG    1       -1.411   1.898  -1.527  0.00  0.00    +0.004 A 
ATOM      6  C   LIG    1       -0.213   1.209  -1.498  0.00  0.00    +0.047 A 
ENDROOT
BRANCH   2   7
ATOM      7  C   LIG    1       -0.863  -1.275   1.153  0.00  0.00    +0.340 C 
ATOM      8  O   LIG    1        0.204  -1.930   1.218  0.00  0.00    -0.245 OA
BRANCH   7   9
ATOM      9  O   LIG    1       -1.909  -1.607   1.998  0.00  0.00    -0.477 OA
ATOM     10  H   LIG    1       -2.844  -1.814   1.641  0.00  0.00    +0.295 HD
ENDBRANCH   7   9
ENDBRANCH   2   7
BRANCH   1  11
ATOM     11  O   LIG    1        1.147  -0.557  -0.546  0.00  0.00    -0.425 OA
BRANCH  11  13
ATOM     12  C   LIG    1        3.436  -1.101   0.364  0.00  0.00    +0.136 C 
ATOM     13  C   LIG    1        2.210  -0.272   0.283  0.00  0.00    +0.309 C 
ATOM     14  O   LIG    1        2.031   0.768   0.966  0.00  0.00    -0.251 OA
ENDBRANCH  11  13
ENDBRANCH   1  11
TORSDOF 4
