REMARK  Name = molecules/BTAFSOGRDASALR-UHFFFAOYSA-N.pdb
REMARK                            x       y       z     vdW  Elec       q    Type
REMARK                         _______ _______ _______ _____ _____    ______ ____
ROOT
ATOM      1  N   LIG    1        3.123   0.448  -0.185  0.00  0.00    +0.386 N 
ENDROOT
BRANCH   1   2
ATOM      2  C   LIG    1        4.162   0.084  -1.120  0.00  0.00    -0.046 C 
BRANCH   2   3
ATOM      3  C   LIG    1        4.234   0.863  -2.381  0.00  0.00    +0.138 C 
BRANCH   3   4
ATOM      4  O   LIG    1        4.454   2.213  -2.216  0.00  0.00    -0.397 OA
ATOM      5  H   LIG    1        3.902   2.796  -2.776  0.00  0.00    +0.209 HD
ENDBRANCH   3   4
ENDBRANCH   2   3
ENDBRANCH   1   2
BRANCH   1   6
ATOM      6  C   LIG    1        1.866   0.076  -0.753  0.00  0.00    -0.074 C 
BRANCH   6   7
ATOM      7  C   LIG    1        0.806  -0.369   0.197  0.00  0.00    -0.018 C 
BRANCH   7   8
ATOM      8  C   LIG    1       -0.425  -0.679  -0.646  0.00  0.00    -0.002 C 
BRANCH   8   9
ATOM      9  C   LIG    1       -1.577  -1.143   0.200  0.00  0.00    -0.000 C 
BRANCH   9  10
ATOM     10  C   LIG    1       -2.738  -1.418  -0.747  0.00  0.00    -0.000 C 
BRANCH  10  11
ATOM     11  C   LIG    1       -3.950  -1.891   0.005  0.00  0.00    -0.000 C 
BRANCH  11  12
ATOM     12  C   LIG    1       -5.083  -2.160  -0.926  0.00  0.00    -0.000 C 
BRANCH  12  13
ATOM     13  C   LIG    1       -5.518  -0.961  -1.718  0.00  0.00    -0.000 C 
BRANCH  13  14
ATOM     14  C   LIG    1       -5.981   0.179  -0.845  0.00  0.00    -0.000 C 
BRANCH  14  15
ATOM     15  C   LIG    1       -7.147  -0.187   0.021  0.00  0.00    -0.000 C 
BRANCH  15  16
ATOM     16  C   LIG    1       -7.531   1.012   0.849  0.00  0.00    -0.003 C 
ATOM     17  C   LIG    1       -6.372   1.443   1.724  0.00  0.00    +0.004 C 
ENDBRANCH  15  16
ENDBRANCH  14  15
ENDBRANCH  13  14
ENDBRANCH  12  13
ENDBRANCH  11  12
ENDBRANCH  10  11
ENDBRANCH   9  10
ENDBRANCH   8   9
ENDBRANCH   7   8
ENDBRANCH   6   7
ENDBRANCH   1   6
BRANCH   1  18
ATOM     18  C   LIG    1        3.187   1.809   0.250  0.00  0.00    -0.046 C 
BRANCH  18  19
ATOM     19  C   LIG    1        2.146   2.737  -0.260  0.00  0.00    +0.138 C 
BRANCH  19  20
ATOM     20  O   LIG    1        2.445   4.002   0.316  0.00  0.00    -0.397 OA
ATOM     21  H   LIG    1        2.561   3.793   1.296  0.00  0.00    +0.209 HD
ENDBRANCH  19  20
ENDBRANCH  18  19
ENDBRANCH   1  18
BRANCH   1  22
ATOM     22  C   LIG    1        3.379  -0.407   0.968  0.00  0.00    -0.039 C 
BRANCH  22  23
ATOM     23  C   LIG    1        4.848  -0.638   1.183  0.00  0.00    -0.063 A 
ATOM     24  C   LIG    1        5.595   0.312   1.837  0.00  0.00    +0.002 A 
ATOM     25  C   LIG    1        6.964   0.131   2.066  0.00  0.00    +0.000 A 
ATOM     26  C   LIG    1        7.560  -1.028   1.619  0.00  0.00    +0.000 A 
ATOM     27  C   LIG    1        6.820  -1.996   0.957  0.00  0.00    +0.000 A 
ATOM     28  C   LIG    1        5.474  -1.806   0.739  0.00  0.00    +0.002 A 
ENDBRANCH  22  23
ENDBRANCH   1  22
TORSDOF 19
