REMARK  Name = molecules/BTCSSZJGUNDROE-UHFFFAOYSA-N.pdb
REMARK                            x       y       z     vdW  Elec       q    Type
REMARK                         _______ _______ _______ _____ _____    ______ ____
ROOT
ATOM      1  C   LIG    1       -0.520  -0.946  -0.656  0.00  0.00    +0.026 C 
ENDROOT
BRANCH   1   2
ATOM      2  C   LIG    1       -1.426   0.058  -0.003  0.00  0.00    +0.078 C 
BRANCH   2   3
ATOM      3  N   LIG    1       -0.948   1.406   0.014  0.00  0.00    -0.330 NA
ATOM      4  H   LIG    1       -1.538   1.984   0.660  0.00  0.00    +0.118 HD
ATOM      5  H   LIG    1       -1.055   1.888  -0.916  0.00  0.00    +0.118 HD
ENDBRANCH   2   3
ENDBRANCH   1   2
BRANCH   1   6
ATOM      6  C   LIG    1        0.815  -1.119  -0.056  0.00  0.00    +0.121 C 
BRANCH   6   7
ATOM      7  C   LIG    1        1.722   0.010  -0.014  0.00  0.00    +0.305 C 
ATOM      8  O   LIG    1        2.848  -0.200   0.587  0.00  0.00    -0.251 OA
BRANCH   7   9
ATOM      9  O   LIG    1        1.588   1.274  -0.509  0.00  0.00    -0.481 OA
ATOM     10  H   LIG    1        1.965   2.089  -0.001  0.00  0.00    +0.295 HD
ENDBRANCH   7   9
ENDBRANCH   6   7
ENDBRANCH   1   6
TORSDOF 5
