REMARK  Name = molecules/BTFMCMVEUCGQDX-UHFFFAOYSA-N.pdb
REMARK                            x       y       z     vdW  Elec       q    Type
REMARK                         _______ _______ _______ _____ _____    ______ ____
ROOT
ATOM      1  C   LIG    1       -4.510  -2.132   0.776  0.00  0.00    +0.001 C 
ATOM      2  C   LIG    1       -5.425  -1.336   1.419  0.00  0.00    -0.010 C 
ATOM      3  C   LIG    1       -5.263   0.047   1.385  0.00  0.00    +0.062 C 
ATOM      4  C   LIG    1       -4.194   0.587   0.711  0.00  0.00    +0.015 C 
ATOM      5  S   LIG    1       -4.070   2.346   0.750  0.00  0.00    -0.093 S 
ATOM      6  C   LIG    1       -2.671   2.791  -0.261  0.00  0.00    +0.020 C 
ATOM      7  C   LIG    1       -2.425   4.132  -0.450  0.00  0.00    +0.013 C 
ATOM      8  C   LIG    1       -1.380   4.581  -1.213  0.00  0.00    +0.001 C 
ATOM      9  C   LIG    1       -0.593   3.612  -1.777  0.00  0.00    -0.002 C 
ATOM     10  C   LIG    1       -0.837   2.267  -1.589  0.00  0.00    +0.007 C 
ATOM     11  C   LIG    1       -1.903   1.794  -0.811  0.00  0.00    +0.114 C 
ATOM     12  N   LIG    1       -2.140   0.400  -0.684  0.00  0.00    -0.316 N 
ATOM     13  C   LIG    1       -3.252  -0.158   0.052  0.00  0.00    +0.026 C 
ATOM     14  C   LIG    1       -3.449  -1.532   0.110  0.00  0.00    +0.080 C 
ENDROOT
BRANCH   1  16
ATOM     15  C   LIG    1       -5.820  -4.187   1.531  0.00  0.00    +0.091 C 
ATOM     16  C   LIG    1       -4.677  -3.575   0.810  0.00  0.00    +0.157 C 
ATOM     17  O   LIG    1       -3.860  -4.306   0.234  0.00  0.00    -0.293 OA
ENDBRANCH   1  16
BRANCH  12  18
ATOM     18  C   LIG    1       -1.227  -0.574  -1.226  0.00  0.00    +0.107 C 
BRANCH  18  19
ATOM     19  C   LIG    1       -0.268  -1.132  -0.212  0.00  0.00    +0.034 C 
BRANCH  19  20
ATOM     20  C   LIG    1        0.671  -0.158   0.431  0.00  0.00    +0.086 C 
BRANCH  20  21
ATOM     21  N   LIG    1        1.605   0.486  -0.427  0.00  0.00    -0.302 NA
ATOM     22  C   LIG    1        2.433   1.386   0.331  0.00  0.00    +0.084 C 
ATOM     23  C   LIG    1        3.688   0.647   0.781  0.00  0.00    +0.019 C 
ATOM     24  C   LIG    1        4.573   0.388  -0.401  0.00  0.00    -0.006 C 
ATOM     25  C   LIG    1        3.716   0.210  -1.622  0.00  0.00    +0.019 C 
ATOM     26  C   LIG    1        2.366  -0.389  -1.270  0.00  0.00    +0.084 C 
BRANCH  24  27
ATOM     27  C   LIG    1        5.470  -0.823  -0.220  0.00  0.00    +0.031 C 
BRANCH  27  28
ATOM     28  C   LIG    1        6.383  -0.660   0.975  0.00  0.00    +0.156 C 
BRANCH  28  29
ATOM     29  O   LIG    1        5.671  -0.500   2.153  0.00  0.00    -0.395 OA
ATOM     30  H   LIG    1        6.125   0.160   2.741  0.00  0.00    +0.209 HD
ENDBRANCH  28  29
ENDBRANCH  27  28
ENDBRANCH  24  27
ENDBRANCH  20  21
ENDBRANCH  19  20
ENDBRANCH  18  19
ENDBRANCH  12  18
TORSDOF 8
