REMARK  Name = molecules/BTGNGJJLZOIYID-UHFFFAOYSA-N.pdb
REMARK                            x       y       z     vdW  Elec       q    Type
REMARK                         _______ _______ _______ _____ _____    ______ ____
ROOT
ATOM      1  N   LIG    1       -2.603   0.192  -1.039  0.00  0.00    -0.216 N 
ATOM      2  H   LIG    1       -3.185  -0.074  -1.893  0.00  0.00    +0.174 HD
ENDROOT
BRANCH   1   8
ATOM      3  C   LIG    1       -3.481  -1.292   0.662  0.00  0.00    +0.059 A 
ATOM      4  C   LIG    1       -3.213  -2.271   1.593  0.00  0.00    +0.015 A 
ATOM      5  C   LIG    1       -1.946  -2.766   1.851  0.00  0.00    +0.001 A 
ATOM      6  C   LIG    1       -0.901  -2.253   1.139  0.00  0.00    +0.002 A 
ATOM      7  C   LIG    1       -1.104  -1.273   0.194  0.00  0.00    +0.025 A 
ATOM      8  C   LIG    1       -2.392  -0.794  -0.042  0.00  0.00    +0.060 A 
BRANCH   3   9
ATOM      9  C   LIG    1       -4.797  -0.757   0.397  0.00  0.00    +0.246 C 
ATOM     10  N   LIG    1       -5.913  -1.253   1.090  0.00  0.00    -0.301 N 
ATOM     11  H   LIG    1       -5.818  -1.997   1.791  0.00  0.00    +0.150 HD
ATOM     12  O   LIG    1       -4.930   0.151  -0.456  0.00  0.00    -0.270 OA
BRANCH  10  13
ATOM     13  C   LIG    1       -7.223  -0.710   0.816  0.00  0.00    +0.225 C 
BRANCH  13  14
ATOM     14  C   LIG    1       -8.260  -1.354   1.640  0.00  0.00    +0.322 C 
ATOM     15  O   LIG    1       -7.925  -2.243   2.438  0.00  0.00    -0.249 OA
BRANCH  14  16
ATOM     16  O   LIG    1       -9.579  -0.942   1.494  0.00  0.00    -0.480 OA
ATOM     17  H   LIG    1       -9.843  -0.215   0.858  0.00  0.00    +0.295 HD
ENDBRANCH  14  16
ENDBRANCH  13  14
ENDBRANCH  10  13
ENDBRANCH   3   9
ENDBRANCH   1   8
BRANCH   1  18
ATOM     18  S   LIG    1       -1.980   1.773  -0.984  0.00  0.00    +0.072 S 
ATOM     19  O   LIG    1       -2.483   2.506   0.229  0.00  0.00    -0.150 OA
ATOM     20  O   LIG    1       -2.387   2.556  -2.211  0.00  0.00    -0.150 OA
BRANCH  18  21
ATOM     21  C   LIG    1       -0.238   1.721  -0.965  0.00  0.00    +0.109 A 
ATOM     22  C   LIG    1        0.407   1.806   0.270  0.00  0.00    +0.032 A 
ATOM     23  C   LIG    1        1.772   1.764   0.271  0.00  0.00    +0.048 A 
ATOM     24  C   LIG    1        2.545   1.643  -0.866  0.00  0.00    +0.132 A 
ATOM     25  C   LIG    1        1.861   1.562  -2.064  0.00  0.00    +0.048 A 
ATOM     26  C   LIG    1        0.483   1.599  -2.126  0.00  0.00    +0.032 A 
BRANCH  24  27
ATOM     27  O   LIG    1        3.950   1.604  -0.810  0.00  0.00    -0.425 OA
BRANCH  27  28
ATOM     28  C   LIG    1        4.653   0.435  -0.686  0.00  0.00    +0.318 C 
ATOM     29  O   LIG    1        3.978  -0.644  -0.622  0.00  0.00    -0.250 OA
BRANCH  28  30
ATOM     30  C   LIG    1        6.132   0.352  -0.624  0.00  0.00    +0.060 C 
ATOM     31  C   LIG    1        6.591   1.214   0.532  0.00  0.00    +0.022 C 
ATOM     32  C   LIG    1        6.603  -1.077  -0.461  0.00  0.00    +0.022 C 
ATOM     33  C   LIG    1        6.722   0.941  -1.895  0.00  0.00    +0.022 C 
ENDBRANCH  28  30
ENDBRANCH  27  28
ENDBRANCH  24  27
ENDBRANCH  18  21
ENDBRANCH   1  18
TORSDOF 10
