REMARK  Name = molecules/BTNNPSLJPBRMLZ-LGMDPLHJSA-N.pdb
REMARK                            x       y       z     vdW  Elec       q    Type
REMARK                         _______ _______ _______ _____ _____    ______ ____
ROOT
ATOM      1  C   LIG    1       -0.618  -0.169  -0.668  0.00  0.00    +0.012 C 
ATOM      2  C   LIG    1        0.659  -0.540  -0.614  0.00  0.00    +0.020 C 
ATOM      3  C   LIG    1        0.931  -1.825   0.154  0.00  0.00    +0.062 C 
ENDROOT
BRANCH   2   4
ATOM      4  N   LIG    1        1.773   0.109  -1.145  0.00  0.00    -0.273 N 
ATOM      5  C   LIG    1        1.820   1.346  -1.789  0.00  0.00    +0.332 C 
ATOM      6  O   LIG    1        1.009   2.208  -2.072  0.00  0.00    -0.279 OA
BRANCH   4   7
ATOM      7  C   LIG    1        3.078  -0.624  -1.027  0.00  0.00    +0.153 C 
BRANCH   7   8
ATOM      8  C   LIG    1        3.778  -0.278   0.200  0.00  0.00    +0.028 A 
ATOM      9  C   LIG    1        3.255   0.630   1.107  0.00  0.00    +0.121 A 
ATOM     10  N   LIG    1        3.949   0.910   2.220  0.00  0.00    -0.240 NA
ATOM     11  C   LIG    1        5.142   0.323   2.464  0.00  0.00    +0.128 A 
ATOM     12  C   LIG    1        5.916   0.628   3.694  0.00  0.00    +0.088 C 
ATOM     13  N   LIG    1        5.649  -0.558   1.583  0.00  0.00    -0.218 NA
ATOM     14  C   LIG    1        5.000  -0.890   0.434  0.00  0.00    +0.124 A 
BRANCH  14  15
ATOM     15  N   LIG    1        5.542  -1.818  -0.487  0.00  0.00    -0.343 N 
ATOM     16  H   LIG    1        6.562  -1.828  -0.649  0.00  0.00    +0.144 HD
ATOM     17  H   LIG    1        4.948  -2.488  -1.004  0.00  0.00    +0.144 HD
ENDBRANCH  14  15
ENDBRANCH   7   8
ENDBRANCH   4   7
ENDBRANCH   2   4
BRANCH   1  18
ATOM     18  S   LIG    1       -1.061   1.285  -1.516  0.00  0.00    -0.050 S 
BRANCH  18  19
ATOM     19  C   LIG    1       -2.613   2.013  -1.272  0.00  0.00    +0.224 C 
ATOM     20  O   LIG    1       -3.240   2.443  -2.324  0.00  0.00    -0.279 OA
BRANCH  19  24
ATOM     21  C   LIG    1       -4.758   2.542   2.351  0.00  0.00    +0.000 A 
ATOM     22  C   LIG    1       -3.437   2.129   2.378  0.00  0.00    +0.001 A 
ATOM     23  C   LIG    1       -2.736   1.961   1.194  0.00  0.00    +0.012 A 
ATOM     24  C   LIG    1       -3.305   2.191  -0.029  0.00  0.00    +0.029 A 
ATOM     25  C   LIG    1       -4.641   2.608  -0.033  0.00  0.00    +0.012 A 
ATOM     26  C   LIG    1       -5.340   2.776   1.133  0.00  0.00    +0.001 A 
ENDBRANCH  19  24
ENDBRANCH  18  19
ENDBRANCH   1  18
BRANCH   1  27
ATOM     27  C   LIG    1       -1.648  -1.048  -0.040  0.00  0.00    +0.072 C 
BRANCH  27  28
ATOM     28  C   LIG    1       -2.768  -1.332  -1.064  0.00  0.00    +0.177 C 
BRANCH  28  29
ATOM     29  O   LIG    1       -2.136  -1.965  -2.131  0.00  0.00    -0.286 OA
BRANCH  29  30
ATOM     30  P   LIG    1       -3.166  -2.371  -3.374  0.00  0.00    +0.472 P 
ATOM     31  O   LIG    1       -3.154  -3.889  -3.514  0.00  0.00    -0.228 OA
BRANCH  30  32
ATOM     32  O   LIG    1       -4.747  -1.898  -3.057  0.00  0.00    -0.303 OA
ATOM     33  H   LIG    1       -5.350  -2.545  -3.518  0.00  0.00    +0.222 HD
ENDBRANCH  30  32
BRANCH  30  34
ATOM     34  O   LIG    1       -2.709  -1.694  -4.851  0.00  0.00    -0.303 OA
ATOM     35  H   LIG    1       -3.232  -2.126  -5.567  0.00  0.00    +0.222 HD
ENDBRANCH  30  34
ENDBRANCH  29  30
ENDBRANCH  28  29
ENDBRANCH  27  28
ENDBRANCH   1  27
TORSDOF 13
