REMARK  Name = molecules/BUCJFFQZPGTGPX-UHFFFAOYSA-N.pdb
REMARK                            x       y       z     vdW  Elec       q    Type
REMARK                         _______ _______ _______ _____ _____    ______ ____
ROOT
ATOM      1  C   LIG    1       -0.094  -1.174  -1.053  0.00  0.00    +0.096 C 
ENDROOT
BRANCH   1   2
ATOM      2  C   LIG    1        1.116  -0.411  -0.797  0.00  0.00    +0.089 A 
ATOM      3  C   LIG    1        2.192  -0.797  -0.045  0.00  0.00    +0.138 A 
ATOM      4  C   LIG    1        3.263   0.041   0.113  0.00  0.00    +0.059 A 
ATOM      5  C   LIG    1        4.385  -0.311   0.874  0.00  0.00    +0.015 A 
ATOM      6  C   LIG    1        5.441   0.570   1.002  0.00  0.00    +0.001 A 
ATOM      7  C   LIG    1        5.395   1.796   0.384  0.00  0.00    +0.004 A 
ATOM      8  C   LIG    1        4.302   2.165  -0.370  0.00  0.00    +0.047 A 
ATOM      9  C   LIG    1        3.241   1.275  -0.497  0.00  0.00    +0.143 A 
ATOM     10  O   LIG    1        2.212   1.628  -1.209  0.00  0.00    -0.422 OA
ATOM     11  C   LIG    1        1.186   0.858  -1.375  0.00  0.00    +0.345 A 
ATOM     12  O   LIG    1        0.242   1.306  -2.089  0.00  0.00    -0.245 OA
BRANCH   3  13
ATOM     13  O   LIG    1        2.159  -2.040   0.539  0.00  0.00    -0.506 OA
ATOM     14  H   LIG    1        2.825  -2.492   1.107  0.00  0.00    +0.292 HD
ENDBRANCH   3  13
ENDBRANCH   1   2
BRANCH   1  15
ATOM     15  C   LIG    1       -1.319  -0.338  -0.985  0.00  0.00    +0.089 A 
ATOM     16  C   LIG    1       -1.673   0.292   0.199  0.00  0.00    +0.138 A 
ATOM     17  C   LIG    1       -2.834   1.054   0.234  0.00  0.00    +0.059 A 
ATOM     18  C   LIG    1       -3.251   1.710   1.377  0.00  0.00    +0.015 A 
ATOM     19  C   LIG    1       -4.415   2.455   1.354  0.00  0.00    +0.001 A 
ATOM     20  C   LIG    1       -5.178   2.563   0.220  0.00  0.00    +0.004 A 
ATOM     21  C   LIG    1       -4.762   1.911  -0.913  0.00  0.00    +0.047 A 
ATOM     22  C   LIG    1       -3.588   1.155  -0.909  0.00  0.00    +0.143 A 
ATOM     23  O   LIG    1       -3.232   0.551  -2.012  0.00  0.00    -0.422 OA
ATOM     24  C   LIG    1       -2.142  -0.172  -2.066  0.00  0.00    +0.345 A 
ATOM     25  O   LIG    1       -1.807  -0.755  -3.148  0.00  0.00    -0.245 OA
BRANCH  16  26
ATOM     26  O   LIG    1       -0.883   0.163   1.317  0.00  0.00    -0.506 OA
ATOM     27  H   LIG    1       -1.046   0.568   2.201  0.00  0.00    +0.292 HD
ENDBRANCH  16  26
ENDBRANCH   1  15
BRANCH   1  28
ATOM     28  C   LIG    1       -0.295  -2.442  -0.314  0.00  0.00    +0.173 C 
BRANCH  28  29
ATOM     29  O   LIG    1       -0.348  -2.342   1.069  0.00  0.00    -0.382 OA
ATOM     30  C   LIG    1       -0.541  -3.640   1.556  0.00  0.00    +0.194 C 
ENDBRANCH  28  29
ENDBRANCH   1  28
TORSDOF 6
