REMARK  Name = molecules/BUROJSBIWGDYCN-HDYYFNAHSA-N.pdb
REMARK                            x       y       z     vdW  Elec       q    Type
REMARK                         _______ _______ _______ _____ _____    ______ ____
ROOT
ATOM      1  O   LIG    1       -0.480  -6.074   2.277  0.00  0.00    -0.267 OA
ATOM      2  C   LIG    1       -0.593  -4.984   1.575  0.00  0.00    +0.288 C 
ATOM      3  C   LIG    1       -1.941  -4.501   1.461  0.00  0.00    +0.276 C 
ATOM      4  O   LIG    1       -2.574  -4.253   2.536  0.00  0.00    -0.281 OA
ATOM      5  C   LIG    1       -2.698  -4.252   0.207  0.00  0.00    +0.240 C 
ATOM      6  O   LIG    1       -3.519  -3.148   0.424  0.00  0.00    -0.339 OA
ATOM      7  C   LIG    1       -4.380  -2.871  -0.625  0.00  0.00    +0.125 C 
ATOM      8  C   LIG    1       -5.822  -2.800  -0.263  0.00  0.00    +0.063 C 
ATOM      9  C   LIG    1       -6.251  -1.494   0.385  0.00  0.00    +0.127 C 
ATOM     10  C   LIG    1       -7.311  -0.872  -0.449  0.00  0.00    +0.006 C 
ATOM     11  C   LIG    1       -8.431  -0.324  -0.053  0.00  0.00    +0.006 C 
ATOM     12  C   LIG    1       -8.688   0.630   1.008  0.00  0.00    +0.000 C 
ATOM     13  C   LIG    1       -8.205   1.821   1.252  0.00  0.00    +0.000 C 
ATOM     14  C   LIG    1       -6.826   2.300   1.277  0.00  0.00    -0.000 C 
ATOM     15  C   LIG    1       -5.843   2.051   0.484  0.00  0.00    -0.001 C 
ATOM     16  C   LIG    1       -5.647   2.487  -0.950  0.00  0.00    -0.010 C 
ATOM     17  C   LIG    1       -4.393   3.275  -1.034  0.00  0.00    +0.014 C 
ATOM     18  C   LIG    1       -4.494   4.746  -1.205  0.00  0.00    +0.055 C 
ATOM     19  C   LIG    1       -5.288   5.478  -0.188  0.00  0.00    +0.015 C 
ATOM     20  C   LIG    1       -3.090   5.279  -1.161  0.00  0.00    +0.167 C 
ATOM     21  C   LIG    1       -2.421   5.828   0.023  0.00  0.00    +0.213 C 
ATOM     22  C   LIG    1       -1.279   4.936   0.539  0.00  0.00    +0.157 C 
ATOM     23  C   LIG    1        0.008   5.196  -0.159  0.00  0.00    +0.009 C 
ATOM     24  C   LIG    1        0.410   6.640  -0.398  0.00  0.00    +0.015 C 
ATOM     25  C   LIG    1        0.802   4.222  -0.580  0.00  0.00    +0.012 C 
ATOM     26  C   LIG    1        1.145   2.964   0.088  0.00  0.00    +0.056 C 
ATOM     27  C   LIG    1        0.922   2.921   1.566  0.00  0.00    +0.016 C 
ATOM     28  C   LIG    1        0.594   1.751  -0.521  0.00  0.00    +0.140 C 
ATOM     29  C   LIG    1        1.092   0.421  -0.084  0.00  0.00    +0.119 C 
ATOM     30  C   LIG    1        1.815  -0.318  -1.151  0.00  0.00    +0.186 C 
ATOM     31  O   LIG    1        2.025  -1.658  -1.001  0.00  0.00    -0.459 OA
ATOM     32  C   LIG    1        1.357  -2.739  -0.585  0.00  0.00    +0.328 C 
ATOM     33  C   LIG    1        0.854  -3.028   0.789  0.00  0.00    +0.185 C 
ATOM     34  C   LIG    1        1.895  -2.655   1.832  0.00  0.00    +0.034 C 
ATOM     35  C   LIG    1        2.980  -3.679   1.993  0.00  0.00    +0.004 C 
ATOM     36  C   LIG    1        3.003  -4.674   0.871  0.00  0.00    +0.019 C 
ATOM     37  C   LIG    1        1.664  -5.364   0.706  0.00  0.00    +0.109 C 
ATOM     38  O   LIG    1        1.089  -3.673  -1.427  0.00  0.00    -0.249 OA
ATOM     39  O   LIG    1       -0.256   1.811  -1.369  0.00  0.00    -0.297 OA
ATOM     40  O   LIG    1       -2.421   5.260  -2.209  0.00  0.00    -0.294 OA
ATOM     41  C   LIG    1       -6.862   3.066  -1.567  0.00  0.00    +0.008 C 
ATOM     42  C   LIG    1       -7.026  -0.935  -1.932  0.00  0.00    +0.015 C 
ATOM     43  C   LIG    1       -4.255  -3.830  -1.793  0.00  0.00    +0.032 C 
ATOM     44  C   LIG    1       -4.198  -5.278  -1.384  0.00  0.00    +0.011 C 
ATOM     45  C   LIG    1       -3.532  -5.497  -0.062  0.00  0.00    +0.054 C 
ATOM     46  C   LIG    1       -2.592  -6.673  -0.119  0.00  0.00    +0.013 C 
ATOM     47  N   LIG    1        0.582  -4.425   1.030  0.00  0.00    -0.282 N 
ENDROOT
BRANCH   9  48
ATOM     48  O   LIG    1       -6.608  -1.682   1.708  0.00  0.00    -0.379 OA
ATOM     49  C   LIG    1       -5.777  -1.129   2.638  0.00  0.00    +0.194 C 
ENDBRANCH   9  48
BRANCH  22  50
ATOM     50  O   LIG    1       -1.091   5.274   1.880  0.00  0.00    -0.388 OA
ATOM     51  H   LIG    1       -1.734   4.840   2.481  0.00  0.00    +0.210 HD
ENDBRANCH  22  50
BRANCH  30  52
ATOM     52  C   LIG    1        3.176   0.336  -1.492  0.00  0.00    +0.027 C 
ATOM     53  C   LIG    1        3.597  -0.388  -2.768  0.00  0.00    +0.011 C 
BRANCH  52  54
ATOM     54  C   LIG    1        4.166   0.108  -0.423  0.00  0.00    +0.010 C 
BRANCH  54  55
ATOM     55  C   LIG    1        5.520   0.686  -0.548  0.00  0.00    -0.008 C 
ATOM     56  C   LIG    1        6.361   0.343   0.701  0.00  0.00    +0.037 C 
ATOM     57  C   LIG    1        7.325  -0.765   0.463  0.00  0.00    +0.147 C 
ATOM     58  C   LIG    1        8.402  -0.276  -0.499  0.00  0.00    +0.155 C 
ATOM     59  C   LIG    1        7.813   0.740  -1.445  0.00  0.00    +0.035 C 
ATOM     60  C   LIG    1        6.348   0.329  -1.722  0.00  0.00    +0.006 C 
BRANCH  57  61
ATOM     61  O   LIG    1        6.795  -1.931  -0.036  0.00  0.00    -0.377 OA
ATOM     62  C   LIG    1        7.056  -3.033   0.784  0.00  0.00    +0.194 C 
ENDBRANCH  57  61
BRANCH  58  63
ATOM     63  O   LIG    1        9.383   0.395   0.235  0.00  0.00    -0.322 OA
BRANCH  63  64
ATOM     64  P   LIG    1       10.878  -0.325  -0.035  0.00  0.00    +0.199 P 
ATOM     65  C   LIG    1       12.064   0.500   1.095  0.00  0.00    +0.111 C 
ATOM     66  C   LIG    1       10.818  -2.092   0.390  0.00  0.00    +0.111 C 
ATOM     67  O   LIG    1       11.335  -0.204  -1.457  0.00  0.00    -0.291 OA
ENDBRANCH  63  64
ENDBRANCH  58  63
ENDBRANCH  54  55
ENDBRANCH  52  54
ENDBRANCH  30  52
BRANCH  21  68
ATOM     68  O   LIG    1       -2.027   7.130  -0.083  0.00  0.00    -0.370 OA
ATOM     69  C   LIG    1       -2.537   8.037   0.790  0.00  0.00    +0.195 C 
ENDBRANCH  21  68
BRANCH   5  70
ATOM     70  O   LIG    1       -1.882  -4.083  -0.903  0.00  0.00    -0.358 OA
ATOM     71  H   LIG    1       -1.781  -4.850  -1.483  0.00  0.00    +0.213 HD
ENDBRANCH   5  70
TORSDOF 10
