REMARK  Name = molecules/BVCKFLJARNKCSS-HQQIEPHNSA-N.pdb
REMARK                            x       y       z     vdW  Elec       q    Type
REMARK                         _______ _______ _______ _____ _____    ______ ____
ROOT
ATOM      1  C   LIG    1       -0.127  -1.403   0.469  0.00  0.00    +0.242 C 
ATOM      2  C   LIG    1       -1.431  -0.848   0.837  0.00  0.00    +0.195 C 
ATOM      3  S   LIG    1       -1.464   0.892   1.393  0.00  0.00    -0.125 S 
ATOM      4  C   LIG    1       -2.763   1.423   0.201  0.00  0.00    +0.042 C 
ATOM      5  C   LIG    1       -4.022   1.675   1.000  0.00  0.00    +0.025 C 
ATOM      6  C   LIG    1       -2.322   2.621  -0.575  0.00  0.00    +0.025 C 
ATOM      7  C   LIG    1       -2.957   0.204  -0.646  0.00  0.00    +0.201 C 
ATOM      8  N   LIG    1       -1.782  -0.614  -0.544  0.00  0.00    -0.266 N 
ATOM      9  C   LIG    1       -0.671  -1.393  -0.923  0.00  0.00    +0.271 C 
ATOM     10  O   LIG    1       -0.190  -1.936  -1.961  0.00  0.00    -0.270 OA
ENDROOT
BRANCH   1  11
ATOM     11  N   LIG    1        1.045  -0.621   0.673  0.00  0.00    -0.277 N 
ATOM     12  H   LIG    1        1.001   0.339   1.078  0.00  0.00    +0.152 HD
ATOM     13  C   LIG    1        2.319  -1.143   0.322  0.00  0.00    +0.234 C 
ATOM     14  O   LIG    1        2.408  -2.298  -0.170  0.00  0.00    -0.274 OA
BRANCH  13  15
ATOM     15  C   LIG    1        3.569  -0.357   0.519  0.00  0.00    +0.213 C 
BRANCH  15  16
ATOM     16  C   LIG    1        3.498   0.933  -0.284  0.00  0.00    -0.018 A 
ATOM     17  C   LIG    1        3.609   2.144   0.352  0.00  0.00    +0.050 A 
ATOM     18  S   LIG    1        3.473   3.263  -0.928  0.00  0.00    -0.105 S 
ATOM     19  C   LIG    1        3.281   2.174  -2.224  0.00  0.00    +0.045 A 
ATOM     20  C   LIG    1        3.329   0.954  -1.611  0.00  0.00    +0.012 A 
ENDBRANCH  15  16
BRANCH  15  21
ATOM     21  C   LIG    1        4.740  -1.120   0.028  0.00  0.00    +0.321 C 
ATOM     22  O   LIG    1        5.693  -1.431   0.778  0.00  0.00    -0.250 OA
BRANCH  21  23
ATOM     23  O   LIG    1        4.837  -1.532  -1.311  0.00  0.00    -0.480 OA
ATOM     24  H   LIG    1        4.433  -2.444  -1.560  0.00  0.00    +0.295 HD
ENDBRANCH  21  23
ENDBRANCH  15  21
ENDBRANCH  13  15
ENDBRANCH   1  11
BRANCH   1  25
ATOM     25  O   LIG    1       -0.003  -2.734   0.880  0.00  0.00    -0.349 OA
ATOM     26  C   LIG    1        0.286  -2.831   2.236  0.00  0.00    +0.197 C 
ENDBRANCH   1  25
BRANCH   7  27
ATOM     27  C   LIG    1       -4.115  -0.625  -0.311  0.00  0.00    +0.327 C 
ATOM     28  O   LIG    1       -4.059  -1.830   0.045  0.00  0.00    -0.249 OA
BRANCH  27  29
ATOM     29  O   LIG    1       -5.383  -0.068  -0.384  0.00  0.00    -0.479 OA
ATOM     30  H   LIG    1       -6.144  -0.398   0.181  0.00  0.00    +0.295 HD
ENDBRANCH  27  29
ENDBRANCH   7  27
TORSDOF 8
