REMARK  Name = molecules/BVPWJMCABCPUQY-UHFFFAOYSA-N.pdb
REMARK                            x       y       z     vdW  Elec       q    Type
REMARK                         _______ _______ _______ _____ _____    ______ ____
ROOT
ATOM      1  C   LIG    1       -2.340  -1.169  -0.584  0.00  0.00    +0.248 C 
ATOM      2  N   LIG    1       -1.257  -0.428  -0.083  0.00  0.00    -0.308 N 
ATOM      3  H   LIG    1       -1.323   0.522   0.285  0.00  0.00    +0.149 HD
ATOM      4  O   LIG    1       -2.119  -2.365  -1.021  0.00  0.00    -0.270 OA
ENDROOT
BRANCH   1   5
ATOM      5  C   LIG    1       -3.729  -0.733  -0.670  0.00  0.00    +0.080 A 
ATOM      6  C   LIG    1       -4.177   0.494  -0.263  0.00  0.00    +0.134 A 
ATOM      7  C   LIG    1       -5.522   0.846  -0.375  0.00  0.00    +0.070 A 
ATOM      8  C   LIG    1       -6.473  -0.001  -0.893  0.00  0.00    +0.047 A 
ATOM      9  C   LIG    1       -6.022  -1.236  -1.303  0.00  0.00    +0.062 A 
ATOM     10 CL   LIG    1       -7.184  -2.375  -1.978  0.00  0.00    -0.082 Cl
ATOM     11  C   LIG    1       -4.702  -1.591  -1.197  0.00  0.00    +0.038 A 
BRANCH   8  12
ATOM     12  N   LIG    1       -7.836   0.382  -0.996  0.00  0.00    -0.357 N 
ATOM     13  H   LIG    1       -8.517   0.301  -0.218  0.00  0.00    +0.142 HD
ATOM     14  H   LIG    1       -8.166   0.765  -1.903  0.00  0.00    +0.142 HD
ENDBRANCH   8  12
BRANCH   6  15
ATOM     15  O   LIG    1       -3.296   1.417   0.273  0.00  0.00    -0.494 OA
ATOM     16  C   LIG    1       -3.732   2.690   0.701  0.00  0.00    +0.277 C 
ENDBRANCH   6  15
ENDBRANCH   1   5
BRANCH   2  17
ATOM     17  C   LIG    1        0.065  -1.031  -0.076  0.00  0.00    +0.076 C 
ATOM     18  C   LIG    1        0.679  -1.068   1.284  0.00  0.00    +0.037 C 
ATOM     19  C   LIG    1        2.160  -0.761   1.193  0.00  0.00    +0.086 C 
ATOM     20  N   LIG    1        2.780  -1.290   0.044  0.00  0.00    -0.298 NA
ATOM     21  C   LIG    1        2.207  -1.036  -1.221  0.00  0.00    +0.086 C 
ATOM     22  C   LIG    1        0.927  -0.224  -1.051  0.00  0.00    +0.037 C 
BRANCH  20  23
ATOM     23  C   LIG    1        4.181  -1.457   0.042  0.00  0.00    +0.119 C 
BRANCH  23  24
ATOM     24  C   LIG    1        4.946  -0.206   0.231  0.00  0.00    -0.033 A 
ATOM     25  C   LIG    1        6.208  -0.263   0.774  0.00  0.00    +0.005 A 
ATOM     26  C   LIG    1        6.984   0.860   0.986  0.00  0.00    +0.000 A 
ATOM     27  C   LIG    1        6.466   2.083   0.636  0.00  0.00    +0.000 A 
ATOM     28  C   LIG    1        5.206   2.167   0.092  0.00  0.00    +0.000 A 
ATOM     29  C   LIG    1        4.431   1.018  -0.117  0.00  0.00    +0.005 A 
ENDBRANCH  23  24
ENDBRANCH  20  23
ENDBRANCH   2  17
TORSDOF 6
