REMARK  Name = molecules/BWPIARFWQZKAIA-UHFFFAOYSA-N.pdb
REMARK                            x       y       z     vdW  Elec       q    Type
REMARK                         _______ _______ _______ _____ _____    ______ ____
ROOT
ATOM      1  C   LIG    1       -0.494   0.182   0.832  0.00  0.00    +0.050 C 
ATOM      2  C   LIG    1       -1.144   1.469   0.558  0.00  0.00    -0.033 A 
ATOM      3  C   LIG    1       -1.194   2.282   1.704  0.00  0.00    +0.005 A 
ATOM      4  C   LIG    1       -1.749   3.527   1.600  0.00  0.00    +0.000 A 
ATOM      5  C   LIG    1       -2.255   3.987   0.396  0.00  0.00    +0.001 A 
ATOM      6  C   LIG    1       -2.202   3.183  -0.720  0.00  0.00    +0.008 A 
ATOM      7  C   LIG    1       -1.645   1.915  -0.644  0.00  0.00    -0.021 A 
ATOM      8  C   LIG    1       -1.702   1.211  -1.946  0.00  0.00    +0.009 C 
ATOM      9  C   LIG    1       -1.742  -0.101  -2.130  0.00  0.00    +0.009 C 
ATOM     10  C   LIG    1       -1.737  -1.093  -1.022  0.00  0.00    -0.021 A 
ATOM     11  C   LIG    1       -2.366  -2.281  -1.375  0.00  0.00    +0.008 A 
ATOM     12  C   LIG    1       -2.462  -3.298  -0.459  0.00  0.00    +0.001 A 
ATOM     13  C   LIG    1       -1.942  -3.158   0.810  0.00  0.00    +0.000 A 
ATOM     14  C   LIG    1       -1.323  -1.970   1.135  0.00  0.00    +0.005 A 
ATOM     15  C   LIG    1       -1.215  -0.938   0.232  0.00  0.00    -0.033 A 
ENDROOT
BRANCH   1  16
ATOM     16  C   LIG    1        0.923   0.170   0.214  0.00  0.00    +0.014 C 
BRANCH  16  17
ATOM     17  C   LIG    1        1.591  -1.157   0.498  0.00  0.00    +0.016 C 
BRANCH  17  18
ATOM     18  C   LIG    1        2.958  -1.230  -0.077  0.00  0.00    +0.080 C 
BRANCH  18  19
ATOM     19  N   LIG    1        3.816  -0.213   0.457  0.00  0.00    -0.319 NA
ATOM     20  H   LIG    1        3.437   0.733   0.260  0.00  0.00    +0.122 HD
ATOM     21  C   LIG    1        5.162  -0.296  -0.096  0.00  0.00    +0.101 C 
ENDBRANCH  18  19
ENDBRANCH  17  18
ENDBRANCH  16  17
ENDBRANCH   1  16
TORSDOF 4
