REMARK  Name = molecules/BWSSMIJUDVUASQ-AWEZNQCLSA-N.pdb
REMARK                            x       y       z     vdW  Elec       q    Type
REMARK                         _______ _______ _______ _____ _____    ______ ____
ROOT
ATOM      1  O   LIG    1        1.984  -3.355   0.654  0.00  0.00    -0.153 OA
ATOM      2  S   LIG    1        1.178  -2.592  -0.381  0.00  0.00    +0.062 S 
ATOM      3  N   LIG    1       -0.462  -2.719  -0.001  0.00  0.00    -0.170 NA
ATOM      4  H   LIG    1       -0.906  -3.635  -0.223  0.00  0.00    +0.150 HD
ATOM      5  C   LIG    1       -1.280  -1.608  -0.283  0.00  0.00    +0.164 C 
ATOM      6  N   LIG    1       -0.672  -0.401  -0.665  0.00  0.00    -0.326 N 
ATOM      7  C   LIG    1        0.650   0.020  -0.408  0.00  0.00    +0.056 A 
ATOM      8  C   LIG    1        0.977   1.360  -0.311  0.00  0.00    +0.047 A 
ATOM      9  C   LIG    1        2.294   1.714  -0.054  0.00  0.00    +0.069 A 
ATOM     10  C   LIG    1        3.267   0.747   0.103  0.00  0.00    +0.125 A 
ATOM     11  C   LIG    1        2.947  -0.613   0.006  0.00  0.00    +0.060 A 
ATOM     12 CL   LIG    1        2.744   3.402   0.076  0.00  0.00    -0.081 Cl
ATOM     13  H   LIG    1       -1.274   0.287  -1.213  0.00  0.00    +0.148 HD
ATOM     14  C   LIG    1        1.642  -0.913  -0.247  0.00  0.00    +0.128 A 
ATOM     15  O   LIG    1        1.532  -3.058  -1.760  0.00  0.00    -0.153 OA
ENDROOT
BRANCH  10  16
ATOM     16  S   LIG    1        4.919   1.225   0.426  0.00  0.00    +0.057 S 
ATOM     17  O   LIG    1        4.984   2.069   1.668  0.00  0.00    -0.153 OA
ATOM     18  O   LIG    1        5.449   2.035  -0.717  0.00  0.00    -0.153 OA
BRANCH  16  19
ATOM     19  N   LIG    1        5.909  -0.183   0.574  0.00  0.00    -0.203 NA
ATOM     20  H   LIG    1        5.987  -0.380   1.616  0.00  0.00    +0.144 HD
ATOM     21  H   LIG    1        6.894   0.089   0.291  0.00  0.00    +0.144 HD
ENDBRANCH  16  19
ENDBRANCH  10  16
BRANCH   5  22
ATOM     22  C   LIG    1       -2.138  -1.327   0.959  0.00  0.00    +0.075 C 
BRANCH  22  23
ATOM     23  C   LIG    1       -3.032  -0.159   0.730  0.00  0.00    -0.044 A 
ATOM     24  C   LIG    1       -2.625   1.133   1.036  0.00  0.00    +0.004 A 
ATOM     25  C   LIG    1       -3.458   2.213   0.821  0.00  0.00    +0.000 A 
ATOM     26  C   LIG    1       -4.714   2.008   0.295  0.00  0.00    +0.000 A 
ATOM     27  C   LIG    1       -5.158   0.740  -0.023  0.00  0.00    +0.000 A 
ATOM     28  C   LIG    1       -4.300  -0.310   0.205  0.00  0.00    +0.004 A 
ENDBRANCH  22  23
ENDBRANCH   5  22
TORSDOF 4
