REMARK  Name = molecules/BXCMCXBSUDRYPF-GOSISDBHSA-N.pdb
REMARK                            x       y       z     vdW  Elec       q    Type
REMARK                         _______ _______ _______ _____ _____    ______ ____
ROOT
ATOM      1  C   LIG    1        0.238   0.688   0.383  0.00  0.00    +0.178 C 
ENDROOT
BRANCH   1   2
ATOM      2  C   LIG    1        0.555   2.148   0.308  0.00  0.00    -0.015 A 
ATOM      3  C   LIG    1        0.783   2.898   1.430  0.00  0.00    +0.006 A 
ATOM      4  C   LIG    1        1.077   4.243   1.385  0.00  0.00    +0.000 A 
ATOM      5  C   LIG    1        1.153   4.901   0.176  0.00  0.00    +0.000 A 
ATOM      6  C   LIG    1        0.927   4.166  -0.970  0.00  0.00    +0.000 A 
ATOM      7  C   LIG    1        0.632   2.813  -0.912  0.00  0.00    +0.006 A 
ENDBRANCH   1   2
BRANCH   1   8
ATOM      8  C   LIG    1        1.438  -0.138   0.149  0.00  0.00    -0.014 A 
ATOM      9  C   LIG    1        2.704   0.388   0.114  0.00  0.00    +0.010 A 
ATOM     10  C   LIG    1        3.800  -0.427  -0.110  0.00  0.00    +0.046 A 
ATOM     11  C   LIG    1        3.641  -1.786  -0.301  0.00  0.00    +0.120 A 
ATOM     12  C   LIG    1        2.372  -2.320  -0.267  0.00  0.00    +0.046 A 
ATOM     13  C   LIG    1        1.294  -1.492  -0.043  0.00  0.00    +0.010 A 
BRANCH  11  14
ATOM     14  O   LIG    1        4.778  -2.569  -0.523  0.00  0.00    -0.495 OA
ATOM     15  C   LIG    1        4.581  -3.958  -0.716  0.00  0.00    +0.277 C 
ENDBRANCH  11  14
ENDBRANCH   1   8
BRANCH   1  16
ATOM     16  O   LIG    1       -0.815   0.410  -0.463  0.00  0.00    -0.366 OA
BRANCH  16  17
ATOM     17  C   LIG    1       -1.965   0.011   0.216  0.00  0.00    +0.176 C 
BRANCH  17  18
ATOM     18  C   LIG    1       -3.059  -0.271  -0.792  0.00  0.00    +0.112 C 
BRANCH  18  19
ATOM     19  N   LIG    1       -4.256  -0.685  -0.088  0.00  0.00    -0.306 NA
ATOM     20  C   LIG    1       -3.999  -1.816   0.784  0.00  0.00    +0.104 C 
ATOM     21  C   LIG    1       -5.348  -0.975  -0.963  0.00  0.00    +0.104 C 
ENDBRANCH  18  19
ENDBRANCH  17  18
ENDBRANCH  16  17
ENDBRANCH   1  16
TORSDOF 7
