REMARK  Name = molecules/BYPFEZZEUUWMEJ-UHFFFAOYSA-N.pdb
REMARK                            x       y       z     vdW  Elec       q    Type
REMARK                         _______ _______ _______ _____ _____    ______ ____
ROOT
ATOM      1  O   LIG    1       -1.056   1.435   1.024  0.00  0.00    -0.265 OA
ATOM      2  C   LIG    1       -1.479   0.309   0.629  0.00  0.00    +0.282 A 
ATOM      3  N   LIG    1       -0.694  -0.781   0.703  0.00  0.00    -0.259 N 
ATOM      4  C   LIG    1       -1.183  -1.940   0.276  0.00  0.00    +0.333 A 
ATOM      5  O   LIG    1       -0.496  -2.985   0.321  0.00  0.00    -0.246 OA
ATOM      6  N   LIG    1       -2.442  -2.062  -0.229  0.00  0.00    -0.280 N 
ATOM      7  C   LIG    1       -3.217  -0.965  -0.298  0.00  0.00    +0.168 A 
ATOM      8  N   LIG    1       -4.470  -0.728  -0.727  0.00  0.00    -0.218 NA
ATOM      9  C   LIG    1       -4.758   0.580  -0.566  0.00  0.00    +0.202 A 
ATOM     10  N   LIG    1       -3.689   1.214  -0.027  0.00  0.00    -0.328 N 
ATOM     11  C   LIG    1       -3.588   2.640   0.308  0.00  0.00    +0.150 C 
ATOM     12  C   LIG    1       -2.915  -3.356  -0.678  0.00  0.00    +0.155 C 
ATOM     13  C   LIG    1       -2.760   0.263   0.131  0.00  0.00    +0.151 A 
ENDROOT
BRANCH   3  14
ATOM     14  C   LIG    1        0.623  -0.633   1.237  0.00  0.00    +0.130 C 
BRANCH  14  15
ATOM     15  C   LIG    1        1.668  -0.306   0.195  0.00  0.00    +0.022 C 
BRANCH  15  16
ATOM     16  C   LIG    1        2.982  -0.188   0.926  0.00  0.00    +0.009 C 
BRANCH  16  17
ATOM     17  C   LIG    1        4.157   0.129   0.066  0.00  0.00    +0.074 C 
BRANCH  17  18
ATOM     18  C   LIG    1        4.070   1.402  -0.648  0.00  0.00    +0.130 C 
ATOM     19  O   LIG    1        3.143   2.171  -0.535  0.00  0.00    -0.298 OA
ATOM     20  C   LIG    1        5.169   1.833  -1.591  0.00  0.00    +0.086 C 
ENDBRANCH  17  18
ENDBRANCH  16  17
ENDBRANCH  15  16
ENDBRANCH  14  15
ENDBRANCH   3  14
TORSDOF 5
