REMARK  Name = molecules/BYPIURIATSUHDW-SNVBAGLBSA-N.pdb
REMARK                            x       y       z     vdW  Elec       q    Type
REMARK                         _______ _______ _______ _____ _____    ______ ____
ROOT
ATOM      1  C   LIG    1       -1.580  -0.871  -0.168  0.00  0.00    -0.036 A 
ATOM      2  C   LIG    1       -0.963  -0.180   0.855  0.00  0.00    +0.004 A 
ATOM      3  C   LIG    1        0.408  -0.135   1.010  0.00  0.00    +0.004 A 
ATOM      4  C   LIG    1        1.203  -0.799   0.122  0.00  0.00    -0.047 A 
ATOM      5  C   LIG    1        0.600  -1.493  -0.904  0.00  0.00    +0.004 A 
ATOM      6  C   LIG    1       -0.764  -1.548  -1.074  0.00  0.00    +0.004 A 
ENDROOT
BRANCH   1   7
ATOM      7  C   LIG    1       -3.056  -0.919  -0.312  0.00  0.00    +0.104 C 
ATOM      8  C   LIG    1       -3.784  -1.087   0.974  0.00  0.00    +0.022 C 
BRANCH   7   9
ATOM      9  C   LIG    1       -3.617   0.211  -1.086  0.00  0.00    +0.243 C 
ATOM     10  N   LIG    1       -3.446   1.530  -0.619  0.00  0.00    -0.197 N 
ATOM     11  H   LIG    1       -2.927   1.691   0.270  0.00  0.00    +0.182 HD
ATOM     12  O   LIG    1       -4.249   0.042  -2.158  0.00  0.00    -0.273 OA
BRANCH  10  13
ATOM     13  O   LIG    1       -3.945   2.599  -1.298  0.00  0.00    -0.295 OA
ATOM     14  H   LIG    1       -4.270   3.240  -0.602  0.00  0.00    +0.241 HD
ENDBRANCH  10  13
ENDBRANCH   7   9
ENDBRANCH   1   7
BRANCH   4  15
ATOM     15  C   LIG    1        2.682  -0.777   0.254  0.00  0.00    +0.038 C 
BRANCH  15  16
ATOM     16  C   LIG    1        3.295   0.382  -0.507  0.00  0.00    -0.013 C 
ATOM     17  C   LIG    1        2.764   1.703  -0.045  0.00  0.00    +0.007 C 
ATOM     18  C   LIG    1        4.803   0.289  -0.292  0.00  0.00    +0.007 C 
ENDBRANCH  15  16
ENDBRANCH   4  15
TORSDOF 5
