REMARK  Name = molecules/BZEWSEKUUPWQDQ-UHFFFAOYSA-N.pdb
REMARK                            x       y       z     vdW  Elec       q    Type
REMARK                         _______ _______ _______ _____ _____    ______ ____
ROOT
ATOM      1  C   LIG    1        0.357  -0.923  -1.029  0.00  0.00    -0.009 A 
ATOM      2  C   LIG    1        1.005  -0.101  -0.143  0.00  0.00    +0.010 A 
ATOM      3  C   LIG    1        2.295   0.297  -0.317  0.00  0.00    +0.046 A 
ATOM      4  C   LIG    1        3.053  -0.116  -1.422  0.00  0.00    +0.121 A 
ATOM      5  C   LIG    1        2.364  -0.969  -2.320  0.00  0.00    +0.046 A 
ATOM      6  C   LIG    1        1.075  -1.361  -2.144  0.00  0.00    +0.010 A 
ENDROOT
BRANCH   1   7
ATOM      7  C   LIG    1       -1.029  -1.296  -0.922  0.00  0.00    +0.166 C 
ATOM      8  O   LIG    1       -1.542  -2.171  -1.737  0.00  0.00    -0.219 OA
BRANCH   7   9
ATOM      9  C   LIG    1       -1.948  -0.706   0.083  0.00  0.00    +0.062 C 
BRANCH   9  10
ATOM     10  C   LIG    1       -3.325  -0.680  -0.616  0.00  0.00    +0.088 C 
BRANCH  10  11
ATOM     11  N   LIG    1       -4.357  -0.118   0.135  0.00  0.00    -0.302 NA
ATOM     12  C   LIG    1       -4.361   1.260   0.424  0.00  0.00    +0.084 C 
ATOM     13  C   LIG    1       -4.936   1.581   1.790  0.00  0.00    +0.015 C 
ATOM     14  C   LIG    1       -5.651   0.423   2.396  0.00  0.00    +0.002 C 
ATOM     15  C   LIG    1       -6.436  -0.411   1.409  0.00  0.00    +0.015 C 
ATOM     16  C   LIG    1       -5.620  -0.778   0.194  0.00  0.00    +0.084 C 
ENDBRANCH  10  11
ENDBRANCH   9  10
ENDBRANCH   7   9
ENDBRANCH   1   7
BRANCH   4  17
ATOM     17  O   LIG    1        4.271   0.215  -1.674  0.00  0.00    -0.492 OA
BRANCH  17  18
ATOM     18  C   LIG    1        5.485   0.560  -1.902  0.00  0.00    +0.229 C 
BRANCH  18  19
ATOM     19  C   LIG    1        6.441   0.024  -0.815  0.00  0.00    +0.041 C 
BRANCH  19  20
ATOM     20  C   LIG    1        6.096   0.515   0.560  0.00  0.00    -0.000 C 
ATOM     21  C   LIG    1        7.130  -0.143   1.501  0.00  0.00    +0.004 C 
ENDBRANCH  19  20
ENDBRANCH  18  19
ENDBRANCH  17  18
ENDBRANCH   4  17
TORSDOF 8
