REMARK  Name = molecules/BZMKNPGKXJAIDV-VAWYXSNFSA-N.pdb
REMARK                            x       y       z     vdW  Elec       q    Type
REMARK                         _______ _______ _______ _____ _____    ______ ____
ROOT
ATOM      1  C   LIG    1        0.248  -0.894  -0.068  0.00  0.00    +0.031 A 
ATOM      2  C   LIG    1       -1.108  -1.250  -0.066  0.00  0.00    +0.034 A 
ATOM      3  C   LIG    1       -1.402  -2.517  -0.427  0.00  0.00    +0.023 A 
ATOM      4  C   LIG    1       -0.419  -3.451  -0.791  0.00  0.00    +0.002 A 
ATOM      5  C   LIG    1        0.913  -3.043  -0.776  0.00  0.00    +0.008 A 
ATOM      6  C   LIG    1        1.257  -1.766  -0.416  0.00  0.00    -0.023 A 
ENDROOT
BRANCH   2   7
ATOM      7  N   LIG    1       -2.052  -0.287   0.304  0.00  0.00    -0.285 N 
ATOM      8  H   LIG    1       -1.675   0.671   0.584  0.00  0.00    +0.155 HD
ATOM      9  C   LIG    1       -3.452  -0.402   0.360  0.00  0.00    +0.218 C 
ATOM     10  O   LIG    1       -4.017  -1.458   0.061  0.00  0.00    -0.275 OA
BRANCH   9  11
ATOM     11  C   LIG    1       -4.265   0.763   0.784  0.00  0.00    +0.114 C 
BRANCH  11  12
ATOM     12  C   LIG    1       -5.723   0.649   0.630  0.00  0.00    +0.075 C 
BRANCH  12  13
ATOM     13  C   LIG    1       -6.338   1.839   1.438  0.00  0.00    +0.015 C 
ATOM     14  C   LIG    1       -5.876   3.163   0.929  0.00  0.00    +0.005 C 
ENDBRANCH  12  13
BRANCH  12  15
ATOM     15  C   LIG    1       -6.301  -0.528   1.358  0.00  0.00    +0.311 C 
ATOM     16  O   LIG    1       -5.646  -1.304   2.077  0.00  0.00    -0.250 OA
BRANCH  15  17
ATOM     17  O   LIG    1       -7.660  -0.749   1.206  0.00  0.00    -0.480 OA
ATOM     18  H   LIG    1       -8.205  -1.335   1.856  0.00  0.00    +0.295 HD
ENDBRANCH  15  17
ENDBRANCH  12  15
BRANCH  12  19
ATOM     19  C   LIG    1       -6.312   0.759  -0.715  0.00  0.00    +0.015 C 
ATOM     20  C   LIG    1       -5.901  -0.232  -1.754  0.00  0.00    +0.005 C 
ENDBRANCH  12  19
ENDBRANCH  11  12
ENDBRANCH   9  11
ENDBRANCH   2   7
BRANCH   6  21
ATOM     21  C   LIG    1        2.653  -1.342  -0.401  0.00  0.00    +0.010 C 
ATOM     22  C   LIG    1        3.651  -2.131  -0.723  0.00  0.00    +0.035 C 
BRANCH  22  23
ATOM     23  C   LIG    1        5.040  -1.598  -0.675  0.00  0.00    +0.101 A 
ATOM     24  N   LIG    1        5.448  -0.387  -0.338  0.00  0.00    -0.244 NA
ATOM     25  C   LIG    1        6.711  -0.104  -0.356  0.00  0.00    +0.052 A 
ATOM     26  C   LIG    1        7.578  -1.105  -0.733  0.00  0.00    +0.070 A 
ATOM     27  S   LIG    1        6.500  -2.395  -1.038  0.00  0.00    -0.076 S 
BRANCH  25  28
ATOM     28  C   LIG    1        7.234   1.275   0.023  0.00  0.00    +0.038 C 
ATOM     29  C   LIG    1        8.344   1.237   1.012  0.00  0.00    +0.010 C 
ATOM     30  C   LIG    1        9.310   1.663  -0.059  0.00  0.00    +0.001 C 
ATOM     31  C   LIG    1        8.150   1.828  -1.010  0.00  0.00    +0.010 C 
ENDBRANCH  25  28
ENDBRANCH  22  23
ENDBRANCH   6  21
TORSDOF 10
