REMARK  Name = molecules/CAMYKONBWHRPDD-UHFFFAOYSA-N.pdb
REMARK                            x       y       z     vdW  Elec       q    Type
REMARK                         _______ _______ _______ _____ _____    ______ ____
ROOT
ATOM      1  C   LIG    1        0.839  -0.408   0.116  0.00  0.00    +0.046 C 
ENDROOT
BRANCH   1   2
ATOM      2  C   LIG    1       -0.307  -0.929  -0.750  0.00  0.00    +0.038 C 
BRANCH   2   3
ATOM      3  C   LIG    1       -1.614  -0.373  -0.316  0.00  0.00    -0.047 A 
ATOM      4  C   LIG    1       -2.410  -0.992   0.623  0.00  0.00    +0.003 A 
ATOM      5  C   LIG    1       -3.620  -0.455   1.011  0.00  0.00    +0.000 A 
ATOM      6  C   LIG    1       -4.013   0.733   0.424  0.00  0.00    +0.000 A 
ATOM      7  C   LIG    1       -3.231   1.368  -0.518  0.00  0.00    +0.000 A 
ATOM      8  C   LIG    1       -2.025   0.812  -0.890  0.00  0.00    +0.003 A 
ENDBRANCH   2   3
ENDBRANCH   1   2
BRANCH   1   9
ATOM      9  C   LIG    1        2.100  -1.033  -0.411  0.00  0.00    +0.234 C 
BRANCH   9  10
ATOM     10  O   LIG    1        3.257  -0.654   0.281  0.00  0.00    -0.451 OA
BRANCH  10  11
ATOM     11  C   LIG    1        3.692   0.648   0.385  0.00  0.00    +0.398 C 
ATOM     12  N   LIG    1        4.845   1.068   1.070  0.00  0.00    -0.295 N 
ATOM     13  H   LIG    1        4.878   2.041   1.480  0.00  0.00    +0.148 HD
ATOM     14  H   LIG    1        5.693   0.489   1.212  0.00  0.00    +0.148 HD
ATOM     15  O   LIG    1        2.982   1.512  -0.188  0.00  0.00    -0.227 OA
ENDBRANCH  10  11
ENDBRANCH   9  10
ENDBRANCH   1   9
TORSDOF 5
