REMARK  Name = molecules/CDAISMWEOUEBRE-GPIVLXJGSA-N.pdb
REMARK                            x       y       z     vdW  Elec       q    Type
REMARK                         _______ _______ _______ _____ _____    ______ ____
ROOT
ATOM      1  C   LIG    1       -1.415  -0.060  -0.043  0.00  0.00    +0.176 C 
ATOM      2  C   LIG    1       -0.625   0.997   0.743  0.00  0.00    +0.176 C 
ATOM      3  C   LIG    1        0.654   1.131  -0.088  0.00  0.00    +0.176 C 
ATOM      4  C   LIG    1        1.448  -0.104   0.167  0.00  0.00    +0.176 C 
ATOM      5  C   LIG    1        0.724  -1.377   0.078  0.00  0.00    +0.176 C 
ATOM      6  C   LIG    1       -0.741  -1.362   0.203  0.00  0.00    +0.176 C 
ENDROOT
BRANCH   1   7
ATOM      7  O   LIG    1       -2.736  -0.088   0.311  0.00  0.00    -0.386 OA
ATOM      8  H   LIG    1       -3.220   0.714  -0.032  0.00  0.00    +0.210 HD
ENDBRANCH   1   7
BRANCH   2   9
ATOM      9  O   LIG    1       -1.301   2.171   0.876  0.00  0.00    -0.386 OA
ATOM     10  H   LIG    1       -1.556   2.290   1.846  0.00  0.00    +0.210 HD
ENDBRANCH   2   9
BRANCH   3  11
ATOM     11  O   LIG    1        1.334   2.265   0.279  0.00  0.00    -0.386 OA
ATOM     12  H   LIG    1        1.805   2.717  -0.474  0.00  0.00    +0.210 HD
ENDBRANCH   3  11
BRANCH   5  13
ATOM     13  O   LIG    1        1.078  -2.013  -1.135  0.00  0.00    -0.386 OA
ATOM     14  H   LIG    1        0.713  -1.544  -1.903  0.00  0.00    +0.210 HD
ENDBRANCH   5  13
BRANCH   4  15
ATOM     15  O   LIG    1        2.536  -0.093  -0.732  0.00  0.00    -0.386 OA
ATOM     16  H   LIG    1        3.181   0.586  -0.474  0.00  0.00    +0.210 HD
ENDBRANCH   4  15
BRANCH   6  17
ATOM     17  O   LIG    1       -1.303  -2.319  -0.674  0.00  0.00    -0.386 OA
ATOM     18  H   LIG    1       -1.283  -2.007  -1.610  0.00  0.00    +0.210 HD
ENDBRANCH   6  17
TORSDOF 6
