REMARK  Name = molecules/CDOZDBSBBXSXLB-HNNXBMFYSA-N.pdb
REMARK                            x       y       z     vdW  Elec       q    Type
REMARK                         _______ _______ _______ _____ _____    ______ ____
ROOT
ATOM      1  N   LIG    1       -1.253  -0.037  -0.387  0.00  0.00    -0.297 N 
ATOM      2  C   LIG    1       -2.029   1.133  -0.156  0.00  0.00    +0.048 A 
ATOM      3  C   LIG    1       -3.392   1.159   0.041  0.00  0.00    +0.034 A 
ATOM      4  C   LIG    1       -4.129   2.303   0.256  0.00  0.00    +0.017 A 
ATOM      5  C   LIG    1       -3.505   3.522   0.284  0.00  0.00    +0.001 A 
ATOM      6  C   LIG    1       -2.141   3.558   0.093  0.00  0.00    +0.002 A 
ATOM      7  S   LIG    1       -4.292  -0.367   0.006  0.00  0.00    -0.086 S 
ATOM      8  C   LIG    1       -3.108  -1.646  -0.292  0.00  0.00    +0.034 A 
ATOM      9  C   LIG    1       -3.566  -2.912  -0.345  0.00  0.00    +0.017 A 
ATOM     10  C   LIG    1       -2.746  -3.991  -0.556  0.00  0.00    +0.001 A 
ATOM     11  C   LIG    1       -1.408  -3.757  -0.718  0.00  0.00    +0.002 A 
ATOM     12  C   LIG    1       -0.915  -2.456  -0.667  0.00  0.00    +0.024 A 
ATOM     13  C   LIG    1       -1.429   2.385  -0.121  0.00  0.00    +0.024 A 
ATOM     14  C   LIG    1       -1.776  -1.365  -0.450  0.00  0.00    +0.048 A 
ENDROOT
BRANCH   1  15
ATOM     15  C   LIG    1        0.196   0.046  -0.558  0.00  0.00    +0.129 C 
BRANCH  15  16
ATOM     16  C   LIG    1        0.972  -0.116   0.717  0.00  0.00    +0.071 C 
ATOM     17  C   LIG    1        0.601   0.840   1.817  0.00  0.00    +0.026 C 
BRANCH  16  18
ATOM     18  N   LIG    1        2.357  -0.008   0.437  0.00  0.00    -0.299 NA
BRANCH  18  20
ATOM     19  C   LIG    1        4.125   1.647   0.635  0.00  0.00    +0.020 C 
ATOM     20  C   LIG    1        2.856   1.219  -0.041  0.00  0.00    +0.081 C 
ENDBRANCH  18  20
BRANCH  18  21
ATOM     21  C   LIG    1        3.081  -1.175   0.163  0.00  0.00    +0.081 C 
ATOM     22  C   LIG    1        3.107  -1.591  -1.289  0.00  0.00    +0.020 C 
ENDBRANCH  18  21
ENDBRANCH  16  18
ENDBRANCH  15  16
ENDBRANCH   1  15
TORSDOF 5
