REMARK  Name = molecules/CEMAWMOMDPGJMB-CYBMUJFWSA-N.pdb
REMARK                            x       y       z     vdW  Elec       q    Type
REMARK                         _______ _______ _______ _____ _____    ______ ____
ROOT
ATOM      1  O   LIG    1       -0.775   0.091   0.049  0.00  0.00    -0.486 OA
ENDROOT
BRANCH   1   2
ATOM      2  C   LIG    1       -1.746  -0.898   0.230  0.00  0.00    +0.162 A 
ATOM      3  C   LIG    1       -3.020  -0.455   0.612  0.00  0.00    +0.162 A 
ATOM      4  C   LIG    1       -3.980  -1.424   0.792  0.00  0.00    +0.049 A 
ATOM      5  C   LIG    1       -3.688  -2.780   0.601  0.00  0.00    +0.004 A 
ATOM      6  C   LIG    1       -2.427  -3.170   0.227  0.00  0.00    +0.004 A 
ATOM      7  C   LIG    1       -1.439  -2.229   0.037  0.00  0.00    +0.049 A 
BRANCH   3   8
ATOM      8  O   LIG    1       -3.195   0.890   0.766  0.00  0.00    -0.484 OA
BRANCH   8   9
ATOM      9  C   LIG    1       -4.391   1.500   1.095  0.00  0.00    +0.256 C 
BRANCH   9  10
ATOM     10  C   LIG    1       -5.470   1.345   0.072  0.00  0.00    +0.006 C 
ATOM     11  C   LIG    1       -5.990   2.461  -0.488  0.00  0.00    +0.007 C 
ENDBRANCH   9  10
ENDBRANCH   8   9
ENDBRANCH   3   8
ENDBRANCH   1   2
BRANCH   1  12
ATOM     12  C   LIG    1        0.544  -0.220  -0.334  0.00  0.00    +0.261 C 
BRANCH  12  13
ATOM     13  C   LIG    1        1.294   1.087  -0.429  0.00  0.00    +0.166 C 
BRANCH  13  14
ATOM     14  O   LIG    1        0.660   1.898  -1.392  0.00  0.00    -0.387 OA
ATOM     15  H   LIG    1        0.328   1.277  -2.086  0.00  0.00    +0.210 HD
ENDBRANCH  13  14
BRANCH  13  16
ATOM     16  C   LIG    1        2.710   0.851  -0.960  0.00  0.00    +0.115 C 
BRANCH  16  17
ATOM     17  N   LIG    1        3.393   0.030  -0.010  0.00  0.00    -0.311 NA
ATOM     18  H   LIG    1        3.246   0.279   0.968  0.00  0.00    +0.122 HD
BRANCH  17  19
ATOM     19  C   LIG    1        4.745  -0.278  -0.369  0.00  0.00    +0.048 C 
ATOM     20  C   LIG    1        5.376  -1.139   0.696  0.00  0.00    +0.023 C 
ATOM     21  C   LIG    1        5.559   1.016  -0.435  0.00  0.00    +0.023 C 
ENDBRANCH  17  19
ENDBRANCH  16  17
ENDBRANCH  13  16
ENDBRANCH  12  13
ENDBRANCH   1  12
TORSDOF 10
