REMARK  Name = molecules/CFZXDJWFRVEWSR-BUHFOSPRSA-N.pdb
REMARK                            x       y       z     vdW  Elec       q    Type
REMARK                         _______ _______ _______ _____ _____    ______ ____
ROOT
ATOM      1  O   LIG    1       -1.839   1.006  -1.585  0.00  0.00    -0.285 OA
ATOM      2  C   LIG    1       -1.831   0.345  -0.512  0.00  0.00    +0.211 C 
ATOM      3  C   LIG    1       -2.983  -0.132   0.249  0.00  0.00    +0.047 A 
ATOM      4  C   LIG    1       -2.572  -0.819   1.370  0.00  0.00    +0.043 A 
ATOM      5  C   LIG    1       -3.519  -1.354   2.227  0.00  0.00    +0.026 A 
ATOM      6  C   LIG    1       -4.855  -1.182   1.931  0.00  0.00    +0.031 A 
ATOM      7  C   LIG    1       -5.293  -0.498   0.815  0.00  0.00    +0.118 A 
ATOM      8  N   LIG    1       -1.144  -0.800   1.357  0.00  0.00    -0.309 N 
ATOM      9  H   LIG    1       -0.537  -1.243   2.085  0.00  0.00    +0.152 HD
ATOM     10  C   LIG    1       -4.333   0.025  -0.024  0.00  0.00    +0.043 A 
ATOM     11  C   LIG    1       -0.665  -0.095   0.218  0.00  0.00    +0.105 C 
ATOM     12  C   LIG    1        0.590   0.144  -0.154  0.00  0.00    +0.105 C 
ATOM     13  C   LIG    1        1.772  -0.290   0.566  0.00  0.00    +0.211 C 
ATOM     14  O   LIG    1        1.778  -0.947   1.633  0.00  0.00    -0.285 OA
ATOM     15  C   LIG    1        2.929   0.194  -0.205  0.00  0.00    +0.047 A 
ATOM     16  C   LIG    1        4.287   0.071   0.011  0.00  0.00    +0.043 A 
ATOM     17  C   LIG    1        5.226   0.616  -0.861  0.00  0.00    +0.118 A 
ATOM     18  C   LIG    1        4.780   1.298  -1.975  0.00  0.00    +0.031 A 
ATOM     19  C   LIG    1        3.424   1.419  -2.188  0.00  0.00    +0.026 A 
ATOM     20  C   LIG    1        2.482   0.877  -1.320  0.00  0.00    +0.043 A 
ATOM     21  N   LIG    1        1.059   0.849  -1.293  0.00  0.00    -0.309 N 
ATOM     22  H   LIG    1        0.446   1.281  -2.002  0.00  0.00    +0.152 HD
ENDROOT
BRANCH   7  23
ATOM     23  S   LIG    1       -6.982  -0.279   0.438  0.00  0.00    +0.110 S 
ATOM     24  O   LIG    1       -7.725  -1.448   1.066  0.00  0.00    -0.142 OA
ATOM     25  O   LIG    1       -7.144  -0.306  -1.061  0.00  0.00    -0.142 OA
BRANCH  23  26
ATOM     26  O   LIG    1       -7.604   1.118   1.112  0.00  0.00    -0.250 OA
ATOM     27  H   LIG    1       -7.166   1.260   1.982  0.00  0.00    +0.245 HD
ENDBRANCH  23  26
ENDBRANCH   7  23
BRANCH  17  28
ATOM     28  S   LIG    1        6.955   0.444  -0.560  0.00  0.00    +0.110 S 
ATOM     29  O   LIG    1        7.116   0.300   0.935  0.00  0.00    -0.142 OA
ATOM     30  O   LIG    1        7.706   1.666  -1.010  0.00  0.00    -0.142 OA
BRANCH  28  31
ATOM     31  O   LIG    1        7.553  -0.935  -1.270  0.00  0.00    -0.250 OA
ATOM     32  H   LIG    1        8.237  -0.663  -1.954  0.00  0.00    +0.245 HD
ENDBRANCH  28  31
ENDBRANCH  17  28
TORSDOF 4
