REMARK  Name = molecules/CGBCCZZJVKUAMX-DFXBJWIESA-N.pdb
REMARK                            x       y       z     vdW  Elec       q    Type
REMARK                         _______ _______ _______ _____ _____    ______ ____
ROOT
ATOM      1  C   LIG    1       -2.519  -0.168   0.295  0.00  0.00    +0.176 C 
ATOM      2  C   LIG    1       -2.738   1.264   0.714  0.00  0.00    +0.057 C 
ATOM      3  C   LIG    1       -1.397   1.957   0.775  0.00  0.00    +0.009 C 
ATOM      4  C   LIG    1       -0.489   0.929   0.197  0.00  0.00    +0.006 C 
ATOM      5  C   LIG    1        0.941   0.992   0.626  0.00  0.00    +0.021 C 
ATOM      6  C   LIG    1        1.566   2.305   0.588  0.00  0.00    -0.003 C 
ATOM      7  C   LIG    1        2.792   2.537   0.227  0.00  0.00    +0.041 C 
ATOM      8 CL   LIG    1        3.506   4.153   0.200  0.00  0.00    -0.084 Cl
ATOM      9  C   LIG    1        3.633   1.373  -0.184  0.00  0.00    -0.016 C 
ATOM     10  C   LIG    1        3.105   0.019   0.121  0.00  0.00    +0.016 C 
ATOM     11  C   LIG    1        3.176  -0.075   1.664  0.00  0.00    +0.021 C 
ATOM     12  C   LIG    1        3.928  -1.045  -0.385  0.00  0.00    -0.012 C 
ATOM     13  C   LIG    1        5.060  -0.894  -1.049  0.00  0.00    +0.047 C 
ATOM     14  C   LIG    1        5.567   0.440  -1.327  0.00  0.00    +0.179 C 
ATOM     15  O   LIG    1        6.639   0.627  -1.950  0.00  0.00    -0.288 OA
ATOM     16  C   LIG    1        4.746   1.538  -0.834  0.00  0.00    +0.056 C 
ATOM     17  C   LIG    1        1.646  -0.018  -0.271  0.00  0.00    +0.010 C 
ATOM     18  C   LIG    1        1.070  -1.374  -0.182  0.00  0.00    +0.006 C 
ATOM     19  C   LIG    1       -0.433  -1.412  -0.363  0.00  0.00    +0.011 C 
ATOM     20  C   LIG    1       -1.051  -0.404   0.567  0.00  0.00    +0.018 C 
ATOM     21  C   LIG    1       -0.859  -0.857   1.957  0.00  0.00    +0.016 C 
ENDROOT
BRANCH   1  22
ATOM     22  C   LIG    1       -3.374  -1.028   1.150  0.00  0.00    +0.174 C 
ATOM     23  O   LIG    1       -3.430  -0.942   2.379  0.00  0.00    -0.293 OA
ATOM     24  C   LIG    1       -4.274  -2.108   0.601  0.00  0.00    +0.090 C 
ENDBRANCH   1  22
BRANCH   1  25
ATOM     25  O   LIG    1       -2.799  -0.382  -1.084  0.00  0.00    -0.450 OA
BRANCH  25  26
ATOM     26  C   LIG    1       -4.079  -0.125  -1.532  0.00  0.00    +0.305 C 
ATOM     27  O   LIG    1       -5.005   0.285  -0.789  0.00  0.00    -0.251 OA
ATOM     28  C   LIG    1       -4.435  -0.328  -2.967  0.00  0.00    +0.136 C 
ENDBRANCH  25  26
ENDBRANCH   1  25
TORSDOF 3
