REMARK  Name = molecules/CGTADGCBEXYWNE-XZLPDJTBSA-N.pdb
REMARK                            x       y       z     vdW  Elec       q    Type
REMARK                         _______ _______ _______ _____ _____    ______ ____
ROOT
ATOM      1  C   LIG    1        2.545   0.260  -0.216  0.00  0.00    +0.186 C 
ATOM      2  C   LIG    1        1.546  -0.716  -0.744  0.00  0.00    +0.119 C 
ATOM      3  C   LIG    1        1.212  -1.860   0.107  0.00  0.00    +0.140 C 
ATOM      4  O   LIG    1        0.877  -1.677   1.254  0.00  0.00    -0.297 OA
ATOM      5  C   LIG    1        1.307  -3.229  -0.507  0.00  0.00    +0.056 C 
ATOM      6  C   LIG    1        1.438  -4.312   0.479  0.00  0.00    +0.012 C 
ATOM      7  C   LIG    1        0.659  -5.343   0.707  0.00  0.00    +0.009 C 
ATOM      8  C   LIG    1       -0.800  -5.323   0.994  0.00  0.00    +0.157 C 
ATOM      9  C   LIG    1       -1.582  -5.932  -0.108  0.00  0.00    +0.213 C 
ATOM     10  C   LIG    1       -2.717  -5.127  -0.580  0.00  0.00    +0.167 C 
ATOM     11  C   LIG    1       -3.716  -4.437   0.242  0.00  0.00    +0.055 C 
ATOM     12  C   LIG    1       -4.201  -5.435   1.305  0.00  0.00    +0.015 C 
ATOM     13  C   LIG    1       -4.922  -4.013  -0.611  0.00  0.00    +0.014 C 
ATOM     14  C   LIG    1       -5.776  -3.014   0.140  0.00  0.00    -0.010 C 
ATOM     15  C   LIG    1       -5.330  -1.620  -0.103  0.00  0.00    -0.001 C 
ATOM     16  C   LIG    1       -5.870  -0.753  -0.907  0.00  0.00    -0.000 C 
ATOM     17  C   LIG    1       -7.273  -0.379  -0.976  0.00  0.00    +0.000 C 
ATOM     18  C   LIG    1       -8.073  -0.225   0.044  0.00  0.00    +0.000 C 
ATOM     19  C   LIG    1       -7.691   0.342   1.322  0.00  0.00    +0.006 C 
ATOM     20  C   LIG    1       -6.823   1.328   1.475  0.00  0.00    +0.006 C 
ATOM     21  C   LIG    1       -6.036   1.424   2.731  0.00  0.00    +0.015 C 
ATOM     22  C   LIG    1       -6.590   2.369   0.433  0.00  0.00    +0.127 C 
ATOM     23  C   LIG    1       -5.134   2.423   0.023  0.00  0.00    +0.063 C 
ATOM     24  C   LIG    1       -4.553   3.837   0.179  0.00  0.00    +0.125 C 
ATOM     25  O   LIG    1       -3.290   3.851   0.628  0.00  0.00    -0.339 OA
ATOM     26  C   LIG    1       -2.237   3.788  -0.250  0.00  0.00    +0.240 C 
ATOM     27  C   LIG    1       -1.509   2.500  -0.196  0.00  0.00    +0.276 C 
ATOM     28  C   LIG    1       -0.333   2.188   0.592  0.00  0.00    +0.288 C 
ATOM     29  O   LIG    1       -0.358   1.157   1.376  0.00  0.00    -0.267 OA
ATOM     30  N   LIG    1        0.895   2.901   0.611  0.00  0.00    -0.282 N 
ATOM     31  C   LIG    1        1.520   3.212   1.905  0.00  0.00    +0.109 C 
ATOM     32  C   LIG    1        1.836   4.683   2.043  0.00  0.00    +0.019 C 
ATOM     33  C   LIG    1        2.380   5.254   0.756  0.00  0.00    +0.004 C 
ATOM     34  C   LIG    1        2.852   4.088  -0.092  0.00  0.00    +0.034 C 
ATOM     35  C   LIG    1        1.615   3.366  -0.553  0.00  0.00    +0.185 C 
ATOM     36  C   LIG    1        1.981   2.323  -1.521  0.00  0.00    +0.328 C 
ATOM     37  O   LIG    1        1.556   2.489  -2.720  0.00  0.00    -0.249 OA
ATOM     38  O   LIG    1       -1.972   1.555  -0.925  0.00  0.00    -0.281 OA
ATOM     39  C   LIG    1       -2.629   4.038  -1.686  0.00  0.00    +0.054 C 
ATOM     40  C   LIG    1       -3.622   5.210  -1.647  0.00  0.00    +0.011 C 
ATOM     41  C   LIG    1       -1.469   4.546  -2.528  0.00  0.00    +0.013 C 
ATOM     42  C   LIG    1       -4.879   4.623  -1.046  0.00  0.00    +0.032 C 
ATOM     43  C   LIG    1       -7.208  -3.270  -0.243  0.00  0.00    +0.008 C 
ATOM     44  O   LIG    1       -2.842  -5.019  -1.806  0.00  0.00    -0.294 OA
ATOM     45  C   LIG    1        1.260  -6.739   0.702  0.00  0.00    +0.015 C 
ATOM     46  C   LIG    1        0.235  -3.380  -1.522  0.00  0.00    +0.016 C 
ATOM     47  O   LIG    1        2.713   1.244  -1.228  0.00  0.00    -0.459 OA
ENDROOT
BRANCH   1  48
ATOM     48  C   LIG    1        3.959  -0.348  -0.094  0.00  0.00    +0.027 C 
ATOM     49  C   LIG    1        4.037  -1.391   0.973  0.00  0.00    +0.011 C 
BRANCH  48  50
ATOM     50  C   LIG    1        4.826   0.841   0.267  0.00  0.00    +0.010 C 
BRANCH  50  55
ATOM     51  C   LIG    1        8.390   0.274  -0.898  0.00  0.00    +0.143 C 
ATOM     52  C   LIG    1        8.941   0.442   0.489  0.00  0.00    +0.139 C 
ATOM     53  C   LIG    1        8.395   1.723   1.052  0.00  0.00    +0.030 C 
ATOM     54  C   LIG    1        6.927   1.896   0.787  0.00  0.00    +0.006 C 
ATOM     55  C   LIG    1        6.272   0.543   0.442  0.00  0.00    -0.008 C 
ATOM     56  C   LIG    1        6.914  -0.036  -0.796  0.00  0.00    +0.037 C 
BRANCH  52  57
ATOM     57  N   LIG    1       10.379   0.447   0.479  0.00  0.00    -0.227 N 
ATOM     58  C   LIG    1       11.155   1.494   0.787  0.00  0.00    +0.245 A 
ATOM     59  N   LIG    1       12.461   1.141   0.669  0.00  0.00    -0.117 NA
ATOM     60  N   LIG    1       12.448  -0.135   0.285  0.00  0.00    -0.023 NA
ATOM     61  N   LIG    1       11.192  -0.549   0.172  0.00  0.00    -0.044 NA
ENDBRANCH  52  57
BRANCH  51  62
ATOM     62  O   LIG    1        8.508   1.470  -1.602  0.00  0.00    -0.378 OA
ATOM     63  C   LIG    1        9.228   1.306  -2.782  0.00  0.00    +0.194 C 
ENDBRANCH  51  62
ENDBRANCH  50  55
ENDBRANCH  48  50
ENDBRANCH   1  48
BRANCH   8  64
ATOM     64  O   LIG    1       -1.226  -4.056   1.372  0.00  0.00    -0.388 OA
ATOM     65  H   LIG    1       -0.805  -3.901   2.276  0.00  0.00    +0.210 HD
ENDBRANCH   8  64
BRANCH   9  66
ATOM     66  O   LIG    1       -2.111  -7.165   0.335  0.00  0.00    -0.370 OA
ATOM     67  C   LIG    1       -1.747  -8.238  -0.428  0.00  0.00    +0.195 C 
ENDBRANCH   9  66
BRANCH  22  68
ATOM     68  O   LIG    1       -6.985   3.589   0.972  0.00  0.00    -0.379 OA
ATOM     69  C   LIG    1       -8.076   4.120   0.288  0.00  0.00    +0.194 C 
ENDBRANCH  22  68
BRANCH  26  70
ATOM     70  O   LIG    1       -1.409   4.870   0.110  0.00  0.00    -0.358 OA
ATOM     71  H   LIG    1       -0.911   4.698   0.925  0.00  0.00    +0.213 HD
ENDBRANCH  26  70
TORSDOF 9
