REMARK  Name = molecules/CGYWLLGTCBIGSR-UHFFFAOYSA-N.pdb
REMARK                            x       y       z     vdW  Elec       q    Type
REMARK                         _______ _______ _______ _____ _____    ______ ____
ROOT
ATOM      1  N   LIG    1        0.259  -0.565  -0.517  0.00  0.00    -0.264 N 
ATOM      2  C   LIG    1        0.621  -1.819   0.066  0.00  0.00    +0.079 A 
ATOM      3  C   LIG    1       -0.462  -2.533   0.522  0.00  0.00    +0.027 A 
ATOM      4  C   LIG    1       -0.274  -3.782   1.119  0.00  0.00    +0.002 A 
ATOM      5  C   LIG    1        0.990  -4.264   1.235  0.00  0.00    +0.004 A 
ATOM      6  C   LIG    1        2.104  -3.592   0.796  0.00  0.00    +0.048 A 
ATOM      7  C   LIG    1        1.907  -2.362   0.209  0.00  0.00    +0.150 A 
ATOM      8  O   LIG    1        3.142  -1.811  -0.183  0.00  0.00    -0.453 OA
ATOM      9  C   LIG    1        3.459  -0.447  -0.234  0.00  0.00    +0.141 A 
ATOM     10  C   LIG    1        4.780  -0.192   0.028  0.00  0.00    +0.049 A 
ATOM     11  C   LIG    1        5.218   1.109   0.010  0.00  0.00    +0.036 A 
ATOM     12  C   LIG    1        4.387   2.183  -0.261  0.00  0.00    +0.127 A 
ATOM     13  C   LIG    1        3.066   1.874  -0.519  0.00  0.00    +0.049 A 
ATOM     14  C   LIG    1        2.590   0.603  -0.511  0.00  0.00    +0.082 A 
ATOM     15  C   LIG    1        1.163   0.490  -0.800  0.00  0.00    +0.255 C 
ATOM     16  O   LIG    1        0.661   1.449  -1.375  0.00  0.00    -0.270 OA
ENDROOT
BRANCH  12  17
ATOM     17  N   LIG    1        4.900   3.508  -0.264  0.00  0.00    +0.056 N 
ATOM     18  O   LIG    1        6.212   3.718   0.002  0.00  0.00    -0.126 OA
ATOM     19  O   LIG    1        4.173   4.484  -0.500  0.00  0.00    -0.126 OA
ENDBRANCH  12  17
BRANCH   1  20
ATOM     20  C   LIG    1       -1.086  -0.361  -0.856  0.00  0.00    +0.115 C 
BRANCH  20  21
ATOM     21  C   LIG    1       -1.984   0.291   0.162  0.00  0.00    +0.035 C 
BRANCH  21  22
ATOM     22  C   LIG    1       -3.396   0.289  -0.458  0.00  0.00    +0.085 C 
BRANCH  22  23
ATOM     23  N   LIG    1       -4.341   0.896   0.449  0.00  0.00    -0.308 NA
ATOM     24  C   LIG    1       -4.066   2.308   0.527  0.00  0.00    +0.104 C 
ATOM     25  C   LIG    1       -5.677   0.707  -0.058  0.00  0.00    +0.104 C 
ENDBRANCH  22  23
ENDBRANCH  21  22
ENDBRANCH  20  21
ENDBRANCH   1  20
TORSDOF 5
