REMARK  Name = molecules/CHBRHODLKOZEPZ-UHFFFAOYSA-N.pdb
REMARK                            x       y       z     vdW  Elec       q    Type
REMARK                         _______ _______ _______ _____ _____    ______ ____
ROOT
ATOM      1  C   LIG    1        0.196  -4.011  -1.386  0.00  0.00    +0.139 C 
ATOM      2  N   LIG    1       -0.362  -2.984  -0.579  0.00  0.00    -0.267 N 
ATOM      3  C   LIG    1       -1.733  -3.087  -0.137  0.00  0.00    +0.241 C 
ATOM      4  C   LIG    1       -2.353  -2.152   0.870  0.00  0.00    +0.238 C 
ATOM      5  N   LIG    1       -2.191  -0.775   0.440  0.00  0.00    -0.273 NA
ATOM      6  C   LIG    1       -1.135  -0.083   0.105  0.00  0.00    +0.077 C 
ATOM      7  C   LIG    1        0.248  -0.610   0.101  0.00  0.00    +0.030 A 
ATOM      8  C   LIG    1        1.300   0.181   0.427  0.00  0.00    +0.023 A 
ATOM      9  C   LIG    1        2.552  -0.381   0.363  0.00  0.00    -0.008 A 
ATOM     10  S   LIG    1        2.244  -1.978  -0.138  0.00  0.00    -0.078 S 
ATOM     11  O   LIG    1       -2.404  -3.992  -0.622  0.00  0.00    -0.273 OA
ATOM     12  C   LIG    1        0.547  -1.900  -0.254  0.00  0.00    +0.084 A 
ENDROOT
BRANCH   6  13
ATOM     13  C   LIG    1       -1.402   1.288  -0.265  0.00  0.00    +0.019 A 
ATOM     14  C   LIG    1       -2.715   1.745  -0.086  0.00  0.00    +0.050 A 
ATOM     15 CL   LIG    1       -3.923   0.682   0.673  0.00  0.00    -0.083 Cl
ATOM     16  C   LIG    1       -3.172   2.979  -0.452  0.00  0.00    +0.020 A 
ATOM     17  C   LIG    1       -2.251   3.824  -1.041  0.00  0.00    +0.001 A 
ATOM     18  C   LIG    1       -0.950   3.410  -1.235  0.00  0.00    +0.001 A 
ATOM     19  C   LIG    1       -0.527   2.157  -0.855  0.00  0.00    +0.011 A 
ENDBRANCH   6  13
BRANCH   9  20
ATOM     20  C   LIG    1        3.872   0.254   0.662  0.00  0.00    +0.039 C 
ATOM     21  C   LIG    1        3.732   1.673   1.073  0.00  0.00    +0.009 C 
ENDBRANCH   9  20
TORSDOF 2
