REMARK  Name = molecules/CHIFCDOIPRCHCF-UHFFFAOYSA-N.pdb
REMARK                            x       y       z     vdW  Elec       q    Type
REMARK                         _______ _______ _______ _____ _____    ______ ____
ROOT
ATOM      1 CL   LIG    1       -0.689   4.353  -0.508  0.00  0.00    -0.084 Cl
ATOM      2  C   LIG    1       -1.311   2.721  -0.324  0.00  0.00    +0.042 A 
ATOM      3  C   LIG    1       -2.667   2.490  -0.113  0.00  0.00    +0.022 A 
ATOM      4  C   LIG    1       -3.149   1.198   0.032  0.00  0.00    +0.025 A 
ATOM      5  C   LIG    1       -2.231   0.190  -0.041  0.00  0.00    +0.043 A 
ATOM      6  N   LIG    1       -2.836  -1.119   0.004  0.00  0.00    -0.283 N 
ATOM      7  H   LIG    1       -3.675  -1.194   0.569  0.00  0.00    +0.155 HD
ATOM      8  C   LIG    1       -2.295  -2.244  -0.723  0.00  0.00    +0.239 C 
ATOM      9  O   LIG    1       -2.994  -3.260  -0.668  0.00  0.00    -0.273 OA
ATOM     10  C   LIG    1       -1.046  -2.356  -1.511  0.00  0.00    +0.238 C 
ATOM     11  N   LIG    1        0.078  -1.727  -0.864  0.00  0.00    -0.273 NA
ATOM     12  C   LIG    1        0.205  -0.556  -0.304  0.00  0.00    +0.076 C 
ATOM     13  C   LIG    1       -0.866   0.392  -0.246  0.00  0.00    +0.023 A 
ATOM     14  C   LIG    1       -0.398   1.696  -0.395  0.00  0.00    +0.032 A 
ENDROOT
BRANCH  12  15
ATOM     15  C   LIG    1        1.497  -0.214   0.259  0.00  0.00    +0.019 A 
ATOM     16  C   LIG    1        1.776   0.806   1.119  0.00  0.00    +0.011 A 
ATOM     17  C   LIG    1        3.032   0.926   1.674  0.00  0.00    +0.001 A 
ATOM     18  C   LIG    1        4.049   0.035   1.395  0.00  0.00    +0.001 A 
ATOM     19  C   LIG    1        3.767  -1.001   0.526  0.00  0.00    +0.020 A 
ATOM     20  C   LIG    1        2.528  -1.128  -0.030  0.00  0.00    +0.050 A 
ATOM     21 CL   LIG    1        2.237  -2.473  -1.133  0.00  0.00    -0.083 Cl
ENDBRANCH  12  15
TORSDOF 1
