REMARK  Name = molecules/CHNXZKVNWQUJIB-CEGNMAFCSA-N.pdb
REMARK                            x       y       z     vdW  Elec       q    Type
REMARK                         _______ _______ _______ _____ _____    ______ ____
ROOT
ATOM      1  C   LIG    1       -2.026   1.178  -1.450  0.00  0.00    +0.015 C 
ATOM      2  C   LIG    1       -2.205   0.343  -0.234  0.00  0.00    +0.011 C 
ATOM      3  C   LIG    1       -1.730   0.991   1.041  0.00  0.00    +0.011 C 
ATOM      4  C   LIG    1       -0.273   1.291   0.971  0.00  0.00    +0.005 C 
ATOM      5  C   LIG    1        0.574   0.083   0.591  0.00  0.00    +0.002 C 
ATOM      6  C   LIG    1        2.023   0.436   0.469  0.00  0.00    -0.007 C 
ATOM      7  C   LIG    1        2.710   0.087   1.773  0.00  0.00    +0.019 C 
ATOM      8  C   LIG    1        4.151   0.502   1.814  0.00  0.00    +0.080 C 
ATOM      9  C   LIG    1        4.846   0.286   0.519  0.00  0.00    +0.156 C 
ATOM     10  O   LIG    1        6.020   0.638   0.389  0.00  0.00    -0.293 OA
ATOM     11  C   LIG    1        4.054  -0.349  -0.535  0.00  0.00    +0.046 C 
ATOM     12  C   LIG    1        2.247   1.917   0.254  0.00  0.00    +0.016 C 
ATOM     13  C   LIG    1        2.735  -0.303  -0.595  0.00  0.00    -0.060 C 
ATOM     14  C   LIG    1        2.069  -0.995  -1.719  0.00  0.00    +0.032 C 
ATOM     15  C   LIG    1        0.816  -1.684  -1.172  0.00  0.00    +0.008 C 
ATOM     16  C   LIG    1       -0.020  -0.576  -0.636  0.00  0.00    -0.003 C 
ATOM     17  C   LIG    1       -3.602  -0.172  -0.180  0.00  0.00    +0.132 C 
ATOM     18  C   LIG    1       -3.599  -1.577  -0.751  0.00  0.00    +0.049 C 
ATOM     19  C   LIG    1       -2.163  -1.750  -1.276  0.00  0.00    +0.008 C 
ATOM     20  C   LIG    1       -1.413  -0.969  -0.287  0.00  0.00    +0.002 C 
ENDROOT
BRANCH  17  21
ATOM     21  C   LIG    1       -4.141  -0.184   1.187  0.00  0.00    -0.070 C 
ATOM     22  C   LIG    1       -4.572  -0.211   2.316  0.00  0.00    +0.007 C 
ENDBRANCH  17  21
BRANCH  17  23
ATOM     23  O   LIG    1       -4.455   0.588  -0.981  0.00  0.00    -0.376 OA
ATOM     24  H   LIG    1       -4.388   0.230  -1.901  0.00  0.00    +0.211 HD
ENDBRANCH  17  23
TORSDOF 2
