REMARK  Name = molecules/CHOBRHHOYQKCOU-UHFFFAOYSA-N.pdb
REMARK                            x       y       z     vdW  Elec       q    Type
REMARK                         _______ _______ _______ _____ _____    ______ ____
ROOT
ATOM      1  N   LIG    1       -0.388   0.331   0.542  0.00  0.00    -0.324 N 
ENDROOT
BRANCH   1   2
ATOM      2  C   LIG    1       -0.080   1.619   0.027  0.00  0.00    +0.030 A 
ATOM      3  C   LIG    1        0.016   2.645   0.995  0.00  0.00    +0.023 A 
ATOM      4  C   LIG    1        0.290   3.948   0.668  0.00  0.00    +0.002 A 
ATOM      5  C   LIG    1        0.483   4.284  -0.653  0.00  0.00    +0.000 A 
ATOM      6  C   LIG    1        0.388   3.270  -1.606  0.00  0.00    +0.002 A 
ATOM      7  C   LIG    1        0.109   1.951  -1.272  0.00  0.00    +0.023 A 
ENDBRANCH   1   2
BRANCH   1   8
ATOM      8  C   LIG    1       -1.718   0.095   0.991  0.00  0.00    +0.140 C 
BRANCH   8   9
ATOM      9  C   LIG    1       -2.515  -0.898   0.294  0.00  0.00    -0.030 A 
ATOM     10  C   LIG    1       -3.758  -1.211   0.860  0.00  0.00    +0.005 A 
ATOM     11  C   LIG    1       -4.595  -2.128   0.287  0.00  0.00    +0.000 A 
ATOM     12  C   LIG    1       -4.240  -2.770  -0.861  0.00  0.00    +0.000 A 
ATOM     13  C   LIG    1       -3.015  -2.489  -1.456  0.00  0.00    +0.000 A 
ATOM     14  C   LIG    1       -2.170  -1.541  -0.847  0.00  0.00    +0.005 A 
ENDBRANCH   8   9
ENDBRANCH   1   8
BRANCH   1  15
ATOM     15  C   LIG    1        0.640  -0.651   0.636  0.00  0.00    +0.121 C 
BRANCH  15  16
ATOM     16  C   LIG    1        1.924  -0.276  -0.057  0.00  0.00    +0.102 C 
BRANCH  16  17
ATOM     17  N   LIG    1        2.952  -1.224   0.078  0.00  0.00    -0.307 NA
ATOM     18  C   LIG    1        3.580  -1.406   1.322  0.00  0.00    +0.104 C 
ATOM     19  C   LIG    1        3.911  -1.112  -0.980  0.00  0.00    +0.104 C 
ENDBRANCH  16  17
ENDBRANCH  15  16
ENDBRANCH   1  15
TORSDOF 6
