REMARK  Name = molecules/CINROOONPHQHPO-SFHVURJKSA-N.pdb
REMARK                            x       y       z     vdW  Elec       q    Type
REMARK                         _______ _______ _______ _____ _____    ______ ____
ROOT
ATOM      1  C   LIG    1        0.048  -0.270  -0.839  0.00  0.00    +0.050 C 
ENDROOT
BRANCH   1   2
ATOM      2  C   LIG    1        1.440  -0.624  -0.596  0.00  0.00    -0.040 A 
ATOM      3  C   LIG    1        2.377   0.231  -0.086  0.00  0.00    +0.004 A 
ATOM      4  C   LIG    1        3.692  -0.180   0.100  0.00  0.00    +0.003 A 
ATOM      5  C   LIG    1        4.053  -1.466  -0.235  0.00  0.00    -0.050 A 
ATOM      6  C   LIG    1        5.469  -1.873  -0.032  0.00  0.00    +0.044 C 
ATOM      7  C   LIG    1        3.115  -2.342  -0.752  0.00  0.00    +0.003 A 
ATOM      8  C   LIG    1        1.821  -1.930  -0.932  0.00  0.00    +0.004 A 
ENDBRANCH   1   2
BRANCH   1   9
ATOM      9  C   LIG    1       -0.196   1.200  -0.697  0.00  0.00    -0.040 A 
ATOM     10  C   LIG    1       -0.314   1.787   0.535  0.00  0.00    +0.004 A 
ATOM     11  C   LIG    1       -0.528   3.138   0.621  0.00  0.00    +0.000 A 
ATOM     12  C   LIG    1       -0.637   3.981  -0.468  0.00  0.00    +0.000 A 
ATOM     13  C   LIG    1       -0.513   3.358  -1.712  0.00  0.00    +0.000 A 
ATOM     14  C   LIG    1       -0.297   1.999  -1.810  0.00  0.00    +0.004 A 
ENDBRANCH   1   9
BRANCH   1  15
ATOM     15  C   LIG    1       -0.878  -1.044   0.092  0.00  0.00    +0.028 C 
BRANCH  15  16
ATOM     16  C   LIG    1       -2.296  -0.646  -0.236  0.00  0.00    +0.084 C 
BRANCH  16  17
ATOM     17  N   LIG    1       -3.294  -1.304   0.598  0.00  0.00    -0.308 NA
ATOM     18  C   LIG    1       -3.245  -0.600   1.909  0.00  0.00    +0.104 C 
ATOM     19  C   LIG    1       -4.628  -0.980   0.031  0.00  0.00    +0.104 C 
ENDBRANCH  16  17
ENDBRANCH  15  16
ENDBRANCH   1  15
TORSDOF 5
