REMARK  Name = molecules/CIUUIPMOFZIWIZ-UHFFFAOYSA-N.pdb
REMARK                            x       y       z     vdW  Elec       q    Type
REMARK                         _______ _______ _______ _____ _____    ______ ____
ROOT
ATOM      1 BR   LIG    1        0.165  -2.981   0.669  0.00  0.00    -0.042 Br
ATOM      2  C   LIG    1       -0.959  -1.480   0.326  0.00  0.00    +0.108 A 
ATOM      3  C   LIG    1       -2.343  -1.654   0.238  0.00  0.00    +0.267 A 
ATOM      4  O   LIG    1       -2.773  -2.831   0.389  0.00  0.00    -0.267 OA
ATOM      5  N   LIG    1       -3.148  -0.605   0.003  0.00  0.00    -0.294 N 
ATOM      6  H   LIG    1       -4.163  -0.784  -0.053  0.00  0.00    +0.172 HD
ATOM      7  C   LIG    1       -2.624   0.623  -0.148  0.00  0.00    +0.194 A 
ATOM      8  N   LIG    1       -1.307   0.783  -0.063  0.00  0.00    -0.215 NA
ATOM      9  C   LIG    1       -0.435  -0.223   0.170  0.00  0.00    +0.094 A 
ENDROOT
BRANCH   9  10
ATOM     10  C   LIG    1        1.001   0.004   0.260  0.00  0.00    +0.002 A 
ATOM     11  C   LIG    1        1.516   1.051   1.021  0.00  0.00    +0.010 A 
ATOM     12  C   LIG    1        2.858   1.306   1.130  0.00  0.00    +0.001 A 
ATOM     13  C   LIG    1        3.766   0.507   0.467  0.00  0.00    +0.000 A 
ATOM     14  C   LIG    1        3.272  -0.534  -0.291  0.00  0.00    +0.001 A 
ATOM     15  C   LIG    1        1.917  -0.783  -0.395  0.00  0.00    +0.010 A 
ENDBRANCH   9  10
BRANCH   7  16
ATOM     16  N   LIG    1       -3.534   1.687  -0.393  0.00  0.00    -0.329 N 
ATOM     17  H   LIG    1       -3.455   2.536   0.210  0.00  0.00    +0.145 HD
ATOM     18  H   LIG    1       -4.263   1.658  -1.136  0.00  0.00    +0.145 HD
ENDBRANCH   7  16
TORSDOF 2
