REMARK  Name = molecules/CIWBQSYVNNPZIQ-XYWKZLDCSA-N.pdb
REMARK                            x       y       z     vdW  Elec       q    Type
REMARK                         _______ _______ _______ _____ _____    ______ ____
ROOT
ATOM      1  C   LIG    1        1.260   0.471   0.968  0.00  0.00    +0.182 C 
ATOM      2  C   LIG    1        1.507  -0.907   1.712  0.00  0.00    +0.038 C 
ATOM      3  C   LIG    1        1.728  -0.789   3.152  0.00  0.00    +0.012 C 
ATOM      4  C   LIG    1        0.310  -1.742   1.411  0.00  0.00    +0.012 C 
ATOM      5  C   LIG    1       -0.512  -0.887   0.511  0.00  0.00    +0.006 C 
ATOM      6  C   LIG    1       -1.972  -1.091   0.577  0.00  0.00    +0.034 C 
ATOM      7  C   LIG    1       -2.353  -2.552   0.371  0.00  0.00    +0.011 C 
ATOM      8  C   LIG    1       -3.820  -2.720   0.240  0.00  0.00    +0.032 C 
ATOM      9  C   LIG    1       -4.458  -1.684  -0.626  0.00  0.00    -0.053 C 
ATOM     10  C   LIG    1       -4.024  -0.266  -0.487  0.00  0.00    +0.044 C 
ATOM     11  C   LIG    1       -4.470   0.100   0.926  0.00  0.00    +0.023 C 
ATOM     12  C   LIG    1       -4.711   0.663  -1.375  0.00  0.00    -0.009 C 
ATOM     13  C   LIG    1       -5.639   0.264  -2.232  0.00  0.00    +0.047 C 
ATOM     14  C   LIG    1       -6.033  -1.141  -2.338  0.00  0.00    +0.179 C 
ATOM     15  O   LIG    1       -6.928  -1.509  -3.169  0.00  0.00    -0.288 OA
ATOM     16  C   LIG    1       -5.365  -2.075  -1.462  0.00  0.00    +0.051 C 
ATOM     17  C   LIG    1       -2.533  -0.338  -0.644  0.00  0.00    +0.153 C 
ATOM     18  C   LIG    1       -1.740   0.839  -0.923  0.00  0.00    +0.154 C 
ATOM     19  C   LIG    1       -1.006   1.452   0.270  0.00  0.00    +0.045 C 
ATOM     20  F   LIG    1       -2.337  -1.247  -1.710  0.00  0.00    -0.238 F 
ATOM     21  C   LIG    1       -0.201   0.521   1.072  0.00  0.00    +0.021 C 
ATOM     22  C   LIG    1       -0.763   0.551   2.487  0.00  0.00    +0.016 C 
ENDROOT
BRANCH   1  23
ATOM     23  C   LIG    1        2.105   1.426   1.643  0.00  0.00    +0.214 C 
ATOM     24  O   LIG    1        1.674   2.070   2.626  0.00  0.00    -0.289 OA
BRANCH  23  25
ATOM     25  C   LIG    1        3.489   1.749   1.300  0.00  0.00    +0.310 C 
BRANCH  25  26
ATOM     26  O   LIG    1        4.039   0.932   0.294  0.00  0.00    -0.457 OA
BRANCH  26  27
ATOM     27  C   LIG    1        5.352   1.094  -0.132  0.00  0.00    +0.307 C 
ATOM     28  O   LIG    1        5.997   2.028   0.457  0.00  0.00    -0.251 OA
BRANCH  27  29
ATOM     29  C   LIG    1        5.963   0.259  -1.178  0.00  0.00    +0.117 C 
ATOM     30  C   LIG    1        7.412   0.620  -1.419  0.00  0.00    +0.015 C 
ENDBRANCH  27  29
ENDBRANCH  26  27
ENDBRANCH  25  26
ENDBRANCH  23  25
ENDBRANCH   1  23
BRANCH  18  31
ATOM     31  O   LIG    1       -2.317   1.908  -1.584  0.00  0.00    -0.389 OA
ATOM     32  H   LIG    1       -1.608   2.489  -1.959  0.00  0.00    +0.210 HD
ENDBRANCH  18  31
BRANCH   1  33
ATOM     33  O   LIG    1        1.671   0.102  -0.336  0.00  0.00    -0.449 OA
BRANCH  33  34
ATOM     34  C   LIG    1        1.894   0.890  -1.411  0.00  0.00    +0.308 C 
ATOM     35  O   LIG    1        1.761   2.110  -1.320  0.00  0.00    -0.251 OA
BRANCH  34  36
ATOM     36  C   LIG    1        2.307   0.329  -2.747  0.00  0.00    +0.117 C 
ATOM     37  C   LIG    1        2.523   1.454  -3.730  0.00  0.00    +0.015 C 
ENDBRANCH  34  36
ENDBRANCH  33  34
ENDBRANCH   1  33
TORSDOF 9
