REMARK  Name = molecules/CJCSPKMFHVPWAR-JTQLQIEISA-N.pdb
REMARK                            x       y       z     vdW  Elec       q    Type
REMARK                         _______ _______ _______ _____ _____    ______ ____
ROOT
ATOM      1  C   LIG    1       -1.002   0.441   0.808  0.00  0.00    +0.068 C 
ENDROOT
BRANCH   1   2
ATOM      2  C   LIG    1        0.444   0.513   0.469  0.00  0.00    -0.041 A 
ATOM      3  C   LIG    1        1.290  -0.550   0.716  0.00  0.00    +0.053 A 
ATOM      4  C   LIG    1        2.634  -0.485   0.403  0.00  0.00    +0.158 A 
ATOM      5  C   LIG    1        3.195   0.636  -0.169  0.00  0.00    +0.158 A 
ATOM      6  C   LIG    1        2.357   1.702  -0.419  0.00  0.00    +0.049 A 
ATOM      7  C   LIG    1        1.014   1.634  -0.104  0.00  0.00    +0.007 A 
BRANCH   4   8
ATOM      8  O   LIG    1        3.504  -1.556   0.647  0.00  0.00    -0.503 OA
ATOM      9  H   LIG    1        3.211  -2.421   1.059  0.00  0.00    +0.292 HD
ENDBRANCH   4   8
BRANCH   5  10
ATOM     10  O   LIG    1        4.552   0.701  -0.486  0.00  0.00    -0.503 OA
ATOM     11  H   LIG    1        5.157  -0.086  -0.299  0.00  0.00    +0.292 HD
ENDBRANCH   5  10
ENDBRANCH   1   2
BRANCH   1  12
ATOM     12  C   LIG    1       -1.817  -0.102  -0.348  0.00  0.00    +0.116 C 
ATOM     13  C   LIG    1       -1.446  -1.507  -0.716  0.00  0.00    +0.040 C 
BRANCH  12  14
ATOM     14  N   LIG    1       -1.683   0.814  -1.443  0.00  0.00    -0.316 NA
ATOM     15  H   LIG    1       -2.057   1.747  -1.127  0.00  0.00    +0.119 HD
ATOM     16  H   LIG    1       -2.203   0.510  -2.302  0.00  0.00    +0.119 HD
ENDBRANCH  12  14
BRANCH  12  17
ATOM     17  C   LIG    1       -3.244  -0.121   0.128  0.00  0.00    +0.325 C 
ATOM     18  O   LIG    1       -4.088   0.608  -0.440  0.00  0.00    -0.249 OA
BRANCH  17  19
ATOM     19  O   LIG    1       -3.662  -0.910   1.168  0.00  0.00    -0.479 OA
ATOM     20  H   LIG    1       -3.352  -0.808   2.132  0.00  0.00    +0.295 HD
ENDBRANCH  17  19
ENDBRANCH  12  17
ENDBRANCH   1  12
TORSDOF 7
