REMARK  Name = molecules/CJDRUOGAGYHKKD-RQBLFBSQSA-N.pdb
REMARK                            x       y       z     vdW  Elec       q    Type
REMARK                         _______ _______ _______ _____ _____    ______ ____
ROOT
ATOM      1  C   LIG    1        0.145   0.971   1.255  0.00  0.00    +0.132 C 
ATOM      2  C   LIG    1       -1.171   0.254   0.938  0.00  0.00    +0.039 C 
ATOM      3  C   LIG    1       -0.809  -1.139   0.536  0.00  0.00    +0.066 C 
ATOM      4  C   LIG    1        0.646  -1.295   0.924  0.00  0.00    +0.035 C 
ATOM      5  N   LIG    1       -0.884  -1.217  -0.913  0.00  0.00    -0.269 NA
ATOM      6  C   LIG    1       -2.318  -1.219  -1.223  0.00  0.00    +0.189 C 
ATOM      7  C   LIG    1       -3.031  -0.072  -0.590  0.00  0.00    +0.036 C 
ATOM      8  C   LIG    1       -0.186  -0.124  -1.512  0.00  0.00    +0.081 C 
ATOM      9  C   LIG    1        1.075   0.277  -0.887  0.00  0.00    +0.103 C 
ATOM     10  N   LIG    1        2.284  -0.356  -1.286  0.00  0.00    -0.327 N 
ATOM     11  C   LIG    1        3.230   0.014  -0.267  0.00  0.00    +0.034 A 
ATOM     12  C   LIG    1        2.543   0.302   0.898  0.00  0.00    -0.016 A 
ATOM     13  C   LIG    1        3.240   0.686   2.015  0.00  0.00    +0.006 A 
ATOM     14  C   LIG    1        4.615   0.788   1.990  0.00  0.00    +0.000 A 
ATOM     15  C   LIG    1        5.335   0.509   0.847  0.00  0.00    +0.002 A 
ATOM     16  C   LIG    1        4.625   0.124  -0.270  0.00  0.00    +0.023 A 
ATOM     17  C   LIG    1        2.611  -1.189  -2.413  0.00  0.00    +0.129 C 
ATOM     18  C   LIG    1       -1.113   1.100  -1.433  0.00  0.00    +0.025 C 
ATOM     19  C   LIG    1       -1.946   0.921  -0.155  0.00  0.00    +0.004 C 
ATOM     20  C   LIG    1        1.140   0.101   0.615  0.00  0.00    +0.045 C 
ENDROOT
BRANCH   1  21
ATOM     21  O   LIG    1        0.294   0.900   2.640  0.00  0.00    -0.391 OA
ATOM     22  H   LIG    1        0.473   1.778   3.046  0.00  0.00    +0.210 HD
ENDBRANCH   1  21
BRANCH   7  23
ATOM     23  C   LIG    1       -3.955  -0.419   0.517  0.00  0.00    +0.004 C 
ATOM     24  C   LIG    1       -4.657   0.792   1.040  0.00  0.00    +0.004 C 
ENDBRANCH   7  23
BRANCH   6  25
ATOM     25  O   LIG    1       -2.524  -1.330  -2.578  0.00  0.00    -0.377 OA
ATOM     26  H   LIG    1       -3.424  -1.702  -2.725  0.00  0.00    +0.211 HD
ENDBRANCH   6  25
TORSDOF 3
