REMARK  Name = molecules/CKFBRGLGTWAVLG-GOMYTPFNSA-N.pdb
REMARK                            x       y       z     vdW  Elec       q    Type
REMARK                         _______ _______ _______ _____ _____    ______ ____
ROOT
ATOM      1  C   LIG    1       -2.506  -0.128   0.542  0.00  0.00    +0.197 C 
ATOM      2  C   LIG    1       -1.031  -0.166   0.948  0.00  0.00    +0.022 C 
ATOM      3  C   LIG    1       -0.944   0.395   2.319  0.00  0.00    +0.016 C 
ATOM      4  C   LIG    1       -0.342  -1.439   0.761  0.00  0.00    +0.012 C 
ATOM      5  C   LIG    1        0.707  -1.515  -0.284  0.00  0.00    +0.005 C 
ATOM      6  C   LIG    1        1.516  -0.304  -0.520  0.00  0.00    -0.000 C 
ATOM      7  C   LIG    1        0.919   0.970   0.106  0.00  0.00    -0.003 C 
ATOM      8  C   LIG    1        1.567   2.115  -0.639  0.00  0.00    +0.008 C 
ATOM      9  C   LIG    1        2.996   2.185  -0.144  0.00  0.00    +0.031 C 
ATOM     10  C   LIG    1        3.653   0.877  -0.077  0.00  0.00    -0.063 C 
ATOM     11  C   LIG    1        4.977   0.852   0.021  0.00  0.00    +0.045 C 
ATOM     12  C   LIG    1        5.695  -0.407   0.093  0.00  0.00    +0.156 C 
ATOM     13  O   LIG    1        6.783  -0.506   0.684  0.00  0.00    -0.293 OA
ATOM     14  C   LIG    1        5.104  -1.596  -0.560  0.00  0.00    +0.079 C 
ATOM     15  C   LIG    1        3.711  -1.312  -1.087  0.00  0.00    +0.016 C 
ATOM     16  C   LIG    1        2.962  -0.429  -0.108  0.00  0.00    +0.019 C 
ATOM     17  C   LIG    1       -0.527   0.852  -0.089  0.00  0.00    +0.007 C 
ATOM     18  C   LIG    1       -1.407   2.010   0.145  0.00  0.00    +0.039 C 
ATOM     19  C   LIG    1       -2.683   1.361   0.600  0.00  0.00    -0.026 C 
ATOM     20  C   LIG    1       -3.740   2.028   0.986  0.00  0.00    +0.012 C 
ENDROOT
BRANCH   1  21
ATOM     21  C   LIG    1       -3.389  -0.848   1.460  0.00  0.00    +0.178 C 
ATOM     22  O   LIG    1       -3.337  -0.535   2.653  0.00  0.00    -0.293 OA
ATOM     23  C   LIG    1       -4.342  -1.923   1.074  0.00  0.00    +0.091 C 
ENDBRANCH   1  21
BRANCH   1  24
ATOM     24  O   LIG    1       -2.644  -0.506  -0.812  0.00  0.00    -0.445 OA
BRANCH  24  25
ATOM     25  C   LIG    1       -3.787  -0.396  -1.539  0.00  0.00    +0.305 C 
ATOM     26  O   LIG    1       -4.820   0.069  -1.019  0.00  0.00    -0.251 OA
ATOM     27  C   LIG    1       -3.891  -0.813  -2.976  0.00  0.00    +0.136 C 
ENDBRANCH  24  25
ENDBRANCH   1  24
TORSDOF 3
