REMARK  Name = molecules/CKSJXOVLXUMMFF-UHFFFAOYSA-N.pdb
REMARK                            x       y       z     vdW  Elec       q    Type
REMARK                         _______ _______ _______ _____ _____    ______ ____
ROOT
ATOM      1  C   LIG    1        2.301  -0.196  -0.363  0.00  0.00    +0.133 A 
ATOM      2  C   LIG    1        3.655   0.083  -0.084  0.00  0.00    +0.078 A 
ATOM      3  C   LIG    1        4.599  -0.871  -0.363  0.00  0.00    +0.017 A 
ATOM      4  C   LIG    1        4.268  -2.094  -0.908  0.00  0.00    +0.001 A 
ATOM      5  C   LIG    1        2.942  -2.354  -1.177  0.00  0.00    +0.004 A 
ATOM      6  C   LIG    1        1.953  -1.420  -0.911  0.00  0.00    +0.046 A 
ENDROOT
BRANCH   2   7
ATOM      7  C   LIG    1        3.993   1.381   0.493  0.00  0.00    +0.245 C 
ATOM      8  N   LIG    1        3.026   2.357   0.779  0.00  0.00    -0.325 N 
ATOM      9  H   LIG    1        2.385   2.222   1.571  0.00  0.00    +0.145 HD
ATOM     10  H   LIG    1        2.959   3.203   0.198  0.00  0.00    +0.145 HD
ATOM     11  O   LIG    1        5.234   1.580   0.726  0.00  0.00    -0.270 OA
ENDBRANCH   2   7
BRANCH   1  12
ATOM     12  O   LIG    1        1.422   0.780  -0.069  0.00  0.00    -0.491 OA
BRANCH  12  13
ATOM     13  C   LIG    1        0.077   0.965  -0.143  0.00  0.00    +0.229 C 
BRANCH  13  14
ATOM     14  C   LIG    1       -0.800   0.054   0.680  0.00  0.00    +0.041 C 
BRANCH  14  15
ATOM     15  C   LIG    1       -2.239   0.449   0.439  0.00  0.00    +0.003 C 
BRANCH  15  16
ATOM     16  C   LIG    1       -3.205  -0.401   1.216  0.00  0.00    -0.000 C 
BRANCH  16  17
ATOM     17  C   LIG    1       -4.605   0.074   0.905  0.00  0.00    -0.003 C 
ATOM     18  C   LIG    1       -4.870  -0.063  -0.578  0.00  0.00    +0.004 C 
ENDBRANCH  16  17
ENDBRANCH  15  16
ENDBRANCH  14  15
ENDBRANCH  13  14
ENDBRANCH  12  13
ENDBRANCH   1  12
TORSDOF 7
