REMARK  Name = molecules/CLOMYZFHNHFSIQ-UHFFFAOYSA-N.pdb
REMARK                            x       y       z     vdW  Elec       q    Type
REMARK                         _______ _______ _______ _____ _____    ______ ____
ROOT
ATOM      1  N   LIG    1       -0.078  -0.388  -0.104  0.00  0.00    -0.299 N 
ATOM      2  H   LIG    1       -0.073  -1.427  -0.053  0.00  0.00    +0.154 HD
ENDROOT
BRANCH   1   3
ATOM      3  C   LIG    1        1.176   0.251  -0.266  0.00  0.00    +0.037 A 
ATOM      4  C   LIG    1        1.405   1.589  -0.348  0.00  0.00    +0.023 A 
ATOM      5  C   LIG    1        2.688   2.134  -0.506  0.00  0.00    +0.003 A 
ATOM      6  C   LIG    1        3.773   1.296  -0.583  0.00  0.00    +0.020 A 
ATOM      7  C   LIG    1        3.586  -0.065  -0.505  0.00  0.00    +0.046 A 
ATOM      8 CL   LIG    1        4.953  -1.177  -0.599  0.00  0.00    -0.083 Cl
ATOM      9  C   LIG    1        2.320  -0.574  -0.350  0.00  0.00    -0.011 A 
ATOM     10  C   LIG    1        2.158  -2.050  -0.270  0.00  0.00    +0.047 C 
ENDBRANCH   1   3
BRANCH   1  11
ATOM     11  C   LIG    1       -1.337   0.246  -0.005  0.00  0.00    +0.137 A 
ATOM     12  C   LIG    1       -2.513  -0.453   0.152  0.00  0.00    +0.099 A 
ATOM     13  C   LIG    1       -3.717   0.278   0.240  0.00  0.00    +0.020 A 
ATOM     14  C   LIG    1       -3.780   1.643   0.178  0.00  0.00    +0.021 A 
ATOM     15  C   LIG    1       -2.564   2.290   0.019  0.00  0.00    +0.113 A 
ATOM     16  N   LIG    1       -1.426   1.600  -0.064  0.00  0.00    -0.239 NA
BRANCH  12  17
ATOM     17  C   LIG    1       -2.577  -1.890   0.231  0.00  0.00    +0.340 C 
ATOM     18  O   LIG    1       -3.730  -2.422   0.378  0.00  0.00    -0.245 OA
BRANCH  17  19
ATOM     19  O   LIG    1       -1.520  -2.750   0.165  0.00  0.00    -0.477 OA
ATOM     20  H   LIG    1       -1.412  -3.341  -0.661  0.00  0.00    +0.295 HD
ENDBRANCH  17  19
ENDBRANCH  12  17
ENDBRANCH   1  11
TORSDOF 4
