REMARK  Name = molecules/CMCCHHWTTBEZNM-SCSAIBSYSA-N.pdb
REMARK                            x       y       z     vdW  Elec       q    Type
REMARK                         _______ _______ _______ _____ _____    ______ ____
ROOT
ATOM      1  C   LIG    1        0.648   0.170  -0.319  0.00  0.00    +0.234 C 
ATOM      2  N   LIG    1        1.990  -0.150  -0.011  0.00  0.00    -0.239 N 
ATOM      3  H   LIG    1        2.160  -0.980   0.591  0.00  0.00    +0.159 HD
ATOM      4  C   LIG    1        3.075   0.629  -0.499  0.00  0.00    +0.303 C 
ATOM      5  N   LIG    1        4.400   0.260  -0.157  0.00  0.00    -0.313 N 
ATOM      6  H   LIG    1        4.695   0.024   0.833  0.00  0.00    +0.146 HD
ATOM      7  H   LIG    1        5.159   0.202  -0.870  0.00  0.00    +0.146 HD
ATOM      8  O   LIG    1        2.876   1.634  -1.226  0.00  0.00    -0.253 OA
ATOM      9  O   LIG    1        0.394   1.164  -1.042  0.00  0.00    -0.274 OA
ENDROOT
BRANCH   1  10
ATOM     10  C   LIG    1       -0.450  -0.663   0.208  0.00  0.00    +0.145 C 
ATOM     11 BR   LIG    1       -0.192  -2.460  -0.451  0.00  0.00    -0.078 Br
BRANCH  10  12
ATOM     12  C   LIG    1       -1.810  -0.155  -0.235  0.00  0.00    +0.005 C 
ATOM     13  C   LIG    1       -2.871  -1.061   0.345  0.00  0.00    +0.009 C 
ATOM     14  C   LIG    1       -2.057   1.245   0.249  0.00  0.00    +0.009 C 
ENDBRANCH  10  12
ENDBRANCH   1  10
TORSDOF 2
