REMARK  Name = molecules/CMSMOCZEIVJLDB-AWEZNQCLSA-N.pdb
REMARK                            x       y       z     vdW  Elec       q    Type
REMARK                         _______ _______ _______ _____ _____    ______ ____
ROOT
ATOM      1  P   LIG    1        0.301  -0.022  -0.780  0.00  0.00    +0.346 P 
ATOM      2  N   LIG    1        1.134  -1.337   0.012  0.00  0.00    -0.232 NA
ATOM      3  H   LIG    1        1.192  -1.165   1.035  0.00  0.00    +0.133 HD
ATOM      4  C   LIG    1        2.524  -1.302  -0.485  0.00  0.00    +0.093 C 
ATOM      5  C   LIG    1        3.100   0.009  -0.030  0.00  0.00    +0.044 C 
ATOM      6  C   LIG    1        2.550   1.074  -0.970  0.00  0.00    +0.171 C 
ATOM      7  O   LIG    1        1.242   1.390  -0.630  0.00  0.00    -0.305 OA
ATOM      8  O   LIG    1        0.205  -0.363  -2.253  0.00  0.00    -0.254 OA
ENDROOT
BRANCH   1   9
ATOM      9  N   LIG    1       -1.248   0.316  -0.090  0.00  0.00    -0.217 NA
BRANCH   9  10
ATOM     10  C   LIG    1       -1.070   1.307   0.955  0.00  0.00    +0.111 C 
BRANCH  10  11
ATOM     11  C   LIG    1       -2.389   2.004   1.260  0.00  0.00    +0.124 C 
ATOM     12 CL   LIG    1       -2.919   2.778  -0.262  0.00  0.00    -0.124 Cl
ENDBRANCH  10  11
ENDBRANCH   9  10
BRANCH   9  13
ATOM     13  C   LIG    1       -1.964  -0.799   0.412  0.00  0.00    +0.111 C 
BRANCH  13  14
ATOM     14  C   LIG    1       -2.350  -1.823  -0.644  0.00  0.00    +0.124 C 
ATOM     15 CL   LIG    1       -3.203  -3.148   0.202  0.00  0.00    -0.124 Cl
ENDBRANCH  13  14
ENDBRANCH   9  13
ENDBRANCH   1   9
TORSDOF 5
