REMARK  Name = molecules/CMWTZPSULFXXJA-VIFPVBQESA-N.pdb
REMARK                            x       y       z     vdW  Elec       q    Type
REMARK                         _______ _______ _______ _____ _____    ______ ____
ROOT
ATOM      1  C   LIG    1       -1.763   0.132  -0.118  0.00  0.00    -0.033 A 
ATOM      2  C   LIG    1       -0.782  -0.792   0.169  0.00  0.00    +0.013 A 
ATOM      3  C   LIG    1        0.566  -0.540   0.042  0.00  0.00    -0.017 A 
ATOM      4  C   LIG    1        1.512  -1.496   0.341  0.00  0.00    +0.012 A 
ATOM      5  C   LIG    1        2.866  -1.210   0.202  0.00  0.00    +0.046 A 
ATOM      6  C   LIG    1        3.286   0.029  -0.235  0.00  0.00    +0.121 A 
ATOM      7  C   LIG    1        2.312   0.959  -0.525  0.00  0.00    +0.054 A 
ATOM      8  C   LIG    1        0.957   0.723  -0.403  0.00  0.00    -0.014 A 
ATOM      9  C   LIG    1        0.001   1.658  -0.694  0.00  0.00    +0.009 A 
ATOM     10  C   LIG    1       -1.331   1.369  -0.554  0.00  0.00    +0.005 A 
ENDROOT
BRANCH   1  11
ATOM     11  C   LIG    1       -3.207  -0.166   0.028  0.00  0.00    +0.124 C 
ATOM     12  C   LIG    1       -3.941   0.051  -1.294  0.00  0.00    +0.024 C 
BRANCH  11  13
ATOM     13  C   LIG    1       -3.780   0.730   1.084  0.00  0.00    +0.312 C 
ATOM     14  O   LIG    1       -3.053   1.555   1.674  0.00  0.00    -0.250 OA
BRANCH  13  15
ATOM     15  O   LIG    1       -5.120   0.673   1.436  0.00  0.00    -0.480 OA
ATOM     16  H   LIG    1       -5.480  -0.219   1.751  0.00  0.00    +0.295 HD
ENDBRANCH  13  15
ENDBRANCH  11  13
ENDBRANCH   1  11
BRANCH   6  17
ATOM     17  O   LIG    1        4.639   0.294  -0.367  0.00  0.00    -0.495 OA
ATOM     18  C   LIG    1        5.655  -0.614  -0.087  0.00  0.00    +0.277 C 
ENDBRANCH   6  17
TORSDOF 4
