REMARK  Name = molecules/CNNRPFQICPFDPO-UHFFFAOYSA-N.pdb
REMARK                            x       y       z     vdW  Elec       q    Type
REMARK                         _______ _______ _______ _____ _____    ______ ____
ROOT
ATOM      1  C   LIG    1        0.812  -1.411  -1.252  0.00  0.00    -0.000 C 
ENDROOT
BRANCH   1   2
ATOM      2  C   LIG    1        0.760  -0.029  -1.800  0.00  0.00    -0.000 C 
BRANCH   2   3
ATOM      3  C   LIG    1        2.108   0.481  -2.274  0.00  0.00    -0.000 C 
BRANCH   3   4
ATOM      4  C   LIG    1        3.125   0.523  -1.188  0.00  0.00    -0.000 C 
BRANCH   4   5
ATOM      5  C   LIG    1        4.444   1.040  -1.682  0.00  0.00    -0.000 C 
BRANCH   5   6
ATOM      6  C   LIG    1        5.062   0.225  -2.772  0.00  0.00    -0.000 C 
BRANCH   6   7
ATOM      7  C   LIG    1        5.341  -1.188  -2.383  0.00  0.00    -0.000 C 
BRANCH   7   8
ATOM      8  C   LIG    1        6.284  -1.377  -1.246  0.00  0.00    -0.000 C 
BRANCH   8   9
ATOM      9  C   LIG    1        7.636  -0.807  -1.534  0.00  0.00    -0.000 C 
BRANCH   9  10
ATOM     10  C   LIG    1        8.611  -0.994  -0.410  0.00  0.00    -0.000 C 
BRANCH  10  11
ATOM     11  C   LIG    1        8.186  -0.334   0.885  0.00  0.00    -0.000 C 
BRANCH  11  12
ATOM     12  C   LIG    1        8.035   1.154   0.732  0.00  0.00    -0.000 C 
BRANCH  12  13
ATOM     13  C   LIG    1        7.611   1.742   2.054  0.00  0.00    -0.000 C 
BRANCH  13  14
ATOM     14  C   LIG    1        6.295   1.173   2.514  0.00  0.00    -0.003 C 
ATOM     15  C   LIG    1        5.975   1.849   3.839  0.00  0.00    +0.004 C 
ENDBRANCH  13  14
ENDBRANCH  12  13
ENDBRANCH  11  12
ENDBRANCH  10  11
ENDBRANCH   9  10
ENDBRANCH   8   9
ENDBRANCH   7   8
ENDBRANCH   6   7
ENDBRANCH   5   6
ENDBRANCH   4   5
ENDBRANCH   3   4
ENDBRANCH   2   3
ENDBRANCH   1   2
BRANCH   1  16
ATOM     16  C   LIG    1       -0.560  -1.844  -0.821  0.00  0.00    -0.000 C 
BRANCH  16  17
ATOM     17  C   LIG    1       -1.175  -0.995   0.243  0.00  0.00    -0.000 C 
BRANCH  17  18
ATOM     18  C   LIG    1       -2.546  -1.482   0.648  0.00  0.00    -0.000 C 
BRANCH  18  19
ATOM     19  C   LIG    1       -3.537  -1.496  -0.466  0.00  0.00    -0.000 C 
BRANCH  19  20
ATOM     20  C   LIG    1       -4.903  -1.983  -0.016  0.00  0.00    -0.000 C 
BRANCH  20  21
ATOM     21  C   LIG    1       -5.495  -1.118   1.069  0.00  0.00    -0.000 C 
BRANCH  21  22
ATOM     22  C   LIG    1       -6.835  -1.671   1.442  0.00  0.00    -0.000 C 
BRANCH  22  23
ATOM     23  C   LIG    1       -7.538  -0.904   2.517  0.00  0.00    +0.000 C 
BRANCH  23  24
ATOM     24  C   LIG    1       -7.805   0.525   2.167  0.00  0.00    +0.000 C 
BRANCH  24  25
ATOM     25  C   LIG    1       -8.674   0.679   0.931  0.00  0.00    +0.000 C 
BRANCH  25  26
ATOM     26  C   LIG    1       -8.886   2.148   0.662  0.00  0.00    +0.002 C 
BRANCH  26  27
ATOM     27  C   LIG    1       -9.739   2.382  -0.532  0.00  0.00    +0.028 C 
BRANCH  27  28
ATOM     28  C   LIG    1       -9.113   1.794  -1.755  0.00  0.00    +0.156 C 
BRANCH  28  29
ATOM     29  O   LIG    1       -7.850   2.396  -1.949  0.00  0.00    -0.395 OA
ATOM     30  H   LIG    1       -7.187   1.896  -1.396  0.00  0.00    +0.209 HD
ENDBRANCH  28  29
ENDBRANCH  27  28
ENDBRANCH  26  27
ENDBRANCH  25  26
ENDBRANCH  24  25
ENDBRANCH  23  24
ENDBRANCH  22  23
ENDBRANCH  21  22
ENDBRANCH  20  21
ENDBRANCH  19  20
ENDBRANCH  18  19
ENDBRANCH  17  18
ENDBRANCH  16  17
ENDBRANCH   1  16
TORSDOF 27
