REMARK  Name = molecules/CORFWQGVBFFZHF-AKGSDVBQSA-N.pdb
REMARK                            x       y       z     vdW  Elec       q    Type
REMARK                         _______ _______ _______ _____ _____    ______ ____
ROOT
ATOM      1  C   LIG    1        0.246  -0.858   0.183  0.00  0.00    +0.246 C 
ATOM      2  N   LIG    1        1.330   0.051   0.283  0.00  0.00    -0.301 N 
ATOM      3  H   LIG    1        1.135   1.069   0.359  0.00  0.00    +0.150 HD
ATOM      4  O   LIG    1        0.436  -2.097   0.088  0.00  0.00    -0.270 OA
ENDROOT
BRANCH   1   5
ATOM      5  C   LIG    1       -1.132  -0.377   0.187  0.00  0.00    +0.050 A 
ATOM      6  C   LIG    1       -1.520   0.690   0.969  0.00  0.00    +0.014 A 
ATOM      7  C   LIG    1       -2.804   1.169   0.999  0.00  0.00    +0.001 A 
ATOM      8  C   LIG    1       -3.744   0.544   0.202  0.00  0.00    +0.001 A 
ATOM      9  C   LIG    1       -3.416  -0.530  -0.605  0.00  0.00    +0.015 A 
ATOM     10  C   LIG    1       -2.114  -0.968  -0.594  0.00  0.00    +0.025 A 
ATOM     11  I   LIG    1       -1.624  -2.605  -1.825  0.00  0.00    -0.043 I 
ENDBRANCH   1   5
BRANCH   2  12
ATOM     12  C   LIG    1        2.669  -0.476   0.274  0.00  0.00    +0.225 C 
BRANCH  12  13
ATOM     13  C   LIG    1        3.698   0.586   0.385  0.00  0.00    +0.322 C 
ATOM     14  O   LIG    1        3.286   1.778   0.470  0.00  0.00    -0.249 OA
BRANCH  13  15
ATOM     15  O   LIG    1        5.045   0.354   0.401  0.00  0.00    -0.480 OA
ATOM     16  H   LIG    1        5.723   0.806   0.997  0.00  0.00    +0.295 HD
ENDBRANCH  13  15
ENDBRANCH  12  13
ENDBRANCH   2  12
TORSDOF 4
