REMARK  Name = molecules/COUYJEVMBVSIHV-SFHVURJKSA-N.pdb
REMARK                            x       y       z     vdW  Elec       q    Type
REMARK                         _______ _______ _______ _____ _____    ______ ____
ROOT
ATOM      1  C   LIG    1       -2.386   0.975  -0.018  0.00  0.00    +0.162 C 
ENDROOT
BRANCH   1  13
ATOM      2  C   LIG    1       -2.893  -1.347   0.653  0.00  0.00    +0.055 A 
ATOM      3  C   LIG    1       -3.789  -2.391   0.865  0.00  0.00    +0.119 A 
ATOM      4  C   LIG    1       -5.131  -2.228   0.628  0.00  0.00    +0.072 A 
ATOM      5  C   LIG    1       -5.596  -1.012   0.171  0.00  0.00    +0.080 A 
ATOM      6  C   LIG    1       -4.681   0.028  -0.037  0.00  0.00    +0.148 A 
ATOM      7  O   LIG    1       -5.117   1.249  -0.492  0.00  0.00    -0.481 OA
ATOM      8  C   LIG    1       -6.471   1.608  -0.392  0.00  0.00    +0.325 C 
ATOM      9  C   LIG    1       -7.379   0.456  -0.561  0.00  0.00    +0.255 C 
ATOM     10  O   LIG    1       -8.491   0.636  -1.121  0.00  0.00    -0.272 OA
ATOM     11  N   LIG    1       -6.975  -0.815  -0.089  0.00  0.00    -0.280 N 
ATOM     12  H   LIG    1       -7.671  -1.563   0.053  0.00  0.00    +0.155 HD
ATOM     13  C   LIG    1       -3.327  -0.135   0.203  0.00  0.00    +0.029 A 
BRANCH   3  14
ATOM     14  O   LIG    1       -3.322  -3.628   1.329  0.00  0.00    -0.507 OA
ATOM     15  H   LIG    1       -3.292  -3.746   2.337  0.00  0.00    +0.292 HD
ENDBRANCH   3  14
ENDBRANCH   1  13
BRANCH   1  16
ATOM     16  O   LIG    1       -2.774   2.000   0.845  0.00  0.00    -0.386 OA
ATOM     17  H   LIG    1       -2.304   1.935   1.716  0.00  0.00    +0.210 HD
ENDBRANCH   1  16
BRANCH   1  18
ATOM     18  C   LIG    1       -0.958   0.561   0.190  0.00  0.00    +0.117 C 
BRANCH  18  19
ATOM     19  N   LIG    1       -0.039   1.643  -0.020  0.00  0.00    -0.308 NA
ATOM     20  H   LIG    1       -0.361   2.579   0.212  0.00  0.00    +0.123 HD
BRANCH  19  21
ATOM     21  C   LIG    1        1.339   1.350   0.063  0.00  0.00    +0.018 C 
ATOM     22  C   LIG    1        1.738   0.685   1.364  0.00  0.00    +0.027 C 
ATOM     23  C   LIG    1        2.118   2.641  -0.001  0.00  0.00    +0.027 C 
BRANCH  21  24
ATOM     24  C   LIG    1        1.739   0.410  -1.057  0.00  0.00    +0.056 C 
BRANCH  24  25
ATOM     25  C   LIG    1        3.203   0.122  -0.956  0.00  0.00    -0.045 A 
ATOM     26  C   LIG    1        3.679  -0.966  -0.286  0.00  0.00    +0.007 A 
ATOM     27  C   LIG    1        5.040  -1.216  -0.221  0.00  0.00    +0.046 A 
ATOM     28  C   LIG    1        5.976  -0.403  -0.813  0.00  0.00    +0.120 A 
ATOM     29  C   LIG    1        5.453   0.704  -1.492  0.00  0.00    +0.046 A 
ATOM     30  C   LIG    1        4.116   0.970  -1.568  0.00  0.00    +0.007 A 
BRANCH  28  31
ATOM     31  O   LIG    1        7.330  -0.611  -0.775  0.00  0.00    -0.495 OA
ATOM     32  C   LIG    1        8.016  -1.653  -0.148  0.00  0.00    +0.277 C 
ENDBRANCH  28  31
ENDBRANCH  24  25
ENDBRANCH  21  24
ENDBRANCH  19  21
ENDBRANCH  18  19
ENDBRANCH   1  18
TORSDOF 9
