REMARK  Name = molecules/COXVTLYNGOIATD-HVMBLDELSA-N.pdb
REMARK                            x       y       z     vdW  Elec       q    Type
REMARK                         _______ _______ _______ _____ _____    ______ ____
ROOT
ATOM      1  C   LIG    1       -3.479  -0.398  -0.790  0.00  0.00    +0.089 A 
ATOM      2  C   LIG    1       -2.859  -0.385   0.442  0.00  0.00    -0.023 A 
ATOM      3  C   LIG    1       -3.692  -0.550   1.646  0.00  0.00    +0.046 C 
ATOM      4  C   LIG    1       -1.474  -0.221   0.551  0.00  0.00    +0.014 A 
ATOM      5  C   LIG    1       -0.691  -0.067  -0.574  0.00  0.00    -0.017 A 
ATOM      6  C   LIG    1       -1.326  -0.082  -1.799  0.00  0.00    +0.010 A 
ATOM      7  C   LIG    1       -2.707  -0.245  -1.923  0.00  0.00    +0.030 A 
ENDROOT
BRANCH   5   8
ATOM      8  C   LIG    1        0.760   0.110  -0.520  0.00  0.00    -0.017 A 
ATOM      9  C   LIG    1        1.394   0.750   0.512  0.00  0.00    +0.014 A 
ATOM     10  C   LIG    1        2.766   0.891   0.517  0.00  0.00    -0.023 A 
ATOM     11  C   LIG    1        3.466   1.594   1.649  0.00  0.00    +0.046 C 
ATOM     12  C   LIG    1        3.566   0.404  -0.503  0.00  0.00    +0.089 A 
ATOM     13  C   LIG    1        2.917  -0.243  -1.545  0.00  0.00    +0.030 A 
ATOM     14  C   LIG    1        1.537  -0.387  -1.553  0.00  0.00    +0.010 A 
BRANCH  12  15
ATOM     15  N   LIG    1        4.989   0.550  -0.500  0.00  0.00    -0.149 NA
ATOM     16  N   LIG    1        5.587   0.315   0.595  0.00  0.00    -0.146 NA
BRANCH  16  17
ATOM     17  C   LIG    1        7.006   0.433   0.698  0.00  0.00    +0.128 A 
ATOM     18  C   LIG    1        7.609   1.532   1.292  0.00  0.00    +0.034 A 
ATOM     19  C   LIG    1        8.989   1.620   1.379  0.00  0.00    +0.013 A 
ATOM     20  C   LIG    1        9.808   0.626   0.880  0.00  0.00    +0.015 A 
ATOM     21  C   LIG    1       11.163   0.759   0.989  0.00  0.00    +0.127 A 
ATOM     22  C   LIG    1       11.967  -0.245   0.485  0.00  0.00    +0.061 A 
ATOM     23  C   LIG    1       11.408  -1.374  -0.123  0.00  0.00    +0.140 A 
ATOM     24  C   LIG    1       10.037  -1.483  -0.221  0.00  0.00    +0.064 A 
ATOM     25  C   LIG    1        9.213  -0.488   0.278  0.00  0.00    +0.050 A 
ATOM     26  C   LIG    1        7.837  -0.550   0.205  0.00  0.00    +0.153 A 
BRANCH  21  27
ATOM     27  S   LIG    1       11.927   2.146   1.739  0.00  0.00    +0.110 S 
ATOM     28  O   LIG    1       13.418   1.973   1.771  0.00  0.00    -0.142 OA
ATOM     29  O   LIG    1       11.648   3.403   0.965  0.00  0.00    -0.142 OA
BRANCH  27  30
ATOM     30  O   LIG    1       11.434   2.293   3.354  0.00  0.00    -0.250 OA
ATOM     31  H   LIG    1       11.173   3.241   3.472  0.00  0.00    +0.245 HD
ENDBRANCH  27  30
ENDBRANCH  21  27
BRANCH  24  32
ATOM     32  N   LIG    1        9.405  -2.605  -0.828  0.00  0.00    -0.356 N 
ATOM     33  H   LIG    1        9.269  -3.515  -0.347  0.00  0.00    +0.142 HD
ATOM     34  H   LIG    1        9.072  -2.474  -1.806  0.00  0.00    +0.142 HD
ENDBRANCH  24  32
BRANCH  23  35
ATOM     35  S   LIG    1       12.382  -2.666  -0.774  0.00  0.00    +0.111 S 
ATOM     36  O   LIG    1       12.023  -3.964  -0.110  0.00  0.00    -0.142 OA
ATOM     37  O   LIG    1       12.040  -2.767  -2.249  0.00  0.00    -0.142 OA
BRANCH  35  38
ATOM     38  O   LIG    1       14.009  -2.389  -0.581  0.00  0.00    -0.250 OA
ATOM     39  H   LIG    1       14.164  -1.887   0.254  0.00  0.00    +0.245 HD
ENDBRANCH  35  38
ENDBRANCH  23  35
BRANCH  26  40
ATOM     40  O   LIG    1        7.230  -1.656  -0.393  0.00  0.00    -0.504 OA
ATOM     41  H   LIG    1        6.245  -1.766  -0.479  0.00  0.00    +0.292 HD
ENDBRANCH  26  40
ENDBRANCH  16  17
ENDBRANCH  12  15
ENDBRANCH   5   8
BRANCH   1  43
ATOM     42  N   LIG    1       -5.656   0.320  -1.340  0.00  0.00    -0.146 NA
ATOM     43  N   LIG    1       -4.891  -0.568  -0.867  0.00  0.00    -0.149 NA
BRANCH  42  51
ATOM     44  C   LIG    1      -10.059   0.595   0.652  0.00  0.00    +0.064 A 
ATOM     45  C   LIG    1      -11.427   0.472   0.545  0.00  0.00    +0.140 A 
ATOM     46  C   LIG    1      -12.003   0.090  -0.650  0.00  0.00    +0.061 A 
ATOM     47  C   LIG    1      -11.233  -0.178  -1.760  0.00  0.00    +0.127 A 
ATOM     48  C   LIG    1       -9.867  -0.049  -1.630  0.00  0.00    +0.015 A 
ATOM     49  C   LIG    1       -9.057  -0.309  -2.723  0.00  0.00    +0.013 A 
ATOM     50  C   LIG    1       -7.692  -0.184  -2.611  0.00  0.00    +0.034 A 
ATOM     51  C   LIG    1       -7.077   0.195  -1.438  0.00  0.00    +0.128 A 
ATOM     52  C   LIG    1       -7.873   0.455  -0.346  0.00  0.00    +0.153 A 
ATOM     53  C   LIG    1       -9.243   0.331  -0.454  0.00  0.00    +0.050 A 
BRANCH  45  54
ATOM     54  S   LIG    1      -12.415   0.816   1.965  0.00  0.00    +0.111 S 
ATOM     55  O   LIG    1      -12.254   2.270   2.355  0.00  0.00    -0.142 OA
ATOM     56  O   LIG    1      -13.844   0.623   1.578  0.00  0.00    -0.142 OA
BRANCH  54  57
ATOM     57  O   LIG    1      -12.009  -0.211   3.223  0.00  0.00    -0.250 OA
ATOM     58  H   LIG    1      -12.283   0.244   4.073  0.00  0.00    +0.245 HD
ENDBRANCH  54  57
ENDBRANCH  45  54
BRANCH  44  59
ATOM     59  N   LIG    1       -9.450   0.986   1.871  0.00  0.00    -0.356 N 
ATOM     60  H   LIG    1       -9.347   0.383   2.706  0.00  0.00    +0.142 HD
ATOM     61  H   LIG    1       -9.074   1.961   1.936  0.00  0.00    +0.142 HD
ENDBRANCH  44  59
BRANCH  47  62
ATOM     62  S   LIG    1      -11.958  -0.668  -3.297  0.00  0.00    +0.110 S 
ATOM     63  O   LIG    1      -13.440  -0.819  -3.113  0.00  0.00    -0.142 OA
ATOM     64  O   LIG    1      -11.612   0.286  -4.391  0.00  0.00    -0.142 OA
BRANCH  62  65
ATOM     65  O   LIG    1      -11.371  -2.201  -3.735  0.00  0.00    -0.250 OA
ATOM     66  H   LIG    1      -11.951  -2.890  -3.284  0.00  0.00    +0.245 HD
ENDBRANCH  62  65
ENDBRANCH  47  62
BRANCH  52  67
ATOM     67  O   LIG    1       -7.323   0.840   0.867  0.00  0.00    -0.504 OA
ATOM     68  H   LIG    1       -6.307   0.934   0.954  0.00  0.00    +0.292 HD
ENDBRANCH  52  67
ENDBRANCH  42  51
ENDBRANCH   1  43
TORSDOF 17
