REMARK  Name = molecules/CPZBLNMUGSZIPR-NVXWUHKLSA-N.pdb
REMARK                            x       y       z     vdW  Elec       q    Type
REMARK                         _______ _______ _______ _____ _____    ______ ____
ROOT
ATOM      1  O   LIG    1        0.614   1.694   1.588  0.00  0.00    -0.270 OA
ATOM      2  C   LIG    1       -0.140   0.918   0.985  0.00  0.00    +0.247 C 
ATOM      3  C   LIG    1       -1.543   1.208   0.729  0.00  0.00    +0.041 A 
ATOM      4  C   LIG    1       -2.128   2.373   1.188  0.00  0.00    +0.013 A 
ATOM      5  C   LIG    1       -3.468   2.590   0.953  0.00  0.00    +0.001 A 
ATOM      6  C   LIG    1       -4.203   1.628   0.257  0.00  0.00    +0.004 A 
ATOM      7  C   LIG    1       -3.627   0.471  -0.201  0.00  0.00    -0.043 A 
ATOM      8  C   LIG    1       -4.442  -0.500  -0.924  0.00  0.00    +0.035 C 
ATOM      9  C   LIG    1       -3.953  -1.918  -0.765  0.00  0.00    +0.005 C 
ATOM     10  C   LIG    1       -2.491  -2.061  -0.926  0.00  0.00    +0.010 C 
ATOM     11  C   LIG    1       -1.633  -0.941  -0.478  0.00  0.00    +0.037 C 
ATOM     12  C   LIG    1       -0.551  -1.392   0.487  0.00  0.00    +0.116 C 
ATOM     13  C   LIG    1       -2.290   0.257   0.034  0.00  0.00    -0.028 A 
ATOM     14  N   LIG    1        0.434  -0.322   0.529  0.00  0.00    -0.292 N 
ENDROOT
BRANCH  14  15
ATOM     15  C   LIG    1        1.745  -0.569   0.151  0.00  0.00    +0.093 C 
ATOM     16  C   LIG    1        2.672  -0.450   1.344  0.00  0.00    +0.107 C 
ATOM     17  N   LIG    1        3.954   0.112   0.968  0.00  0.00    -0.301 NA
ATOM     18  C   LIG    1        3.737   1.503   0.576  0.00  0.00    +0.085 C 
ATOM     19  C   LIG    1        2.873   1.555  -0.647  0.00  0.00    +0.021 C 
ATOM     20  C   LIG    1        4.540  -0.568  -0.159  0.00  0.00    +0.085 C 
ATOM     21  C   LIG    1        3.614  -0.612  -1.356  0.00  0.00    +0.021 C 
ATOM     22  C   LIG    1        2.341   0.184  -0.981  0.00  0.00    +0.013 C 
ENDBRANCH  14  15
TORSDOF 1
