REMARK  Name = molecules/CQRKVVAGMJJJSR-IBGZPJMESA-N.pdb
REMARK                            x       y       z     vdW  Elec       q    Type
REMARK                         _______ _______ _______ _____ _____    ______ ____
ROOT
ATOM      1  C   LIG    1       -2.348   0.296  -1.219  0.00  0.00    +0.213 C 
ENDROOT
BRANCH   1   2
ATOM      2  C   LIG    1       -2.786   0.771   0.123  0.00  0.00    -0.001 A 
ATOM      3  C   LIG    1       -2.156   0.368   1.282  0.00  0.00    +0.007 A 
ATOM      4  C   LIG    1       -2.555   0.803   2.530  0.00  0.00    +0.000 A 
ATOM      5  C   LIG    1       -3.618   1.673   2.668  0.00  0.00    +0.000 A 
ATOM      6  C   LIG    1       -4.254   2.082   1.518  0.00  0.00    +0.000 A 
ATOM      7  C   LIG    1       -3.855   1.648   0.272  0.00  0.00    +0.007 A 
ENDBRANCH   1   2
BRANCH   1   8
ATOM      8  C   LIG    1       -2.563  -1.154  -1.381  0.00  0.00    -0.001 A 
ATOM      9  C   LIG    1       -3.822  -1.698  -1.236  0.00  0.00    +0.007 A 
ATOM     10  C   LIG    1       -4.059  -3.060  -1.381  0.00  0.00    +0.000 A 
ATOM     11  C   LIG    1       -3.012  -3.920  -1.682  0.00  0.00    +0.000 A 
ATOM     12  C   LIG    1       -1.755  -3.386  -1.829  0.00  0.00    +0.000 A 
ATOM     13  C   LIG    1       -1.545  -2.021  -1.679  0.00  0.00    +0.007 A 
ENDBRANCH   1   8
BRANCH   1  14
ATOM     14  C   LIG    1       -0.951   0.701  -1.445  0.00  0.00    +0.348 C 
ATOM     15  O   LIG    1       -0.686   1.475  -2.393  0.00  0.00    -0.247 OA
BRANCH  14  16
ATOM     16  O   LIG    1        0.108   0.274  -0.663  0.00  0.00    -0.464 OA
BRANCH  16  17
ATOM     17  C   LIG    1        1.437   0.691  -0.918  0.00  0.00    +0.217 C 
BRANCH  17  18
ATOM     18  C   LIG    1        2.391   0.080   0.080  0.00  0.00    -0.028 C 
ATOM     19  C   LIG    1        2.092   0.529   1.482  0.00  0.00    -0.013 C 
ATOM     20  C   LIG    1        3.396   0.170   2.198  0.00  0.00    -0.020 C 
ATOM     21  C   LIG    1        4.399  -0.070   1.073  0.00  0.00    -0.075 C 
ATOM     22  N   LIG    1        3.748   0.466  -0.130  0.00  0.00    +0.380 N 
ATOM     23  C   LIG    1        3.952   1.902  -0.121  0.00  0.00    -0.092 C 
ATOM     24  C   LIG    1        4.340  -0.099  -1.321  0.00  0.00    -0.092 C 
ENDBRANCH  17  18
ENDBRANCH  16  17
ENDBRANCH  14  16
ENDBRANCH   1  14
BRANCH   1  25
ATOM     25  O   LIG    1       -3.151   0.956  -2.168  0.00  0.00    -0.370 OA
ATOM     26  H   LIG    1       -2.912   0.534  -3.042  0.00  0.00    +0.212 HD
ENDBRANCH   1  25
TORSDOF 7
