REMARK  Name = molecules/CQXADFVORZEARL-UHFFFAOYSA-N.pdb
REMARK                            x       y       z     vdW  Elec       q    Type
REMARK                         _______ _______ _______ _____ _____    ______ ____
ROOT
ATOM      1  C   LIG    1       -0.872   0.051  -0.748  0.00  0.00    +0.064 C 
ENDROOT
BRANCH   1   2
ATOM      2  C   LIG    1       -0.822  -1.165   0.154  0.00  0.00    +0.006 C 
ATOM      3  C   LIG    1       -0.628  -1.053   1.613  0.00  0.00    +0.005 C 
ATOM      4  C   LIG    1       -1.974  -1.453   1.038  0.00  0.00    +0.005 C 
ENDBRANCH   1   2
BRANCH   1   5
ATOM      5  C   LIG    1       -2.118   0.846  -0.630  0.00  0.00    +0.006 C 
ATOM      6  C   LIG    1       -2.426   1.667   0.565  0.00  0.00    +0.005 C 
ATOM      7  C   LIG    1       -2.135   2.307  -0.749  0.00  0.00    +0.005 C 
ENDBRANCH   1   5
BRANCH   1   8
ATOM      8  N   LIG    1        0.355   0.796  -0.661  0.00  0.00    -0.267 NA
ATOM      9  H   LIG    1        0.292   1.819  -0.495  0.00  0.00    +0.126 HD
BRANCH   8  10
ATOM     10  C   LIG    1        1.639   0.144  -0.794  0.00  0.00    +0.253 C 
ATOM     11  O   LIG    1        2.789   0.567  -0.162  0.00  0.00    -0.339 OA
ATOM     12  C   LIG    1        3.825  -0.361  -0.277  0.00  0.00    +0.180 C 
ATOM     13  C   LIG    1        3.313  -1.264  -1.382  0.00  0.00    +0.135 C 
ATOM     14  N   LIG    1        1.935  -0.885  -1.479  0.00  0.00    -0.186 NA
ENDBRANCH   8  10
ENDBRANCH   1   8
TORSDOF 4
