REMARK  Name = molecules/CREICILGVGNQBH-UHFFFAOYSA-N.pdb
REMARK                            x       y       z     vdW  Elec       q    Type
REMARK                         _______ _______ _______ _____ _____    ______ ____
ROOT
ATOM      1  C   LIG    1       -0.184   0.140  -0.675  0.00  0.00    +0.079 C 
ENDROOT
BRANCH   1   2
ATOM      2  C   LIG    1       -0.666  -1.039   0.121  0.00  0.00    -0.030 A 
ATOM      3  C   LIG    1       -0.647  -0.974   1.509  0.00  0.00    +0.005 A 
ATOM      4  C   LIG    1       -1.108  -2.077   2.199  0.00  0.00    +0.000 A 
ATOM      5  C   LIG    1       -1.575  -3.216   1.582  0.00  0.00    +0.000 A 
ATOM      6  C   LIG    1       -1.580  -3.248   0.205  0.00  0.00    +0.006 A 
ATOM      7  C   LIG    1       -1.126  -2.160  -0.534  0.00  0.00    -0.018 A 
BRANCH   7   8
ATOM      8  C   LIG    1       -1.143  -2.213  -2.035  0.00  0.00    +0.191 C 
BRANCH   8   9
ATOM      9  O   LIG    1       -1.643  -3.440  -2.473  0.00  0.00    -0.390 OA
ATOM     10  H   LIG    1       -2.519  -3.338  -2.888  0.00  0.00    +0.210 HD
ENDBRANCH   8   9
ENDBRANCH   7   8
ENDBRANCH   1   2
BRANCH   1  11
ATOM     11  C   LIG    1       -0.656   1.381  -0.025  0.00  0.00    -0.035 A 
ATOM     12  C   LIG    1        0.107   2.190   0.767  0.00  0.00    +0.008 A 
ATOM     13  C   LIG    1       -0.399   3.350   1.359  0.00  0.00    +0.046 A 
ATOM     14  C   LIG    1       -1.699   3.717   1.157  0.00  0.00    +0.117 A 
ATOM     15  C   LIG    1       -2.499   2.926   0.364  0.00  0.00    +0.046 A 
ATOM     16  C   LIG    1       -1.984   1.787  -0.210  0.00  0.00    +0.008 A 
BRANCH  14  17
ATOM     17  O   LIG    1       -2.227   4.867   1.735  0.00  0.00    -0.507 OA
ATOM     18  H   LIG    1       -2.668   4.867   2.649  0.00  0.00    +0.292 HD
ENDBRANCH  14  17
ENDBRANCH   1  11
BRANCH   1  19
ATOM     19  C   LIG    1        1.247   0.078  -0.968  0.00  0.00    -0.035 A 
ATOM     20  C   LIG    1        2.180  -0.130   0.029  0.00  0.00    +0.008 A 
ATOM     21  C   LIG    1        3.516  -0.193  -0.307  0.00  0.00    +0.046 A 
ATOM     22  C   LIG    1        3.923  -0.051  -1.626  0.00  0.00    +0.117 A 
ATOM     23  C   LIG    1        2.980   0.157  -2.616  0.00  0.00    +0.046 A 
ATOM     24  C   LIG    1        1.646   0.223  -2.304  0.00  0.00    +0.008 A 
BRANCH  22  25
ATOM     25  O   LIG    1        5.280  -0.119  -1.934  0.00  0.00    -0.507 OA
ATOM     26  H   LIG    1        5.954  -0.268  -1.222  0.00  0.00    +0.292 HD
ENDBRANCH  22  25
ENDBRANCH   1  19
TORSDOF 7
