REMARK  Name = molecules/CSKDFZIMJXRJGH-VWLPUNTISA-N.pdb
REMARK                            x       y       z     vdW  Elec       q    Type
REMARK                         _______ _______ _______ _____ _____    ______ ____
ROOT
ATOM      1  C   LIG    1       -3.410  -1.118  -0.856  0.00  0.00    +0.027 C 
ATOM      2  C   LIG    1       -3.503  -1.258   0.618  0.00  0.00    -0.026 C 
ATOM      3  C   LIG    1       -3.872  -0.150   1.260  0.00  0.00    -0.026 C 
ATOM      4  C   LIG    1       -3.888   1.046   0.367  0.00  0.00    +0.027 C 
ATOM      5  C   LIG    1       -2.504   1.123  -0.215  0.00  0.00    +0.097 C 
ATOM      6  C   LIG    1       -1.476   0.632   0.787  0.00  0.00    +0.243 C 
ATOM      7  O   LIG    1       -1.488   0.748   2.030  0.00  0.00    -0.273 OA
ATOM      8  N   LIG    1       -0.458  -0.013   0.046  0.00  0.00    -0.155 N 
ATOM      9  C   LIG    1       -1.058  -0.465  -1.218  0.00  0.00    +0.243 C 
ATOM     10  O   LIG    1       -0.434  -1.121  -2.060  0.00  0.00    -0.273 OA
ATOM     11  C   LIG    1       -4.932   0.770  -0.738  0.00  0.00    +0.001 C 
ATOM     12  C   LIG    1       -5.892  -0.323  -0.477  0.00  0.00    +0.009 C 
ATOM     13  C   LIG    1       -2.422   0.000  -1.238  0.00  0.00    +0.097 C 
ATOM     14  C   LIG    1       -4.742  -0.626  -1.334  0.00  0.00    +0.001 C 
ENDROOT
BRANCH   8  15
ATOM     15  N   LIG    1        0.873  -0.262   0.290  0.00  0.00    -0.221 N 
ATOM     16  H   LIG    1        1.175  -1.196   0.644  0.00  0.00    +0.174 HD
ATOM     17  C   LIG    1        1.836   0.745   0.067  0.00  0.00    +0.261 C 
ATOM     18  O   LIG    1        1.483   1.893  -0.287  0.00  0.00    -0.269 OA
BRANCH  17  19
ATOM     19  C   LIG    1        3.265   0.501   0.220  0.00  0.00    +0.038 A 
ATOM     20  C   LIG    1        3.738  -0.430   1.101  0.00  0.00    +0.013 A 
ATOM     21  C   LIG    1        5.120  -0.737   1.078  0.00  0.00    +0.013 A 
ATOM     22  C   LIG    1        5.976  -0.130   0.201  0.00  0.00    +0.055 A 
ATOM     23  C   LIG    1        5.464   0.822  -0.678  0.00  0.00    +0.013 A 
ATOM     24  C   LIG    1        4.142   1.134  -0.668  0.00  0.00    +0.013 A 
BRANCH  22  25
ATOM     25  C   LIG    1        7.436  -0.480   0.128  0.00  0.00    +0.417 C 
ATOM     26  F   LIG    1        7.769  -1.235   1.206  0.00  0.00    -0.166 F 
ATOM     27  F   LIG    1        8.188   0.671   0.124  0.00  0.00    -0.166 F 
ATOM     28  F   LIG    1        7.592  -1.190  -1.074  0.00  0.00    -0.166 F 
ENDBRANCH  22  25
ENDBRANCH  17  19
ENDBRANCH   8  15
TORSDOF 3
