REMARK  Name = molecules/CTIRHWCPXYGDGF-HDICACEKSA-N.pdb
REMARK                            x       y       z     vdW  Elec       q    Type
REMARK                         _______ _______ _______ _____ _____    ______ ____
ROOT
ATOM      1  N   LIG    1       -1.393   0.550  -0.845  0.00  0.00    -0.301 NA
ATOM      2  C   LIG    1       -1.304   0.523   0.568  0.00  0.00    +0.089 C 
ATOM      3  C   LIG    1       -0.215  -0.244   1.198  0.00  0.00    +0.024 C 
ATOM      4  C   LIG    1        1.119   0.473   1.101  0.00  0.00    +0.089 C 
ATOM      5  N   LIG    1        2.023  -0.227   0.226  0.00  0.00    -0.301 NA
ATOM      6  C   LIG    1        1.406  -0.437  -1.043  0.00  0.00    +0.089 C 
ATOM      7  C   LIG    1        0.180  -1.345  -0.904  0.00  0.00    +0.024 C 
ATOM      8  C   LIG    1       -0.017  -1.627   0.573  0.00  0.00    -0.019 C 
ATOM      9  C   LIG    1        1.090  -2.362   1.201  0.00  0.00    +0.007 C 
ATOM     10  C   LIG    1        0.582  -3.779   1.512  0.00  0.00    +0.001 C 
ATOM     11  C   LIG    1       -0.850  -3.534   1.834  0.00  0.00    +0.001 C 
ATOM     12  C   LIG    1       -1.237  -2.474   0.823  0.00  0.00    +0.007 C 
ATOM     13  C   LIG    1       -0.973  -0.653  -1.514  0.00  0.00    +0.089 C 
ENDROOT
BRANCH   1  14
ATOM     14  C   LIG    1       -2.631   1.057  -1.372  0.00  0.00    +0.088 C 
BRANCH  14  15
ATOM     15  C   LIG    1       -3.163   2.309  -0.829  0.00  0.00    +0.003 C 
ATOM     16  C   LIG    1       -3.557   2.639   0.522  0.00  0.00    +0.005 C 
ATOM     17  C   LIG    1       -4.673   2.279  -0.414  0.00  0.00    +0.005 C 
ENDBRANCH  14  15
ENDBRANCH   1  14
BRANCH   5  18
ATOM     18  C   LIG    1        3.286   0.373   0.195  0.00  0.00    +0.088 C 
BRANCH  18  19
ATOM     19  C   LIG    1        3.442   1.782  -0.213  0.00  0.00    +0.003 C 
ATOM     20  C   LIG    1        4.566   2.078  -1.219  0.00  0.00    +0.005 C 
ATOM     21  C   LIG    1        3.101   2.386  -1.490  0.00  0.00    +0.005 C 
ENDBRANCH  18  19
ENDBRANCH   5  18
TORSDOF 4
