REMARK  Name = molecules/CTQMJYWDVABFRZ-UHFFFAOYSA-N.pdb
REMARK                            x       y       z     vdW  Elec       q    Type
REMARK                         _______ _______ _______ _____ _____    ______ ____
ROOT
ATOM      1 CL   LIG    1       -0.167   3.317   0.307  0.00  0.00    -0.083 Cl
ATOM      2  C   LIG    1       -0.652   1.648   0.186  0.00  0.00    +0.050 A 
ATOM      3  C   LIG    1       -1.992   1.321   0.235  0.00  0.00    +0.024 A 
ATOM      4  C   LIG    1       -2.373  -0.021   0.138  0.00  0.00    +0.049 A 
ATOM      5  C   LIG    1       -1.432  -1.024  -0.008  0.00  0.00    +0.143 A 
ATOM      6  C   LIG    1       -0.105  -0.647  -0.052  0.00  0.00    +0.114 A 
ATOM      7  N   LIG    1        0.839  -1.593  -0.192  0.00  0.00    -0.251 NA
ATOM      8  C   LIG    1        2.152  -1.316  -0.244  0.00  0.00    +0.111 A 
ATOM      9  C   LIG    1        2.535   0.006  -0.148  0.00  0.00    +0.020 A 
ATOM     10  C   LIG    1        1.629   1.036  -0.003  0.00  0.00    +0.013 A 
ATOM     11  C   LIG    1        0.295   0.684   0.044  0.00  0.00    +0.022 A 
ENDROOT
BRANCH   5  12
ATOM     12  O   LIG    1       -1.850  -2.344  -0.102  0.00  0.00    -0.505 OA
ATOM     13  H   LIG    1       -1.155  -3.075  -0.208  0.00  0.00    +0.292 HD
ENDBRANCH   5  12
TORSDOF 1
