REMARK  Name = molecules/CUHVIMMYOGQXCV-NSHDSACASA-N.pdb
REMARK                            x       y       z     vdW  Elec       q    Type
REMARK                         _______ _______ _______ _____ _____    ______ ____
ROOT
ATOM      1  C   LIG    1        0.918  -0.833  -0.914  0.00  0.00    +0.066 C 
ATOM      2  C   LIG    1        1.585  -2.192  -0.780  0.00  0.00    +0.019 C 
ENDROOT
BRANCH   1   3
ATOM      3  C   LIG    1       -0.314  -0.759  -0.095  0.00  0.00    -0.036 A 
ATOM      4  C   LIG    1       -0.562  -1.744   0.871  0.00  0.00    +0.004 A 
ATOM      5  C   LIG    1       -1.692  -1.712   1.653  0.00  0.00    +0.001 A 
ATOM      6  C   LIG    1       -2.612  -0.693   1.497  0.00  0.00    +0.003 A 
ATOM      7  C   LIG    1       -2.410   0.295   0.562  0.00  0.00    -0.047 A 
ATOM      8  C   LIG    1       -3.408   1.406   0.387  0.00  0.00    +0.044 C 
ATOM      9  C   LIG    1       -1.256   0.225  -0.209  0.00  0.00    -0.044 A 
ATOM     10  C   LIG    1       -1.090   1.327  -1.218  0.00  0.00    +0.044 C 
ENDBRANCH   1   3
BRANCH   1  11
ATOM     11  C   LIG    1        1.909   0.221  -0.556  0.00  0.00    +0.066 A 
ATOM     12  C   LIG    1        2.852   0.098   0.470  0.00  0.00    +0.107 A 
ATOM     13  N   LIG    1        3.560   1.237   0.484  0.00  0.00    -0.351 N 
ATOM     14  H   LIG    1        4.338   1.407   1.162  0.00  0.00    +0.166 HD
ATOM     15  C   LIG    1        3.123   2.075  -0.471  0.00  0.00    +0.196 A 
ATOM     16  N   LIG    1        2.126   1.436  -1.083  0.00  0.00    -0.240 NA
ENDBRANCH   1  11
TORSDOF 2
