REMARK  Name = molecules/CULUWZNBISUWAS-UHFFFAOYSA-N.pdb
REMARK                            x       y       z     vdW  Elec       q    Type
REMARK                         _______ _______ _______ _____ _____    ______ ____
ROOT
ATOM      1  N   LIG    1        0.400  -1.529  -0.950  0.00  0.00    -0.310 N 
ATOM      2  C   LIG    1       -0.695  -1.013  -0.214  0.00  0.00    +0.233 C 
ATOM      3  O   LIG    1       -0.644  -0.763   1.013  0.00  0.00    -0.274 OA
ATOM      4  H   LIG    1        0.320  -1.726  -1.969  0.00  0.00    +0.149 HD
ENDROOT
BRANCH   1   5
ATOM      5  C   LIG    1        1.674  -1.810  -0.340  0.00  0.00    +0.139 C 
BRANCH   5   7
ATOM      6  C   LIG    1        3.220   0.036  -1.055  0.00  0.00    +0.005 A 
ATOM      7  C   LIG    1        2.469  -0.585  -0.076  0.00  0.00    -0.030 A 
ATOM      8  C   LIG    1        2.483  -0.019   1.191  0.00  0.00    +0.005 A 
ATOM      9  C   LIG    1        3.217   1.117   1.459  0.00  0.00    +0.000 A 
ATOM     10  C   LIG    1        3.968   1.742   0.488  0.00  0.00    +0.000 A 
ATOM     11  C   LIG    1        3.959   1.182  -0.779  0.00  0.00    +0.000 A 
ENDBRANCH   5   7
ENDBRANCH   1   5
BRANCH   2  12
ATOM     12  C   LIG    1       -1.964  -0.758  -0.942  0.00  0.00    +0.220 C 
BRANCH  12  13
ATOM     13  N   LIG    1       -2.989  -0.228  -0.084  0.00  0.00    -0.303 N 
ATOM     14  C   LIG    1       -3.903  -0.961   0.620  0.00  0.00    +0.109 A 
ATOM     15  C   LIG    1       -4.722  -0.105   1.325  0.00  0.00    +0.132 A 
ATOM     16  N   LIG    1       -4.288   1.130   1.034  0.00  0.00    -0.215 NA
ATOM     17  C   LIG    1       -3.229   1.068   0.174  0.00  0.00    +0.291 A 
BRANCH  17  18
ATOM     18  N   LIG    1       -2.508   2.179  -0.354  0.00  0.00    +0.093 N 
ATOM     19  O   LIG    1       -2.842   3.342  -0.027  0.00  0.00    -0.123 OA
ATOM     20  O   LIG    1       -1.469   2.028  -1.200  0.00  0.00    -0.123 OA
ENDBRANCH  17  18
ENDBRANCH  12  13
ENDBRANCH   2  12
TORSDOF 5
