REMARK  Name = molecules/CURUTKGFNZGFSE-UHFFFAOYSA-N.pdb
REMARK                            x       y       z     vdW  Elec       q    Type
REMARK                         _______ _______ _______ _____ _____    ______ ____
ROOT
ATOM      1  C   LIG    1       -1.616  -0.515   0.091  0.00  0.00    +0.071 C 
ATOM      2  C   LIG    1       -1.455  -1.255   1.380  0.00  0.00    +0.018 C 
ATOM      3  C   LIG    1       -2.454  -2.378   1.571  0.00  0.00    +0.001 C 
ATOM      4  C   LIG    1       -2.215  -3.456   0.559  0.00  0.00    +0.000 C 
ATOM      5  C   LIG    1       -1.614  -2.821  -0.676  0.00  0.00    +0.001 C 
ATOM      6  C   LIG    1       -2.276  -1.475  -0.885  0.00  0.00    +0.018 C 
ENDROOT
BRANCH   1   7
ATOM      7  C   LIG    1       -2.379   0.774   0.228  0.00  0.00    +0.006 C 
ATOM      8  C   LIG    1       -3.651   0.622   1.035  0.00  0.00    +0.004 C 
ATOM      9  C   LIG    1       -4.197   2.050   1.194  0.00  0.00    +0.000 C 
ATOM     10  C   LIG    1       -4.469   2.690  -0.121  0.00  0.00    +0.000 C 
ATOM     11  C   LIG    1       -4.069   1.773  -1.245  0.00  0.00    +0.000 C 
ATOM     12  C   LIG    1       -2.572   1.496  -1.060  0.00  0.00    +0.004 C 
ENDBRANCH   1   7
BRANCH   1  13
ATOM     13  C   LIG    1       -0.253  -0.259  -0.450  0.00  0.00    +0.314 C 
ATOM     14  O   LIG    1        0.213  -0.780  -1.491  0.00  0.00    -0.250 OA
BRANCH  13  15
ATOM     15  O   LIG    1        0.556   0.617   0.251  0.00  0.00    -0.463 OA
BRANCH  15  16
ATOM     16  C   LIG    1        1.875   0.973  -0.107  0.00  0.00    +0.247 C 
BRANCH  16  17
ATOM     17  C   LIG    1        2.820  -0.200  -0.117  0.00  0.00    +0.125 C 
BRANCH  17  18
ATOM     18  N   LIG    1        4.118   0.264  -0.492  0.00  0.00    -0.300 NA
BRANCH  18  19
ATOM     19  C   LIG    1        4.503   1.536   0.004  0.00  0.00    +0.081 C 
ATOM     20  C   LIG    1        5.869   1.893  -0.479  0.00  0.00    +0.020 C 
ENDBRANCH  18  19
BRANCH  18  21
ATOM     21  C   LIG    1        5.100  -0.764  -0.486  0.00  0.00    +0.081 C 
ATOM     22  C   LIG    1        5.411  -1.271   0.921  0.00  0.00    +0.020 C 
ENDBRANCH  18  21
ENDBRANCH  17  18
ENDBRANCH  16  17
ENDBRANCH  15  16
ENDBRANCH  13  15
ENDBRANCH   1  13
TORSDOF 8
