REMARK  Name = molecules/CVBHEIRZLPKMSH-SNWVVRALSA-N.pdb
REMARK                            x       y       z     vdW  Elec       q    Type
REMARK                         _______ _______ _______ _____ _____    ______ ____
ROOT
ATOM      1  C   LIG    1        0.440   0.588   0.499  0.00  0.00    +0.158 C 
ATOM      2  C   LIG    1       -0.106   1.767   1.295  0.00  0.00    +0.090 C 
ATOM      3  C   LIG    1        0.261   1.530   2.764  0.00  0.00    +0.044 C 
ATOM      4  C   LIG    1        0.532   3.073   0.874  0.00  0.00    +0.048 C 
ATOM      5  C   LIG    1       -0.515   4.196   0.933  0.00  0.00    +0.055 C 
ATOM      6  C   LIG    1        0.147   5.432   1.556  0.00  0.00    +0.015 C 
ATOM      7  C   LIG    1       -0.962   4.525  -0.420  0.00  0.00    +0.142 C 
ATOM      8  C   LIG    1       -2.347   5.019  -0.775  0.00  0.00    +0.084 C 
ATOM      9  C   LIG    1       -3.118   5.080   0.491  0.00  0.00    +0.018 C 
ATOM     10  C   LIG    1       -2.904   4.311  -1.927  0.00  0.00    +0.159 C 
ATOM     11  C   LIG    1       -4.248   3.699  -1.861  0.00  0.00    +0.126 C 
ATOM     12  C   LIG    1       -4.264   2.271  -1.283  0.00  0.00    +0.210 C 
ATOM     13  O   LIG    1       -3.182   1.627  -1.846  0.00  0.00    -0.458 OA
ATOM     14  C   LIG    1       -2.822   0.344  -2.031  0.00  0.00    +0.313 C 
ATOM     15  C   LIG    1       -2.639  -0.738  -1.066  0.00  0.00    +0.124 C 
ATOM     16  C   LIG    1       -3.557  -0.708   0.129  0.00  0.00    +0.022 C 
ATOM     17  C   LIG    1       -1.206  -0.961  -0.632  0.00  0.00    +0.140 C 
ATOM     18  O   LIG    1       -2.600   0.015  -3.265  0.00  0.00    -0.250 OA
ATOM     19  C   LIG    1       -4.713   3.520  -3.319  0.00  0.00    +0.048 C 
ATOM     20  O   LIG    1       -0.138   4.387  -1.336  0.00  0.00    -0.297 OA
ATOM     21  C   LIG    1       -0.373   0.293  -0.716  0.00  0.00    +0.047 C 
ATOM     22  C   LIG    1        0.580   0.107  -1.883  0.00  0.00    +0.013 C 
ENDROOT
BRANCH   2  23
ATOM     23  O   LIG    1       -1.462   1.920   1.222  0.00  0.00    -0.386 OA
ATOM     24  H   LIG    1       -1.801   2.339   0.418  0.00  0.00    +0.210 HD
ENDBRANCH   2  23
BRANCH  11  25
ATOM     25  O   LIG    1       -5.209   4.433  -1.231  0.00  0.00    -0.383 OA
ATOM     26  H   LIG    1       -5.650   5.111  -1.777  0.00  0.00    +0.210 HD
ENDBRANCH  11  25
BRANCH  12  27
ATOM     27  C   LIG    1       -5.595   1.676  -1.630  0.00  0.00    +0.044 C 
ATOM     28  C   LIG    1       -6.698   2.447  -0.941  0.00  0.00    +0.007 C 
ENDBRANCH  12  27
BRANCH  10  29
ATOM     29  O   LIG    1       -1.990   3.339  -2.378  0.00  0.00    -0.388 OA
ATOM     30  H   LIG    1       -1.436   3.622  -3.120  0.00  0.00    +0.210 HD
ENDBRANCH  10  29
BRANCH   1  31
ATOM     31  O   LIG    1        1.774   0.960   0.218  0.00  0.00    -0.341 OA
BRANCH  31  32
ATOM     32  C   LIG    1        2.685   0.201   0.899  0.00  0.00    +0.293 C 
ATOM     33  O   LIG    1        3.304   1.082   1.843  0.00  0.00    -0.345 OA
ATOM     34  C   LIG    1        3.930   0.329   2.832  0.00  0.00    +0.120 C 
ATOM     35  C   LIG    1        5.023   1.116   3.506  0.00  0.00    +0.038 C 
ATOM     36  C   LIG    1        4.392  -1.008   2.308  0.00  0.00    +0.054 C 
ATOM     37  C   LIG    1        4.864  -0.957   0.897  0.00  0.00    +0.104 C 
ATOM     38  C   LIG    1        3.796  -0.285   0.047  0.00  0.00    +0.249 C 
BRANCH  37  39
ATOM     39  N   LIG    1        6.127  -0.279   0.864  0.00  0.00    -0.302 NA
ATOM     40  C   LIG    1        7.045  -1.052   1.700  0.00  0.00    +0.105 C 
ATOM     41  C   LIG    1        6.728  -0.234  -0.453  0.00  0.00    +0.105 C 
ENDBRANCH  37  39
BRANCH  38  42
ATOM     42  O   LIG    1        3.462  -1.114  -1.020  0.00  0.00    -0.455 OA
BRANCH  42  43
ATOM     43  C   LIG    1        3.761  -0.833  -2.345  0.00  0.00    +0.304 C 
ATOM     44  O   LIG    1        4.369   0.233  -2.616  0.00  0.00    -0.251 OA
ATOM     45  C   LIG    1        3.382  -1.759  -3.464  0.00  0.00    +0.136 C 
ENDBRANCH  42  43
ENDBRANCH  38  42
ENDBRANCH  31  32
ENDBRANCH   1  31
BRANCH  17  46
ATOM     46  O   LIG    1       -0.638  -2.047  -1.298  0.00  0.00    -0.347 OA
BRANCH  46  47
ATOM     47  C   LIG    1       -0.358  -3.127  -0.477  0.00  0.00    +0.254 C 
ATOM     48  O   LIG    1        0.938  -3.575  -0.521  0.00  0.00    -0.346 OA
ATOM     49  C   LIG    1        1.149  -4.488   0.479  0.00  0.00    +0.149 C 
ATOM     50  C   LIG    1        1.189  -3.900   1.872  0.00  0.00    +0.041 C 
ATOM     51  C   LIG    1        0.247  -5.686   0.426  0.00  0.00    +0.175 C 
ATOM     52  C   LIG    1       -1.162  -5.364   0.020  0.00  0.00    +0.099 C 
ATOM     53  C   LIG    1       -2.075  -4.995   1.149  0.00  0.00    +0.044 C 
ATOM     54  C   LIG    1       -1.224  -4.274  -1.018  0.00  0.00    +0.098 C 
BRANCH  52  55
ATOM     55  O   LIG    1       -1.699  -6.548  -0.538  0.00  0.00    -0.374 OA
ATOM     56  C   LIG    1       -1.694  -7.588   0.383  0.00  0.00    +0.194 C 
ENDBRANCH  52  55
BRANCH  51  57
ATOM     57  O   LIG    1        0.801  -6.634  -0.451  0.00  0.00    -0.386 OA
ATOM     58  H   LIG    1        1.391  -6.246  -1.116  0.00  0.00    +0.210 HD
ENDBRANCH  51  57
ENDBRANCH  46  47
ENDBRANCH  17  46
TORSDOF 13
