REMARK  Name = molecules/CVBMAZKKCSYWQR-WCGOZPBSSA-N.pdb
REMARK                            x       y       z     vdW  Elec       q    Type
REMARK                         _______ _______ _______ _____ _____    ______ ____
ROOT
ATOM      1  C   LIG    1       -0.583  -0.291  -2.289  0.00  0.00    +0.133 C 
ATOM      2  C   LIG    1       -1.776   0.352  -1.672  0.00  0.00    +0.012 C 
ATOM      3  C   LIG    1       -2.328  -0.321  -0.454  0.00  0.00    +0.030 C 
ATOM      4  C   LIG    1       -3.174   0.508   0.435  0.00  0.00    +0.104 C 
ATOM      5  C   LIG    1       -4.372  -0.277   0.851  0.00  0.00    +0.038 A 
ATOM      6  C   LIG    1       -5.244   0.375   1.696  0.00  0.00    -0.016 A 
ATOM      7  C   LIG    1       -4.868   1.767   2.058  0.00  0.00    +0.053 C 
ATOM      8  C   LIG    1       -4.342   2.531   0.893  0.00  0.00    +0.090 C 
ATOM      9  C   LIG    1       -6.274  -0.502   1.971  0.00  0.00    +0.003 A 
ATOM     10  C   LIG    1       -7.385  -0.358   2.745  0.00  0.00    +0.010 A 
ATOM     11  C   LIG    1       -8.266  -1.428   2.836  0.00  0.00    +0.001 A 
ATOM     12  C   LIG    1       -8.010  -2.621   2.147  0.00  0.00    +0.002 A 
ATOM     13  C   LIG    1       -6.878  -2.745   1.369  0.00  0.00    +0.026 A 
ATOM     14  C   LIG    1       -6.007  -1.690   1.277  0.00  0.00    +0.047 A 
ATOM     15  N   LIG    1       -4.848  -1.509   0.614  0.00  0.00    -0.356 N 
ATOM     16  H   LIG    1       -4.429  -2.266   0.019  0.00  0.00    +0.166 HD
ATOM     17  N   LIG    1       -3.640   1.742  -0.097  0.00  0.00    -0.293 NA
ATOM     18  C   LIG    1       -2.744   2.514  -0.881  0.00  0.00    +0.089 C 
ATOM     19  C   LIG    1       -1.549   1.856  -1.449  0.00  0.00    +0.011 C 
ATOM     20  C   LIG    1       -0.277   2.141  -0.708  0.00  0.00    +0.052 C 
ATOM     21  C   LIG    1        0.864   1.608  -1.476  0.00  0.00    +0.206 C 
ATOM     22  C   LIG    1        0.518   0.658  -2.612  0.00  0.00    +0.172 C 
ENDROOT
BRANCH   1  23
ATOM     23  C   LIG    1       -0.059  -1.484  -1.621  0.00  0.00    +0.313 C 
ATOM     24  O   LIG    1        1.087  -1.402  -1.099  0.00  0.00    -0.250 OA
BRANCH  23  25
ATOM     25  O   LIG    1       -0.670  -2.701  -1.488  0.00  0.00    -0.468 OA
ATOM     26  C   LIG    1       -0.117  -3.830  -0.834  0.00  0.00    +0.280 C 
ENDBRANCH  23  25
ENDBRANCH   1  23
BRANCH  22  27
ATOM     27  O   LIG    1        0.243   1.341  -3.798  0.00  0.00    -0.375 OA
ATOM     28  C   LIG    1        1.196   1.133  -4.774  0.00  0.00    +0.194 C 
ENDBRANCH  22  27
BRANCH  21  29
ATOM     29  O   LIG    1        1.915   1.060  -0.681  0.00  0.00    -0.455 OA
BRANCH  29  30
ATOM     30  C   LIG    1        3.244   1.479  -0.801  0.00  0.00    +0.340 C 
ATOM     31  O   LIG    1        3.465   2.344  -1.645  0.00  0.00    -0.245 OA
BRANCH  30  32
ATOM     32  C   LIG    1        4.246   0.871   0.060  0.00  0.00    +0.066 A 
ATOM     33  C   LIG    1        3.939   0.010   1.084  0.00  0.00    +0.064 A 
ATOM     34  C   LIG    1        4.922  -0.593   1.859  0.00  0.00    +0.166 A 
ATOM     35  C   LIG    1        6.229  -0.335   1.611  0.00  0.00    +0.204 A 
ATOM     36  C   LIG    1        6.582   0.536   0.577  0.00  0.00    +0.166 A 
ATOM     37  C   LIG    1        5.586   1.118  -0.173  0.00  0.00    +0.064 A 
BRANCH  34  38
ATOM     38  O   LIG    1        4.569  -1.462   2.899  0.00  0.00    -0.491 OA
ATOM     39  C   LIG    1        3.188  -1.678   3.121  0.00  0.00    +0.277 C 
ENDBRANCH  34  38
BRANCH  35  40
ATOM     40  O   LIG    1        7.210  -0.943   2.387  0.00  0.00    -0.488 OA
ATOM     41  C   LIG    1        7.777  -2.185   1.994  0.00  0.00    +0.277 C 
ENDBRANCH  35  40
BRANCH  36  42
ATOM     42  O   LIG    1        7.934   0.736   0.397  0.00  0.00    -0.491 OA
ATOM     43  C   LIG    1        8.462   1.576  -0.617  0.00  0.00    +0.277 C 
ENDBRANCH  36  42
ENDBRANCH  30  32
ENDBRANCH  29  30
ENDBRANCH  21  29
TORSDOF 9
