REMARK  Name = molecules/CVHGCWVMTZWGAY-UHFFFAOYSA-N.pdb
REMARK                            x       y       z     vdW  Elec       q    Type
REMARK                         _______ _______ _______ _____ _____    ______ ____
ROOT
ATOM      1  C   LIG    1        3.045  -1.859  -0.843  0.00  0.00    -0.010 A 
ATOM      2  C   LIG    1        2.338  -2.724  -0.037  0.00  0.00    +0.007 A 
ATOM      3  C   LIG    1        0.962  -2.735   0.016  0.00  0.00    +0.004 A 
ATOM      4  C   LIG    1        0.220  -1.865  -0.749  0.00  0.00    -0.047 A 
ATOM      5  C   LIG    1        0.917  -0.987  -1.567  0.00  0.00    +0.004 A 
ATOM      6  C   LIG    1        2.297  -0.978  -1.618  0.00  0.00    +0.007 A 
ENDROOT
BRANCH   1   7
ATOM      7  C   LIG    1        4.530  -1.897  -0.854  0.00  0.00    +0.264 C 
BRANCH   7   8
ATOM      8  O   LIG    1        5.135  -0.792  -1.443  0.00  0.00    -0.487 OA
BRANCH   8   9
ATOM      9  C   LIG    1        4.962   0.471  -0.936  0.00  0.00    +0.121 A 
ATOM     10  C   LIG    1        4.201   0.706   0.180  0.00  0.00    +0.045 A 
ATOM     11  C   LIG    1        4.052   2.003   0.658  0.00  0.00    +0.004 A 
ATOM     12  C   LIG    1        4.670   3.044   0.011  0.00  0.00    +0.000 A 
ATOM     13  C   LIG    1        5.437   2.836  -1.106  0.00  0.00    +0.004 A 
ATOM     14  C   LIG    1        5.570   1.531  -1.565  0.00  0.00    +0.045 A 
ENDBRANCH   8   9
ENDBRANCH   7   8
ENDBRANCH   1   7
BRANCH   4  15
ATOM     15  C   LIG    1       -1.244  -1.807  -0.757  0.00  0.00    +0.036 C 
BRANCH  15  16
ATOM     16  C   LIG    1       -1.839  -0.873   0.243  0.00  0.00    +0.020 C 
BRANCH  16  17
ATOM     17  C   LIG    1       -3.341  -0.928   0.108  0.00  0.00    +0.085 C 
BRANCH  17  18
ATOM     18  N   LIG    1       -3.998  -0.028   1.067  0.00  0.00    -0.298 NA
ATOM     19  C   LIG    1       -3.459   1.283   0.992  0.00  0.00    +0.112 C 
ATOM     20  C   LIG    1       -4.421   2.394   1.243  0.00  0.00    +0.175 C 
ATOM     21  O   LIG    1       -5.587   2.150   0.492  0.00  0.00    -0.377 OA
ATOM     22  C   LIG    1       -6.209   1.060   1.132  0.00  0.00    +0.175 C 
ATOM     23  C   LIG    1       -5.398  -0.152   0.861  0.00  0.00    +0.112 C 
ENDBRANCH  17  18
ENDBRANCH  16  17
ENDBRANCH  15  16
ENDBRANCH   4  15
TORSDOF 7
