REMARK  Name = molecules/CVKNDPRBJVBDSS-CQSZACIVSA-N.pdb
REMARK                            x       y       z     vdW  Elec       q    Type
REMARK                         _______ _______ _______ _____ _____    ______ ____
ROOT
ATOM      1  C   LIG    1       -2.736   0.451   0.341  0.00  0.00    +0.143 A 
ATOM      2  C   LIG    1       -1.452   0.659   0.746  0.00  0.00    +0.029 A 
ATOM      3  C   LIG    1       -0.794   1.755   1.543  0.00  0.00    +0.200 C 
ATOM      4  O   LIG    1        0.540   1.679   1.143  0.00  0.00    -0.363 OA
ATOM      5  C   LIG    1        0.802   0.314   1.036  0.00  0.00    +0.181 C 
ATOM      6  C   LIG    1       -0.434  -0.218   0.445  0.00  0.00    +0.012 A 
ATOM      7  C   LIG    1       -0.785  -1.331  -0.299  0.00  0.00    +0.118 A 
ATOM      8  N   LIG    1       -2.055  -1.527  -0.694  0.00  0.00    -0.256 NA
ATOM      9  C   LIG    1       -3.051  -0.670  -0.399  0.00  0.00    +0.080 A 
ATOM     10  C   LIG    1       -4.449  -0.891  -0.838  0.00  0.00    +0.069 C 
ENDROOT
BRANCH   5  11
ATOM     11  C   LIG    1        2.003   0.029   0.245  0.00  0.00    -0.014 A 
ATOM     12  C   LIG    1        2.940  -0.889   0.662  0.00  0.00    +0.008 A 
ATOM     13  C   LIG    1        4.074  -1.158  -0.087  0.00  0.00    +0.020 A 
ATOM     14  C   LIG    1        4.309  -0.514  -1.283  0.00  0.00    +0.041 A 
ATOM     15  C   LIG    1        3.376   0.406  -1.707  0.00  0.00    +0.020 A 
ATOM     16 CL   LIG    1        5.755  -0.863  -2.229  0.00  0.00    -0.084 Cl
ATOM     17  C   LIG    1        2.238   0.669  -0.946  0.00  0.00    +0.008 A 
ENDBRANCH   5  11
BRANCH   1  18
ATOM     18  O   LIG    1       -3.735   1.366   0.669  0.00  0.00    -0.505 OA
ATOM     19  H   LIG    1       -3.583   2.191   1.196  0.00  0.00    +0.292 HD
ENDBRANCH   1  18
TORSDOF 2
