REMARK  Name = molecules/CVSVTCORWBXHQV-UHFFFAOYSA-N.pdb
REMARK                            x       y       z     vdW  Elec       q    Type
REMARK                         _______ _______ _______ _____ _____    ______ ____
ROOT
ATOM      1  N   LIG    1       -0.199  -0.191  -0.597  0.00  0.00    -0.255 N 
ATOM      2  C   LIG    1       -0.307  -1.451  -1.309  0.00  0.00    +0.243 C 
ENDROOT
BRANCH   1   3
ATOM      3  C   LIG    1       -1.348   0.253   0.095  0.00  0.00    +0.379 C 
ATOM      4  N   LIG    1       -1.652  -0.333   1.339  0.00  0.00    -0.289 N 
ATOM      5  H   LIG    1       -1.417   0.186   2.206  0.00  0.00    +0.255 HD
ATOM      6  H   LIG    1       -2.103  -1.262   1.449  0.00  0.00    +0.255 HD
BRANCH   3   7
ATOM      7  N   LIG    1       -2.067   1.170  -0.439  0.00  0.00    -0.130 NA
ATOM      8  H   LIG    1       -2.935   1.575  -0.020  0.00  0.00    +0.306 HD
ENDBRANCH   3   7
ENDBRANCH   1   3
BRANCH   1   9
ATOM      9  C   LIG    1        1.034   0.527  -0.627  0.00  0.00    +0.318 C 
BRANCH   9  10
ATOM     10  C   LIG    1        1.738   0.576   0.675  0.00  0.00    +0.339 C 
ATOM     11  O   LIG    1        1.274   0.021   1.694  0.00  0.00    -0.247 OA
BRANCH  10  12
ATOM     12  O   LIG    1        2.943   1.244   0.790  0.00  0.00    -0.478 OA
ATOM     13  H   LIG    1        3.398   1.391   1.689  0.00  0.00    +0.295 HD
ENDBRANCH  10  12
ENDBRANCH   9  10
ENDBRANCH   1   9
TORSDOF 5
