REMARK  Name = molecules/CWRVKFFCRWGWCS-UHFFFAOYSA-N.pdb
REMARK                            x       y       z     vdW  Elec       q    Type
REMARK                         _______ _______ _______ _____ _____    ______ ____
ROOT
ATOM      1  C   LIG    1       -1.549  -0.521   0.037  0.00  0.00    +0.002 C 
ATOM      2  C   LIG    1       -1.295   0.874  -0.477  0.00  0.00    +0.023 C 
ATOM      3  C   LIG    1       -0.277   1.563   0.387  0.00  0.00    +0.147 C 
ATOM      4  N   LIG    1        1.054   1.042   0.208  0.00  0.00    -0.229 N 
ATOM      5  C   LIG    1        1.448  -0.235   0.208  0.00  0.00    +0.151 A 
ATOM      6  C   LIG    1        0.661  -1.473   0.386  0.00  0.00    +0.078 C 
ATOM      7  N   LIG    1        2.769  -0.241   0.006  0.00  0.00    -0.113 NA
ATOM      8  N   LIG    1        3.191   0.987  -0.116  0.00  0.00    -0.023 NA
ATOM      9  N   LIG    1        2.135   1.775   0.009  0.00  0.00    -0.044 NA
ATOM     10  C   LIG    1       -0.526  -1.435  -0.584  0.00  0.00    +0.008 C 
ENDROOT
TORSDOF 0
