REMARK  Name = molecules/CWXYHOHYCJXYFQ-UHFFFAOYSA-N.pdb
REMARK                            x       y       z     vdW  Elec       q    Type
REMARK                         _______ _______ _______ _____ _____    ______ ____
ROOT
ATOM      1  C   LIG    1       -0.141   0.409   0.206  0.00  0.00    +0.244 C 
ATOM      2  N   LIG    1        0.774  -0.511   0.748  0.00  0.00    -0.311 N 
ATOM      3  H   LIG    1        0.403  -1.345   1.249  0.00  0.00    +0.149 HD
ATOM      4  O   LIG    1        0.302   1.416  -0.393  0.00  0.00    -0.270 OA
ENDROOT
BRANCH   1   5
ATOM      5  C   LIG    1       -1.578   0.228   0.316  0.00  0.00    +0.037 A 
ATOM      6  C   LIG    1       -2.169  -0.639   1.208  0.00  0.00    +0.013 A 
ATOM      7  C   LIG    1       -3.548  -0.756   1.254  0.00  0.00    +0.001 A 
ATOM      8  C   LIG    1       -4.375  -0.029   0.428  0.00  0.00    +0.000 A 
ATOM      9  C   LIG    1       -3.804   0.840  -0.466  0.00  0.00    +0.001 A 
ATOM     10  C   LIG    1       -2.435   0.965  -0.521  0.00  0.00    +0.013 A 
ENDBRANCH   1   5
BRANCH   2  11
ATOM     11  C   LIG    1        2.199  -0.352   0.641  0.00  0.00    +0.115 C 
BRANCH  11  12
ATOM     12  C   LIG    1        2.672  -0.292  -0.809  0.00  0.00    +0.139 C 
BRANCH  12  13
ATOM     13  C   LIG    1        4.134  -0.169  -0.737  0.00  0.00    +0.306 C 
ATOM     14  O   LIG    1        4.831  -1.187  -0.879  0.00  0.00    -0.251 OA
BRANCH  13  15
ATOM     15  O   LIG    1        4.725   1.048  -0.514  0.00  0.00    -0.481 OA
ATOM     16  H   LIG    1        5.462   1.196   0.176  0.00  0.00    +0.295 HD
ENDBRANCH  13  15
ENDBRANCH  12  13
ENDBRANCH  11  12
ENDBRANCH   2  11
TORSDOF 5
