REMARK  Name = molecules/CXOXHMZGEKVPMT-UHFFFAOYSA-N.pdb
REMARK                            x       y       z     vdW  Elec       q    Type
REMARK                         _______ _______ _______ _____ _____    ______ ____
ROOT
ATOM      1  C   LIG    1       -3.871  -0.733  -1.114  0.00  0.00    +0.138 C 
ATOM      2  N   LIG    1       -2.565  -0.892  -0.491  0.00  0.00    -0.272 N 
ATOM      3  C   LIG    1       -2.215  -2.202  -0.064  0.00  0.00    +0.228 C 
ATOM      4  C   LIG    1       -0.955  -2.708   0.525  0.00  0.00    +0.192 C 
ATOM      5  C   LIG    1        0.238  -1.977   0.065  0.00  0.00    +0.233 C 
ATOM      6  N   LIG    1        0.493  -0.585  -0.064  0.00  0.00    -0.238 N 
ATOM      7  C   LIG    1       -0.467   0.452  -0.223  0.00  0.00    +0.064 A 
ATOM      8  C   LIG    1        0.118   1.696  -0.167  0.00  0.00    +0.045 A 
ATOM      9  C   LIG    1       -0.669   2.819  -0.302  0.00  0.00    +0.043 A 
ATOM     10 CL   LIG    1        0.100   4.393  -0.228  0.00  0.00    -0.083 Cl
ATOM     11  C   LIG    1       -2.031   2.731  -0.492  0.00  0.00    +0.022 A 
ATOM     12  C   LIG    1       -2.595   1.463  -0.544  0.00  0.00    +0.027 A 
ATOM     13  O   LIG    1        1.201  -2.710  -0.272  0.00  0.00    -0.274 OA
ATOM     14  O   LIG    1       -3.105  -3.079  -0.203  0.00  0.00    -0.275 OA
ATOM     15  C   LIG    1       -1.834   0.338  -0.412  0.00  0.00    +0.058 A 
ENDROOT
BRANCH   6  16
ATOM     16  C   LIG    1        1.866  -0.185  -0.027  0.00  0.00    +0.041 A 
ATOM     17  C   LIG    1        2.537  -0.054   1.172  0.00  0.00    +0.024 A 
ATOM     18  C   LIG    1        3.860   0.331   1.232  0.00  0.00    +0.002 A 
ATOM     19  C   LIG    1        4.583   0.607   0.091  0.00  0.00    +0.000 A 
ATOM     20  C   LIG    1        3.909   0.475  -1.104  0.00  0.00    +0.002 A 
ATOM     21  C   LIG    1        2.587   0.090  -1.171  0.00  0.00    +0.024 A 
ENDBRANCH   6  16
TORSDOF 1
