REMARK  Name = molecules/CXQGFLBVUNUQIA-UHFFFAOYSA-N.pdb
REMARK                            x       y       z     vdW  Elec       q    Type
REMARK                         _______ _______ _______ _____ _____    ______ ____
ROOT
ATOM      1  C   LIG    1       -1.626  -0.320   0.559  0.00  0.00    +0.200 C 
ATOM      2  C   LIG    1       -2.496  -1.426   0.000  0.00  0.00    +0.067 C 
ATOM      3  C   LIG    1       -1.168   0.524  -0.607  0.00  0.00    +0.067 C 
ENDROOT
BRANCH   1   4
ATOM      4  C   LIG    1       -0.420  -0.989   1.167  0.00  0.00    +0.351 C 
ATOM      5  O   LIG    1       -0.121  -0.841   2.379  0.00  0.00    -0.246 OA
BRANCH   4   6
ATOM      6  O   LIG    1        0.408  -1.798   0.404  0.00  0.00    -0.462 OA
BRANCH   6   7
ATOM      7  C   LIG    1        1.540  -2.435   0.945  0.00  0.00    +0.233 C 
BRANCH   7   8
ATOM      8  C   LIG    1        2.557  -1.498   1.506  0.00  0.00    +0.050 C 
BRANCH   8   9
ATOM      9  C   LIG    1        3.124  -0.515   0.521  0.00  0.00    +0.099 C 
BRANCH   9  10
ATOM     10  C   LIG    1        3.823  -1.108  -0.616  0.00  0.00    +0.215 C 
ATOM     11  O   LIG    1        3.971  -2.347  -0.684  0.00  0.00    -0.276 OA
ATOM     12  N   LIG    1        4.348  -0.276  -1.665  0.00  0.00    -0.308 N 
ATOM     13  C   LIG    1        4.184   1.159  -1.600  0.00  0.00    +0.131 C 
ATOM     14  C   LIG    1        5.039  -0.873  -2.785  0.00  0.00    +0.131 C 
ENDBRANCH   9  10
ENDBRANCH   8   9
ENDBRANCH   7   8
ENDBRANCH   6   7
ENDBRANCH   4   6
ENDBRANCH   1   4
BRANCH   1  15
ATOM     15  O   LIG    1       -2.246   0.414   1.566  0.00  0.00    -0.475 OA
BRANCH  15  16
ATOM     16  C   LIG    1       -3.381   1.175   1.435  0.00  0.00    +0.122 A 
ATOM     17  C   LIG    1       -4.625   0.616   1.648  0.00  0.00    +0.047 A 
ATOM     18  C   LIG    1       -5.790   1.351   1.525  0.00  0.00    +0.023 A 
ATOM     19  C   LIG    1       -5.750   2.687   1.181  0.00  0.00    +0.041 A 
ATOM     20 CL   LIG    1       -7.225   3.633   1.021  0.00  0.00    -0.084 Cl
ATOM     21  C   LIG    1       -4.511   3.251   0.966  0.00  0.00    +0.023 A 
ATOM     22  C   LIG    1       -3.350   2.511   1.090  0.00  0.00    +0.047 A 
ENDBRANCH  15  16
ENDBRANCH   1  15
TORSDOF 8
