REMARK  Name = molecules/CYLWJCABXYDINA-SNVBAGLBSA-N.pdb
REMARK                            x       y       z     vdW  Elec       q    Type
REMARK                         _______ _______ _______ _____ _____    ______ ____
ROOT
ATOM      1  O   LIG    1       -0.782   0.233   3.200  0.00  0.00    -0.153 OA
ATOM      2  S   LIG    1       -0.414  -0.623   2.047  0.00  0.00    +0.064 S 
ATOM      3  O   LIG    1       -0.360  -2.075   2.388  0.00  0.00    -0.153 OA
ATOM      4  N   LIG    1        1.150  -0.134   1.430  0.00  0.00    -0.159 NA
ATOM      5  C   LIG    1        1.028   1.288   1.111  0.00  0.00    +0.134 C 
ATOM      6  C   LIG    1        1.278  -0.835   0.161  0.00  0.00    +0.172 C 
ATOM      7  N   LIG    1        0.398  -0.272  -0.825  0.00  0.00    -0.325 N 
ATOM      8  C   LIG    1       -1.004  -0.277  -0.569  0.00  0.00    +0.056 A 
ATOM      9  C   LIG    1       -1.850  -0.121  -1.651  0.00  0.00    +0.047 A 
ATOM     10  C   LIG    1       -3.228  -0.118  -1.461  0.00  0.00    +0.069 A 
ATOM     11  C   LIG    1       -3.750  -0.270  -0.195  0.00  0.00    +0.125 A 
ATOM     12  C   LIG    1       -2.894  -0.422   0.855  0.00  0.00    +0.060 A 
ATOM     13 CL   LIG    1       -4.320   0.077  -2.817  0.00  0.00    -0.081 Cl
ATOM     14  H   LIG    1        0.801   0.118  -1.688  0.00  0.00    +0.148 HD
ATOM     15  C   LIG    1       -1.526  -0.429   0.697  0.00  0.00    +0.128 A 
ENDROOT
BRANCH  11  16
ATOM     16  S   LIG    1       -5.503  -0.261   0.009  0.00  0.00    +0.057 S 
ATOM     17  O   LIG    1       -5.866  -0.413   1.458  0.00  0.00    -0.153 OA
ATOM     18  O   LIG    1       -6.045  -1.424  -0.732  0.00  0.00    -0.153 OA
BRANCH  16  19
ATOM     19  N   LIG    1       -6.157   1.237  -0.542  0.00  0.00    -0.203 NA
ATOM     20  H   LIG    1       -5.831   2.041   0.001  0.00  0.00    +0.144 HD
ATOM     21  H   LIG    1       -7.159   1.193  -0.744  0.00  0.00    +0.144 HD
ENDBRANCH  16  19
ENDBRANCH  11  16
BRANCH   6  22
ATOM     22  C   LIG    1        2.695  -0.938  -0.299  0.00  0.00    +0.109 C 
BRANCH  22  23
ATOM     23  S   LIG    1        3.448   0.679  -0.532  0.00  0.00    -0.149 S 
BRANCH  23  24
ATOM     24  C   LIG    1        5.147   0.539  -1.086  0.00  0.00    +0.182 C 
BRANCH  24  25
ATOM     25  C   LIG    1        5.976  -0.087   0.026  0.00  0.00    +0.399 C 
ATOM     26  F   LIG    1        5.885   0.746   1.127  0.00  0.00    -0.170 F 
ATOM     27  F   LIG    1        5.572  -1.375   0.312  0.00  0.00    -0.170 F 
ATOM     28  F   LIG    1        7.313  -0.100  -0.338  0.00  0.00    -0.170 F 
ENDBRANCH  24  25
ENDBRANCH  23  24
ENDBRANCH  22  23
ENDBRANCH   6  22
TORSDOF 6
