REMARK  Name = molecules/CYTYCFOTNPOANT-UHFFFAOYSA-N.pdb
REMARK                            x       y       z     vdW  Elec       q    Type
REMARK                         _______ _______ _______ _____ _____    ______ ____
ROOT
ATOM      1 CL   LIG    1        1.287   1.716   0.155  0.00  0.00    -0.068 Cl
ATOM      2  C   LIG    1        0.624   0.095   0.094  0.00  0.00    +0.136 C 
ATOM      3 CL   LIG    1        1.750  -1.234   0.302  0.00  0.00    -0.068 Cl
ATOM      4  C   LIG    1       -0.645  -0.109  -0.097  0.00  0.00    +0.136 C 
ATOM      5 CL   LIG    1       -1.302  -1.719  -0.157  0.00  0.00    -0.068 Cl
ATOM      6 CL   LIG    1       -1.715   1.250  -0.297  0.00  0.00    -0.068 Cl
ENDROOT
TORSDOF 0
