REMARK  Name = molecules/CYZWCBZIBJLKCV-OALRPVAKSA-N.pdb
REMARK                            x       y       z     vdW  Elec       q    Type
REMARK                         _______ _______ _______ _____ _____    ______ ____
ROOT
ATOM      1  C   LIG    1        1.971   0.004   0.230  0.00  0.00    +0.240 C 
ATOM      2  O   LIG    1        2.924   0.815   0.518  0.00  0.00    -0.271 OA
ATOM      3  N   LIG    1        0.638   0.567   0.133  0.00  0.00    -0.286 N 
ENDROOT
BRANCH   1   6
ATOM      4  C   LIG    1        3.874  -3.188  -0.064  0.00  0.00    +0.035 C 
ATOM      5  C   LIG    1        3.545  -1.775   0.141  0.00  0.00    -0.025 C 
ATOM      6  C   LIG    1        2.253  -1.383   0.022  0.00  0.00    +0.063 C 
ENDBRANCH   1   6
BRANCH   3   7
ATOM      7  C   LIG    1        0.578   1.977   0.457  0.00  0.00    +0.108 C 
BRANCH   7   8
ATOM      8  C   LIG    1        0.935   2.883  -0.689  0.00  0.00    +0.016 C 
ATOM      9  C   LIG    1        0.814   4.337  -0.282  0.00  0.00    +0.005 C 
ENDBRANCH   7   8
ENDBRANCH   3   7
BRANCH   3  10
ATOM     10  C   LIG    1       -0.435  -0.311  -0.195  0.00  0.00    +0.162 C 
BRANCH  10  11
ATOM     11  C   LIG    1       -1.382  -0.434   0.980  0.00  0.00    +0.236 C 
ATOM     12  O   LIG    1       -1.267   0.390   1.906  0.00  0.00    -0.274 OA
ATOM     13  N   LIG    1       -2.345  -1.435   1.021  0.00  0.00    -0.306 N 
ATOM     14  C   LIG    1       -3.258  -1.474   2.175  0.00  0.00    +0.131 C 
ATOM     15  C   LIG    1       -2.522  -2.468   0.039  0.00  0.00    +0.131 C 
ENDBRANCH  10  11
BRANCH  10  16
ATOM     16  C   LIG    1       -1.157   0.051  -1.430  0.00  0.00    +0.028 C 
ATOM     17  C   LIG    1       -1.899   1.323  -1.523  0.00  0.00    +0.006 C 
ENDBRANCH  10  16
ENDBRANCH   3  10
TORSDOF 6
