REMARK  Name = molecules/CZTQZXZIADLWOZ-CRAIPNDOSA-N.pdb
REMARK                            x       y       z     vdW  Elec       q    Type
REMARK                         _______ _______ _______ _____ _____    ______ ____
ROOT
ATOM      1  CA  LIG    1        1.760   0.287   2.077  0.00  0.00    +0.128 C 
ATOM      2  N   LIG    1        0.321   0.422   2.136  0.00  0.00    -0.249 N 
ATOM      3  C   LIG    1       -0.560  -0.721   2.230  0.00  0.00    +0.169 C 
ATOM      4  CA  LIG    1       -1.643   0.236   1.780  0.00  0.00    +0.191 C 
ATOM      5  S   LIG    1       -0.029  -1.954   1.052  0.00  0.00    -0.131 S 
ATOM      6  C   LIG    1        1.417  -1.271   0.200  0.00  0.00    +0.105 C 
ATOM      7  C   LIG    1       -0.733   1.374   2.141  0.00  0.00    +0.244 C 
ATOM      8  O   LIG    1       -0.967   2.589   2.329  0.00  0.00    -0.273 OA
ATOM      9  C   LIG    1        2.312  -0.530   1.185  0.00  0.00    -0.014 C 
ENDROOT
BRANCH   4  10
ATOM     10  N   LIG    1       -1.946   0.257   0.387  0.00  0.00    -0.301 N 
ATOM     11  C   LIG    1       -3.299   0.239  -0.031  0.00  0.00    +0.219 C 
ATOM     12  O   LIG    1       -4.239   0.205   0.819  0.00  0.00    -0.275 OA
ATOM     13  H   LIG    1       -1.199   0.285  -0.336  0.00  0.00    +0.150 HD
BRANCH  11  14
ATOM     14  C   LIG    1       -3.693   0.258  -1.464  0.00  0.00    +0.138 C 
BRANCH  14  15
ATOM     15  C   LIG    1       -5.196   0.232  -1.605  0.00  0.00    -0.001 A 
ATOM     16  S   LIG    1       -6.305   1.526  -1.683  0.00  0.00    -0.101 S 
ATOM     17  C   LIG    1       -7.752   0.638  -1.837  0.00  0.00    +0.045 A 
ATOM     18  C   LIG    1       -7.319  -0.659  -1.823  0.00  0.00    +0.008 A 
ATOM     19  C   LIG    1       -6.004  -0.871  -1.704  0.00  0.00    +0.011 A 
ENDBRANCH  14  15
ENDBRANCH  11  14
ENDBRANCH   4  10
BRANCH   1  20
ATOM     20  C   LIG    1        2.519   1.067   3.021  0.00  0.00    +0.401 C 
ATOM     21  OXT LIG    1        1.885   1.904   3.927  0.00  0.00    -0.239 OA
ATOM     22  O   LIG    1        3.753   1.048   3.085  0.00  0.00    -0.239 OA
ENDBRANCH   1  20
BRANCH   9  23
ATOM     23  C   LIG    1        3.767  -0.726   1.079  0.00  0.00    +0.143 C 
BRANCH  23  24
ATOM     24  N   LIG    1        4.320  -0.297  -0.203  0.00  0.00    -0.309 N 
ATOM     25  C   LIG    1        4.712   0.972  -0.408  0.00  0.00    +0.071 C 
ATOM     26  C   LIG    1        5.226   1.402  -1.620  0.00  0.00    -0.003 C 
ATOM     27  C   LIG    1        5.346   0.501  -2.662  0.00  0.00    +0.047 C 
ATOM     28  C   LIG    1        4.947  -0.791  -2.450  0.00  0.00    -0.003 C 
ATOM     29  C   LIG    1        4.431  -1.175  -1.202  0.00  0.00    +0.071 C 
ENDBRANCH  23  24
ENDBRANCH   9  23
TORSDOF 6
