REMARK  Name = molecules/CZWCKYRVOZZJNM-USOAJAOKSA-N.pdb
REMARK                            x       y       z     vdW  Elec       q    Type
REMARK                         _______ _______ _______ _____ _____    ______ ____
ROOT
ATOM      1  C   LIG    1        0.329  -1.657   1.332  0.00  0.00    +0.016 C 
ATOM      2  C   LIG    1        0.709  -0.852   0.107  0.00  0.00    -0.008 C 
ATOM      3  C   LIG    1        1.529   0.287   0.599  0.00  0.00    -0.065 C 
ATOM      4  C   LIG    1        2.861  -0.046   1.145  0.00  0.00    +0.065 C 
ATOM      5  C   LIG    1        3.702  -0.470  -0.068  0.00  0.00    +0.156 C 
ATOM      6  C   LIG    1        2.862  -1.014  -1.166  0.00  0.00    +0.035 C 
ATOM      7  C   LIG    1        1.140   1.544   0.573  0.00  0.00    -0.027 C 
ATOM      8  C   LIG    1       -0.165   1.978   0.049  0.00  0.00    +0.031 C 
ATOM      9  C   LIG    1       -1.112   0.774   0.171  0.00  0.00    +0.001 C 
ATOM     10  C   LIG    1       -2.421   1.217  -0.367  0.00  0.00    +0.006 C 
ATOM     11  C   LIG    1       -3.294   1.985   0.553  0.00  0.00    +0.012 C 
ATOM     12  C   LIG    1       -4.658   1.903  -0.148  0.00  0.00    +0.075 C 
ATOM     13  C   LIG    1       -4.559   0.723  -1.053  0.00  0.00    +0.139 C 
ATOM     14  O   LIG    1       -5.370   0.449  -1.918  0.00  0.00    -0.297 OA
ATOM     15  C   LIG    1       -3.335   0.019  -0.677  0.00  0.00    +0.029 C 
ATOM     16  C   LIG    1       -3.545  -0.777   0.591  0.00  0.00    +0.019 C 
ATOM     17  C   LIG    1       -2.644  -0.749  -1.745  0.00  0.00    +0.015 C 
ATOM     18  C   LIG    1       -1.426  -1.399  -1.069  0.00  0.00    +0.005 C 
ATOM     19  C   LIG    1       -0.488  -0.330  -0.631  0.00  0.00    +0.003 C 
ATOM     20  C   LIG    1        1.611  -1.732  -0.733  0.00  0.00    +0.014 C 
ENDROOT
BRANCH   5  21
ATOM     21  O   LIG    1        4.752  -1.269   0.303  0.00  0.00    -0.212 OA
BRANCH  21  22
ATOM     22  S   LIG    1        6.197  -0.461   0.035  0.00  0.00    +0.208 S 
ATOM     23  O   LIG    1        7.118  -0.552   1.217  0.00  0.00    -0.118 OA
ATOM     24  O   LIG    1        6.902  -1.014  -1.183  0.00  0.00    -0.118 OA
BRANCH  22  25
ATOM     25  O   LIG    1        5.911   1.178  -0.306  0.00  0.00    -0.231 OA
ATOM     26  H   LIG    1        5.613   1.664   0.502  0.00  0.00    +0.247 HD
ENDBRANCH  22  25
ENDBRANCH  21  22
ENDBRANCH   5  21
TORSDOF 3
