REMARK  Name = molecules/DAFYYTQWSAWIGS-DEOSSOPVSA-N.pdb
REMARK                            x       y       z     vdW  Elec       q    Type
REMARK                         _______ _______ _______ _____ _____    ______ ____
ROOT
ATOM      1  C   LIG    1       -1.344  -0.181  -0.767  0.00  0.00    +0.081 C 
ENDROOT
BRANCH   1   2
ATOM      2  N   LIG    1       -2.212  -0.093   0.360  0.00  0.00    -0.313 NA
ATOM      3  H   LIG    1       -2.232   0.909   0.668  0.00  0.00    +0.122 HD
BRANCH   2   4
ATOM      4  C   LIG    1       -3.584  -0.445   0.042  0.00  0.00    +0.117 C 
BRANCH   4   5
ATOM      5  C   LIG    1       -4.264   0.554  -0.869  0.00  0.00    +0.158 C 
BRANCH   5   6
ATOM      6  C   LIG    1       -5.668   0.030  -1.039  0.00  0.00    -0.017 A 
ATOM      7  C   LIG    1       -6.558   0.090   0.006  0.00  0.00    +0.015 A 
ATOM      8  C   LIG    1       -7.855  -0.366  -0.056  0.00  0.00    +0.020 A 
ATOM      9  C   LIG    1       -8.259  -0.916  -1.266  0.00  0.00    +0.122 A 
ATOM     10  C   LIG    1       -7.373  -0.984  -2.330  0.00  0.00    +0.046 A 
ATOM     11  C   LIG    1       -6.091  -0.519  -2.227  0.00  0.00    +0.010 A 
BRANCH   9  12
ATOM     12  O   LIG    1       -9.552  -1.393  -1.393  0.00  0.00    -0.506 OA
ATOM     13  H   LIG    1      -10.194  -1.345  -0.628  0.00  0.00    +0.292 HD
ENDBRANCH   9  12
BRANCH   8  14
ATOM     14  C   LIG    1       -8.787  -0.283   1.107  0.00  0.00    +0.194 C 
BRANCH  14  15
ATOM     15  O   LIG    1       -8.073   0.315   2.155  0.00  0.00    -0.390 OA
ATOM     16  H   LIG    1       -7.977   1.293   1.986  0.00  0.00    +0.210 HD
ENDBRANCH  14  15
ENDBRANCH   8  14
ENDBRANCH   5   6
BRANCH   5  17
ATOM     17  O   LIG    1       -4.301   1.810  -0.267  0.00  0.00    -0.386 OA
ATOM     18  H   LIG    1       -4.623   2.466  -0.935  0.00  0.00    +0.210 HD
ENDBRANCH   5  17
ENDBRANCH   4   5
ENDBRANCH   2   4
ENDBRANCH   1   2
BRANCH   1  19
ATOM     19  C   LIG    1        0.098   0.083  -0.293  0.00  0.00    +0.015 C 
BRANCH  19  20
ATOM     20  C   LIG    1        0.241   1.440   0.304  0.00  0.00    +0.001 C 
BRANCH  20  21
ATOM     21  C   LIG    1        1.629   1.708   0.777  0.00  0.00    +0.002 C 
BRANCH  21  22
ATOM     22  C   LIG    1        2.155   0.933   1.889  0.00  0.00    +0.028 C 
BRANCH  22  23
ATOM     23  C   LIG    1        2.292  -0.524   1.930  0.00  0.00    +0.160 C 
BRANCH  23  24
ATOM     24  O   LIG    1        2.997  -1.230   1.149  0.00  0.00    -0.377 OA
BRANCH  24  25
ATOM     25  C   LIG    1        3.260  -1.606  -0.040  0.00  0.00    +0.188 C 
BRANCH  25  26
ATOM     26  C   LIG    1        3.776  -0.657  -1.097  0.00  0.00    +0.188 C 
BRANCH  26  27
ATOM     27  O   LIG    1        4.958  -0.046  -0.785  0.00  0.00    -0.373 OA
BRANCH  27  28
ATOM     28  C   LIG    1        6.010  -0.924  -0.590  0.00  0.00    +0.198 C 
BRANCH  28  29
ATOM     29  C   LIG    1        7.273  -0.235  -0.249  0.00  0.00    +0.015 A 
ATOM     30  C   LIG    1        8.415  -0.980  -0.033  0.00  0.00    +0.048 A 
ATOM     31  C   LIG    1        9.638  -0.434   0.293  0.00  0.00    +0.020 A 
ATOM     32  C   LIG    1        9.729   0.940   0.412  0.00  0.00    +0.003 A 
ATOM     33  C   LIG    1        8.594   1.716   0.201  0.00  0.00    +0.020 A 
ATOM     34 CL   LIG    1        8.300  -2.728  -0.186  0.00  0.00    -0.083 Cl
ATOM     35  C   LIG    1        7.379   1.142  -0.126  0.00  0.00    +0.048 A 
ATOM     36 CL   LIG    1        5.939   2.087  -0.396  0.00  0.00    -0.083 Cl
ENDBRANCH  28  29
ENDBRANCH  27  28
ENDBRANCH  26  27
ENDBRANCH  25  26
ENDBRANCH  24  25
ENDBRANCH  23  24
ENDBRANCH  22  23
ENDBRANCH  21  22
ENDBRANCH  20  21
ENDBRANCH  19  20
ENDBRANCH   1  19
TORSDOF 19
