REMARK  Name = molecules/DALKLAYLIPSCQL-YPYQNWSCSA-N.pdb
REMARK                            x       y       z     vdW  Elec       q    Type
REMARK                         _______ _______ _______ _____ _____    ______ ____
ROOT
ATOM      1  C   LIG    1       -1.987   0.448   0.028  0.00  0.00    +0.180 C 
ATOM      2  C   LIG    1       -0.529   0.928   0.160  0.00  0.00    +0.020 C 
ATOM      3  C   LIG    1        0.052   0.575   1.479  0.00  0.00    +0.043 C 
ATOM      4  C   LIG    1        1.558   0.602   1.450  0.00  0.00    +0.120 C 
ATOM      5  C   LIG    1        2.116  -0.240   0.326  0.00  0.00    +0.035 C 
ATOM      6  C   LIG    1        3.619  -0.218   0.309  0.00  0.00    +0.013 C 
ATOM      7  C   LIG    1        4.205  -0.820   1.491  0.00  0.00    -0.012 C 
ATOM      8  C   LIG    1        5.132  -1.753   1.512  0.00  0.00    +0.047 C 
ATOM      9  C   LIG    1        5.656  -2.273   0.264  0.00  0.00    +0.179 C 
ATOM     10  O   LIG    1        6.543  -3.160   0.232  0.00  0.00    -0.288 OA
ATOM     11  C   LIG    1        5.074  -1.688  -0.957  0.00  0.00    +0.051 C 
ATOM     12  C   LIG    1        4.109   1.257   0.332  0.00  0.00    +0.020 C 
ATOM     13  C   LIG    1        4.158  -0.769  -0.933  0.00  0.00    -0.053 C 
ATOM     14  C   LIG    1        3.578  -0.299  -2.246  0.00  0.00    +0.013 C 
ATOM     15  C   LIG    1        2.099  -0.671  -2.107  0.00  0.00    +0.012 C 
ATOM     16  C   LIG    1        4.235  -0.925  -3.417  0.00  0.00    +0.012 C 
ATOM     17  C   LIG    1        1.528   0.192  -1.014  0.00  0.00    -0.000 C 
ATOM     18  C   LIG    1       -0.470   2.351  -0.238  0.00  0.00    +0.016 C 
ATOM     19  C   LIG    1        0.052  -0.009  -0.880  0.00  0.00    +0.003 C 
ATOM     20  C   LIG    1       -0.769   0.352  -2.070  0.00  0.00    +0.009 C 
ATOM     21  C   LIG    1       -2.163   0.562  -1.451  0.00  0.00    +0.057 C 
ENDROOT
BRANCH   1  22
ATOM     22  C   LIG    1       -2.934   1.092   0.894  0.00  0.00    +0.214 C 
ATOM     23  O   LIG    1       -3.542   0.358   1.710  0.00  0.00    -0.289 OA
BRANCH  22  24
ATOM     24  C   LIG    1       -3.333   2.510   0.997  0.00  0.00    +0.310 C 
BRANCH  24  25
ATOM     25  O   LIG    1       -4.396   2.684   1.953  0.00  0.00    -0.457 OA
BRANCH  25  26
ATOM     26  C   LIG    1       -5.598   2.033   1.717  0.00  0.00    +0.304 C 
ATOM     27  C   LIG    1       -6.681   2.225   2.721  0.00  0.00    +0.136 C 
ATOM     28  O   LIG    1       -5.774   1.317   0.710  0.00  0.00    -0.251 OA
ENDBRANCH  25  26
ENDBRANCH  24  25
ENDBRANCH  22  24
ENDBRANCH   1  22
BRANCH   4  29
ATOM     29  O   LIG    1        1.928   1.943   1.365  0.00  0.00    -0.391 OA
ATOM     30  H   LIG    1        2.101   2.259   2.295  0.00  0.00    +0.210 HD
ENDBRANCH   4  29
BRANCH   1  31
ATOM     31  O   LIG    1       -1.986  -0.968   0.303  0.00  0.00    -0.450 OA
BRANCH  31  32
ATOM     32  C   LIG    1       -3.155  -1.681   0.127  0.00  0.00    +0.308 C 
ATOM     33  O   LIG    1       -4.230  -1.167  -0.265  0.00  0.00    -0.251 OA
BRANCH  32  34
ATOM     34  C   LIG    1       -3.200  -3.165   0.406  0.00  0.00    +0.117 C 
ATOM     35  C   LIG    1       -4.584  -3.705   0.137  0.00  0.00    +0.015 C 
ENDBRANCH  32  34
ENDBRANCH  31  32
ENDBRANCH   1  31
TORSDOF 8
