REMARK  Name = molecules/DB00738.pdb
REMARK                            x       y       z     vdW  Elec       q    Type
REMARK                         _______ _______ _______ _____ _____    ______ ____
ROOT
ATOM      1  C   LIG    1       -0.287  -1.617   2.491  0.00  0.00    +0.007 C 
ENDROOT
BRANCH   1   2
ATOM      2  C   LIG    1       -1.018  -0.551   1.685  0.00  0.00    +0.041 C 
BRANCH   2   3
ATOM      3  C   LIG    1       -2.039   0.076   2.578  0.00  0.00    +0.229 C 
BRANCH   3   4
ATOM      4  O   LIG    1       -2.814   1.065   2.038  0.00  0.00    -0.492 OA
BRANCH   4   5
ATOM      5  C   LIG    1       -3.700   0.995   1.046  0.00  0.00    +0.121 A 
ATOM      6  C   LIG    1       -4.338   2.184   0.665  0.00  0.00    +0.046 A 
ATOM      7  C   LIG    1       -5.269   2.194  -0.350  0.00  0.00    +0.019 A 
ATOM      8  C   LIG    1       -5.619   1.056  -1.037  0.00  0.00    +0.065 A 
ATOM      9  C   LIG    1       -4.969  -0.115  -0.639  0.00  0.00    +0.019 A 
ATOM     10  C   LIG    1       -4.034  -0.142   0.378  0.00  0.00    +0.046 A 
BRANCH   8  11
ATOM     11  C   LIG    1       -6.589   1.008  -2.111  0.00  0.00    +0.306 C 
ATOM     12  N   LIG    1       -6.879  -0.215  -2.756  0.00  0.00    -0.286 N 
ATOM     13  H   LIG    1       -7.517  -0.893  -2.305  0.00  0.00    +0.301 HD
ATOM     14  H   LIG    1       -6.454  -0.432  -3.673  0.00  0.00    +0.301 HD
BRANCH  11  15
ATOM     15  N   LIG    1       -7.207   2.051  -2.508  0.00  0.00    -0.069 NA
ATOM     16  H   LIG    1       -7.087   2.983  -2.128  0.00  0.00    +0.348 HD
ENDBRANCH  11  15
ENDBRANCH   8  11
ENDBRANCH   4   5
ENDBRANCH   3   4
ENDBRANCH   2   3
ENDBRANCH   1   2
BRANCH   1  17
ATOM     17  C   LIG    1        0.739  -2.283   1.637  0.00  0.00    +0.041 C 
BRANCH  17  18
ATOM     18  C   LIG    1        1.736  -1.268   1.152  0.00  0.00    +0.229 C 
BRANCH  18  19
ATOM     19  O   LIG    1        2.686  -1.989   0.353  0.00  0.00    -0.492 OA
BRANCH  19  20
ATOM     20  C   LIG    1        3.716  -1.276  -0.214  0.00  0.00    +0.121 A 
ATOM     21  C   LIG    1        3.822   0.084  -0.016  0.00  0.00    +0.046 A 
ATOM     22  C   LIG    1        4.853   0.775  -0.589  0.00  0.00    +0.019 A 
ATOM     23  C   LIG    1        5.826   0.174  -1.379  0.00  0.00    +0.065 A 
ATOM     24  C   LIG    1        5.698  -1.181  -1.561  0.00  0.00    +0.019 A 
ATOM     25  C   LIG    1        4.672  -1.906  -0.999  0.00  0.00    +0.046 A 
BRANCH  23  26
ATOM     26  C   LIG    1        6.909   0.966  -1.968  0.00  0.00    +0.306 C 
ATOM     27  N   LIG    1        6.949   2.356  -1.718  0.00  0.00    -0.286 N 
ATOM     28  H   LIG    1        7.331   2.729  -0.836  0.00  0.00    +0.301 HD
ATOM     29  H   LIG    1        6.586   3.005  -2.436  0.00  0.00    +0.301 HD
BRANCH  26  30
ATOM     30  N   LIG    1        7.828   0.451  -2.704  0.00  0.00    -0.069 NA
ATOM     31  H   LIG    1        7.888  -0.548  -2.944  0.00  0.00    +0.348 HD
ENDBRANCH  26  30
ENDBRANCH  23  26
ENDBRANCH  19  20
ENDBRANCH  18  19
ENDBRANCH  17  18
ENDBRANCH   1  17
TORSDOF 12
