REMARK  Name = molecules/DB01103.pdb
REMARK                            x       y       z     vdW  Elec       q    Type
REMARK                         _______ _______ _______ _____ _____    ______ ____
ROOT
ATOM      1 CL   LIG    1       -5.093  -6.035  -0.302  0.00  0.00    -0.083 Cl
ATOM      2  C   LIG    1       -4.252  -4.493  -0.081  0.00  0.00    +0.043 A 
ATOM      3  C   LIG    1       -2.948  -4.481   0.372  0.00  0.00    +0.021 A 
ATOM      4  C   LIG    1       -2.256  -3.301   0.556  0.00  0.00    +0.013 A 
ATOM      5  C   LIG    1       -2.897  -2.117   0.274  0.00  0.00    +0.022 A 
ATOM      6  C   LIG    1       -2.264  -0.867   0.433  0.00  0.00    +0.046 A 
ATOM      7  C   LIG    1       -2.928   0.294   0.148  0.00  0.00    +0.025 A 
ATOM      8  C   LIG    1       -2.325   1.516   0.310  0.00  0.00    +0.057 A 
ATOM      9  C   LIG    1       -2.980   2.703   0.034  0.00  0.00    +0.121 A 
ATOM     10  C   LIG    1       -4.287   2.663  -0.419  0.00  0.00    +0.048 A 
ATOM     11  C   LIG    1       -4.922   1.442  -0.590  0.00  0.00    +0.032 A 
ATOM     12  C   LIG    1       -4.229   0.257  -0.301  0.00  0.00    +0.074 A 
ATOM     13  N   LIG    1       -4.851  -0.920  -0.461  0.00  0.00    -0.247 NA
ATOM     14  C   LIG    1       -4.202  -2.069  -0.180  0.00  0.00    +0.075 A 
ATOM     15  C   LIG    1       -4.861  -3.294  -0.351  0.00  0.00    +0.048 A 
ENDROOT
BRANCH   6  16
ATOM     16  N   LIG    1       -0.895  -0.944   0.875  0.00  0.00    -0.340 N 
ATOM     17  H   LIG    1       -0.696  -0.895   1.894  0.00  0.00    +0.146 HD
BRANCH  16  18
ATOM     18  C   LIG    1        0.155  -1.086  -0.110  0.00  0.00    +0.067 C 
ATOM     19  C   LIG    1        1.191  -2.112   0.225  0.00  0.00    +0.028 C 
BRANCH  18  20
ATOM     20  C   LIG    1        0.794   0.161  -0.594  0.00  0.00    +0.023 C 
BRANCH  20  21
ATOM     21  C   LIG    1        1.510   1.026   0.362  0.00  0.00    +0.017 C 
BRANCH  21  22
ATOM     22  C   LIG    1        2.715   0.492   1.046  0.00  0.00    +0.084 C 
BRANCH  22  23
ATOM     23  N   LIG    1        3.837   0.125   0.281  0.00  0.00    -0.303 NA
BRANCH  23  24
ATOM     24  C   LIG    1        4.724  -0.681   1.100  0.00  0.00    +0.081 C 
ATOM     25  C   LIG    1        5.950  -1.116   0.353  0.00  0.00    +0.020 C 
ENDBRANCH  23  24
BRANCH  23  26
ATOM     26  C   LIG    1        4.570   1.202  -0.287  0.00  0.00    +0.081 C 
ATOM     27  C   LIG    1        3.932   1.979  -1.375  0.00  0.00    +0.020 C 
ENDBRANCH  23  26
ENDBRANCH  22  23
ENDBRANCH  21  22
ENDBRANCH  20  21
ENDBRANCH  18  20
ENDBRANCH  16  18
ENDBRANCH   6  16
BRANCH   9  28
ATOM     28  O   LIG    1       -2.356   3.903   0.203  0.00  0.00    -0.495 OA
ATOM     29  C   LIG    1       -2.869   5.174  -0.028  0.00  0.00    +0.277 C 
ENDBRANCH   9  28
TORSDOF 9
