REMARK  Name = molecules/DB09031.pdb
REMARK                            x       y       z     vdW  Elec       q    Type
REMARK                         _______ _______ _______ _____ _____    ______ ____
ROOT
ATOM      1  C   LIG    1       -0.312  -0.668   0.380  0.00  0.00    +0.002 C 
ENDROOT
BRANCH   1   2
ATOM      2  C   LIG    1       -1.508  -1.083  -0.506  0.00  0.00    +0.028 C 
BRANCH   2   3
ATOM      3  C   LIG    1       -2.758  -0.982   0.309  0.00  0.00    +0.168 C 
BRANCH   3   4
ATOM      4  O   LIG    1       -2.852   0.361   0.742  0.00  0.00    -0.327 OA
BRANCH   4   5
ATOM      5  P   LIG    1       -4.261   0.480   1.662  0.00  0.00    +0.212 P 
ATOM      6  O   LIG    1       -4.378  -0.753   2.812  0.00  0.00    -0.437 OA
ATOM      7  O   LIG    1       -4.239   1.845   2.351  0.00  0.00    -0.517 OA
BRANCH   5   8
ATOM      8  O   LIG    1       -5.578   0.466   0.636  0.00  0.00    -0.329 OA
BRANCH   8   9
ATOM      9  C   LIG    1       -6.340  -0.674   0.709  0.00  0.00    +0.150 C 
BRANCH   9  10
ATOM     10  C   LIG    1       -7.490  -0.559  -0.254  0.00  0.00    -0.047 C 
BRANCH  10  11
ATOM     11  N   LIG    1       -7.111  -0.397  -1.625  0.00  0.00    +0.376 N 
ATOM     12  C   LIG    1       -6.703   0.971  -1.893  0.00  0.00    -0.093 C 
ATOM     13  C   LIG    1       -6.122  -1.316  -2.091  0.00  0.00    -0.093 C 
ATOM     14  C   LIG    1       -8.331  -0.611  -2.415  0.00  0.00    -0.093 C 
ENDBRANCH  10  11
ENDBRANCH   9  10
ENDBRANCH   8   9
ENDBRANCH   5   8
ENDBRANCH   4   5
ENDBRANCH   3   4
ENDBRANCH   2   3
ENDBRANCH   1   2
BRANCH   1  15
ATOM     15  C   LIG    1       -0.230  -1.594   1.526  0.00  0.00    +0.000 C 
BRANCH  15  16
ATOM     16  C   LIG    1        0.919  -1.431   2.416  0.00  0.00    +0.000 C 
BRANCH  16  17
ATOM     17  C   LIG    1        1.091  -0.174   3.144  0.00  0.00    +0.000 C 
BRANCH  17  18
ATOM     18  C   LIG    1        1.326   1.096   2.432  0.00  0.00    -0.000 C 
BRANCH  18  19
ATOM     19  C   LIG    1        2.573   0.964   1.554  0.00  0.00    -0.000 C 
BRANCH  19  20
ATOM     20  C   LIG    1        2.856   2.226   0.812  0.00  0.00    -0.000 C 
BRANCH  20  21
ATOM     21  C   LIG    1        4.056   2.094  -0.056  0.00  0.00    -0.000 C 
BRANCH  21  22
ATOM     22  C   LIG    1        5.272   1.772   0.764  0.00  0.00    -0.000 C 
BRANCH  22  23
ATOM     23  C   LIG    1        6.480   1.671  -0.133  0.00  0.00    -0.000 C 
BRANCH  23  24
ATOM     24  C   LIG    1        6.373   0.603  -1.192  0.00  0.00    -0.000 C 
BRANCH  24  25
ATOM     25  C   LIG    1        7.670   0.647  -1.977  0.00  0.00    -0.000 C 
BRANCH  25  26
ATOM     26  C   LIG    1        7.708  -0.369  -3.076  0.00  0.00    -0.003 C 
ATOM     27  C   LIG    1        7.571  -1.790  -2.580  0.00  0.00    +0.004 C 
ENDBRANCH  25  26
ENDBRANCH  24  25
ENDBRANCH  23  24
ENDBRANCH  22  23
ENDBRANCH  21  22
ENDBRANCH  20  21
ENDBRANCH  19  20
ENDBRANCH  18  19
ENDBRANCH  17  18
ENDBRANCH  16  17
ENDBRANCH  15  16
ENDBRANCH   1  15
TORSDOF 20
