REMARK  Name = molecules/DB11820.pdb
REMARK                            x       y       z     vdW  Elec       q    Type
REMARK                         _______ _______ _______ _____ _____    ______ ____
ROOT
ATOM      1  N   LIG    1        0.327   0.151  -0.032  0.00  0.00    -0.188 NA
ATOM      2  C   LIG    1        1.132  -0.734  -0.460  0.00  0.00    +0.176 C 
ENDROOT
BRANCH   1   5
ATOM      3  C   LIG    1       -1.535   1.940   1.189  0.00  0.00    +0.031 C 
ATOM      4  C   LIG    1       -1.766   1.269  -0.169  0.00  0.00    +0.110 C 
ATOM      5  N   LIG    1       -1.089   0.024  -0.152  0.00  0.00    -0.250 N 
ATOM      6  C   LIG    1       -1.572  -1.292  -0.232  0.00  0.00    +0.149 C 
ATOM      7  C   LIG    1       -3.001  -1.549   0.024  0.00  0.00    +0.186 C 
ATOM      8  S   LIG    1       -4.078  -0.196  -0.235  0.00  0.00    -0.028 S 
ATOM      9  O   LIG    1       -4.991  -0.002   0.959  0.00  0.00    -0.174 OA
ATOM     10  O   LIG    1       -5.024  -0.475  -1.397  0.00  0.00    -0.174 OA
ATOM     11  C   LIG    1       -3.186   1.286  -0.538  0.00  0.00    +0.189 C 
ENDBRANCH   1   5
BRANCH   2  12
ATOM     12  C   LIG    1        2.596  -0.598  -0.334  0.00  0.00    +0.150 A 
ATOM     13  O   LIG    1        3.265   0.369   0.193  0.00  0.00    -0.433 OA
ATOM     14  C   LIG    1        4.570   0.179   0.145  0.00  0.00    +0.280 A 
ATOM     15  C   LIG    1        4.759  -1.034  -0.477  0.00  0.00    +0.076 A 
ATOM     16  C   LIG    1        3.511  -1.524  -0.779  0.00  0.00    +0.053 A 
BRANCH  14  17
ATOM     17  N   LIG    1        5.592   1.032   0.626  0.00  0.00    +0.093 N 
ATOM     18  O   LIG    1        5.268   2.099   1.167  0.00  0.00    -0.123 OA
ATOM     19  O   LIG    1        6.903   0.680   0.493  0.00  0.00    -0.123 OA
ENDBRANCH  14  17
ENDBRANCH   2  12
TORSDOF 3
