REMARK  Name = molecules/DB13268.pdb
REMARK                            x       y       z     vdW  Elec       q    Type
REMARK                         _______ _______ _______ _____ _____    ______ ____
ROOT
ATOM      1  C   LIG    1        0.721  -0.489   0.261  0.00  0.00    +0.076 A 
ATOM      2  C   LIG    1        0.571  -1.875   0.175  0.00  0.00    +0.138 A 
ATOM      3  C   LIG    1       -0.641  -2.410  -0.180  0.00  0.00    +0.048 A 
ATOM      4  C   LIG    1       -1.699  -1.571  -0.447  0.00  0.00    +0.012 A 
ATOM      5  C   LIG    1       -1.561  -0.201  -0.366  0.00  0.00    -0.016 A 
ATOM      6  C   LIG    1       -0.335   0.346  -0.007  0.00  0.00    +0.035 A 
ENDROOT
BRANCH   1   9
ATOM      7  C   LIG    1        3.773   1.634   1.177  0.00  0.00    +0.109 C 
ATOM      8  C   LIG    1        2.336   1.331   0.768  0.00  0.00    +0.214 C 
ATOM      9  N   LIG    1        1.992  -0.025   0.629  0.00  0.00    -0.283 N 
ATOM     10  H   LIG    1        2.772  -0.718   0.825  0.00  0.00    +0.155 HD
ATOM     11  O   LIG    1        1.599   2.322   0.594  0.00  0.00    -0.276 OA
ENDBRANCH   1   9
BRANCH   2  12
ATOM     12  O   LIG    1        1.615  -2.722   0.439  0.00  0.00    -0.505 OA
ATOM     13  H   LIG    1        1.525  -3.707   0.383  0.00  0.00    +0.292 HD
ENDBRANCH   2  12
TORSDOF 2
REMARK  Name = molecules/DB13268.pdb
REMARK                            x       y       z     vdW  Elec       q    Type
REMARK                         _______ _______ _______ _____ _____    ______ ____
ROOT
ATOM      1 AS   LIG    1       -3.045   0.983  -0.742  0.00  0.00    +0.000 As
ATOM      2  O   LIG    1       -3.225   2.038   0.519  0.00  0.00    +0.000 OA
ENDROOT
BRANCH   1   3
ATOM      3  O   LIG    1       -4.593  -0.014  -0.875  0.00  0.00    +0.000 OA
ATOM      4  H   LIG    1       -4.432  -0.796  -1.460  0.00  0.00    +0.000 HD
ENDBRANCH   1   3
BRANCH   1   5
ATOM      5  O   LIG    1       -2.817   1.878  -2.334  0.00  0.00    +0.000 OA
ATOM      6  H   LIG    1       -3.072   2.848  -2.242  0.00  0.00    +0.000 HD
ENDBRANCH   1   5
TORSDOF 2
