REMARK  Name = molecules/DBDTUXMDTSTPQZ-CYBMUJFWSA-N.pdb
REMARK                            x       y       z     vdW  Elec       q    Type
REMARK                         _______ _______ _______ _____ _____    ______ ____
ROOT
ATOM      1  O   LIG    1        0.800  -1.208  -2.344  0.00  0.00    -0.270 OA
ATOM      2  C   LIG    1        0.366  -0.614  -1.302  0.00  0.00    +0.247 C 
ATOM      3  C   LIG    1        1.313  -0.137  -0.285  0.00  0.00    +0.060 A 
ATOM      4  C   LIG    1        0.768   0.493   0.806  0.00  0.00    +0.042 A 
ATOM      5  C   LIG    1        1.653   0.951   1.777  0.00  0.00    +0.045 A 
ATOM      6  C   LIG    1        3.017   0.768   1.627  0.00  0.00    +0.069 A 
ATOM      7 CL   LIG    1        4.160   1.325   2.817  0.00  0.00    -0.081 Cl
ATOM      8  C   LIG    1        3.524   0.120   0.497  0.00  0.00    +0.124 A 
ATOM      9  N   LIG    1       -0.659   0.680   0.954  0.00  0.00    -0.322 N 
ATOM     10  H   LIG    1       -0.957   1.490   1.527  0.00  0.00    +0.148 HD
ATOM     11  C   LIG    1       -1.480  -0.279   0.288  0.00  0.00    +0.190 C 
ATOM     12  C   LIG    1        2.661  -0.331  -0.458  0.00  0.00    +0.045 A 
ATOM     13  N   LIG    1       -1.009  -0.392  -1.084  0.00  0.00    -0.289 N 
ATOM     14  H   LIG    1       -1.645  -0.315  -1.913  0.00  0.00    +0.151 HD
ENDROOT
BRANCH  11  15
ATOM     15  C   LIG    1       -2.918  -0.077   0.353  0.00  0.00    -0.009 A 
ATOM     16  C   LIG    1       -3.492   0.841   1.191  0.00  0.00    +0.007 A 
ATOM     17  C   LIG    1       -4.884   1.006   1.222  0.00  0.00    +0.000 A 
ATOM     18  C   LIG    1       -5.691   0.229   0.393  0.00  0.00    +0.000 A 
ATOM     19  C   LIG    1       -5.116  -0.701  -0.456  0.00  0.00    +0.000 A 
ATOM     20  C   LIG    1       -3.738  -0.827  -0.450  0.00  0.00    +0.007 A 
ENDBRANCH  11  15
BRANCH   8  21
ATOM     21  S   LIG    1        5.230  -0.099   0.327  0.00  0.00    +0.057 S 
ATOM     22  O   LIG    1        5.713  -0.924   1.503  0.00  0.00    -0.153 OA
ATOM     23  O   LIG    1        5.969   1.208   0.362  0.00  0.00    -0.153 OA
BRANCH  21  24
ATOM     24  N   LIG    1        5.542  -0.922  -1.156  0.00  0.00    -0.203 NA
ATOM     25  H   LIG    1        5.888  -1.885  -0.977  0.00  0.00    +0.144 HD
ATOM     26  H   LIG    1        6.163  -0.397  -1.784  0.00  0.00    +0.144 HD
ENDBRANCH  21  24
ENDBRANCH   8  21
TORSDOF 3
