REMARK  Name = molecules/DBEPLOCGEIEOCV-WSBQPABSSA-N.pdb
REMARK                            x       y       z     vdW  Elec       q    Type
REMARK                         _______ _______ _______ _____ _____    ______ ____
ROOT
ATOM      1  C   LIG    1        0.903   0.427   0.613  0.00  0.00    +0.012 C 
ATOM      2  C   LIG    1        0.568   0.607  -0.828  0.00  0.00    -0.018 C 
ATOM      3  C   LIG    1       -0.288   1.849  -0.968  0.00  0.00    +0.008 C 
ATOM      4  C   LIG    1       -1.601   1.706  -0.287  0.00  0.00    +0.005 C 
ATOM      5  C   LIG    1       -2.333   0.437  -0.569  0.00  0.00    +0.004 C 
ATOM      6  C   LIG    1       -3.540   0.296   0.320  0.00  0.00    +0.008 C 
ATOM      7  C   LIG    1       -3.155   0.548   1.780  0.00  0.00    +0.017 C 
ATOM      8  C   LIG    1       -4.162  -1.059   0.204  0.00  0.00    +0.083 C 
ATOM      9  N   LIG    1       -5.364  -1.122   0.976  0.00  0.00    -0.308 N 
ATOM     10  H   LIG    1       -5.593  -1.787   1.738  0.00  0.00    +0.149 HD
ATOM     11  C   LIG    1       -6.357  -0.140   0.631  0.00  0.00    +0.237 C 
ATOM     12  O   LIG    1       -7.577  -0.306   0.763  0.00  0.00    -0.271 OA
ATOM     13  C   LIG    1       -5.817   1.108   0.097  0.00  0.00    +0.063 C 
ATOM     14  C   LIG    1       -3.176  -2.171   0.492  0.00  0.00    +0.023 C 
ATOM     15  C   LIG    1       -2.123  -2.050  -0.623  0.00  0.00    +0.006 C 
ATOM     16  C   LIG    1       -4.525   1.325  -0.054  0.00  0.00    -0.013 C 
ATOM     17  C   LIG    1       -1.393  -0.770  -0.409  0.00  0.00    -0.003 C 
ATOM     18  C   LIG    1       -0.304  -0.529  -1.382  0.00  0.00    -0.001 C 
ATOM     19  C   LIG    1        0.691  -1.601  -1.590  0.00  0.00    +0.005 C 
ATOM     20  C   LIG    1        1.754  -0.828  -2.390  0.00  0.00    +0.013 C 
ATOM     21  C   LIG    1        1.718   0.578  -1.766  0.00  0.00    +0.081 C 
ENDROOT
BRANCH  21  22
ATOM     22  C   LIG    1        3.049   0.781  -1.159  0.00  0.00    +0.217 C 
ATOM     23  N   LIG    1        3.655  -0.133  -0.262  0.00  0.00    -0.310 N 
ATOM     24  H   LIG    1        3.170  -1.016   0.007  0.00  0.00    +0.149 HD
ATOM     25  O   LIG    1        3.719   1.833  -1.437  0.00  0.00    -0.275 OA
BRANCH  23  26
ATOM     26  C   LIG    1        4.962   0.092   0.322  0.00  0.00    +0.026 C 
ATOM     27  C   LIG    1        5.368  -1.037   1.240  0.00  0.00    +0.031 C 
ATOM     28  C   LIG    1        4.909   1.354   1.171  0.00  0.00    +0.031 C 
ATOM     29  C   LIG    1        6.022   0.264  -0.732  0.00  0.00    +0.031 C 
ENDBRANCH  23  26
ENDBRANCH  21  22
TORSDOF 2
