REMARK  Name = molecules/DBGIVFWFUFKIQN-VIFPVBQESA-N.pdb
REMARK                            x       y       z     vdW  Elec       q    Type
REMARK                         _______ _______ _______ _____ _____    ______ ____
ROOT
ATOM      1  C   LIG    1       -0.993  -0.495   0.497  0.00  0.00    -0.045 A 
ATOM      2  C   LIG    1       -1.481  -1.764   0.453  0.00  0.00    +0.004 A 
ATOM      3  C   LIG    1       -2.847  -1.955   0.271  0.00  0.00    +0.001 A 
ATOM      4  C   LIG    1       -3.717  -0.884   0.133  0.00  0.00    +0.012 A 
ATOM      5  C   LIG    1       -3.251   0.417   0.172  0.00  0.00    +0.055 A 
ATOM      6  C   LIG    1       -1.883   0.564   0.355  0.00  0.00    +0.016 A 
ENDROOT
BRANCH   5   7
ATOM      7  C   LIG    1       -4.183   1.589   0.048  0.00  0.00    +0.417 C 
ATOM      8  F   LIG    1       -4.494   2.047   1.359  0.00  0.00    -0.166 F 
ATOM      9  F   LIG    1       -5.307   1.171  -0.580  0.00  0.00    -0.166 F 
ATOM     10  F   LIG    1       -3.627   2.661  -0.601  0.00  0.00    -0.166 F 
ENDBRANCH   5   7
BRANCH   1  11
ATOM     11  C   LIG    1        0.412  -0.120   0.613  0.00  0.00    +0.053 C 
BRANCH  11  12
ATOM     12  C   LIG    1        1.323  -0.578  -0.488  0.00  0.00    +0.055 C 
ATOM     13  C   LIG    1        1.554  -2.104  -0.265  0.00  0.00    +0.024 C 
BRANCH  12  14
ATOM     14  N   LIG    1        2.667  -0.043  -0.298  0.00  0.00    -0.313 NA
ATOM     15  H   LIG    1        2.997  -0.232   0.712  0.00  0.00    +0.122 HD
BRANCH  14  16
ATOM     16  C   LIG    1        2.785   1.363  -0.476  0.00  0.00    +0.078 C 
ATOM     17  C   LIG    1        4.259   1.718  -0.269  0.00  0.00    +0.020 C 
ENDBRANCH  14  16
ENDBRANCH  12  14
ENDBRANCH  11  12
ENDBRANCH   1  11
TORSDOF 5
