REMARK  Name = molecules/DBIGHPPNXATHOF-UHFFFAOYSA-N.pdb
REMARK                            x       y       z     vdW  Elec       q    Type
REMARK                         _______ _______ _______ _____ _____    ______ ____
ROOT
ATOM      1  N   LIG    1        0.494  -0.062  -0.596  0.00  0.00    -0.316 NA
ATOM      2  H   LIG    1        1.227   0.336  -1.191  0.00  0.00    +0.122 HD
ENDROOT
BRANCH   1   3
ATOM      3  C   LIG    1       -0.671   0.802  -0.689  0.00  0.00    +0.083 C 
BRANCH   3   4
ATOM      4  C   LIG    1       -1.896   0.104  -0.180  0.00  0.00    +0.045 C 
BRANCH   4   5
ATOM      5  C   LIG    1       -3.167   0.903  -0.257  0.00  0.00    +0.194 C 
BRANCH   5   6
ATOM      6  O   LIG    1       -4.163   0.034   0.249  0.00  0.00    -0.239 OA
BRANCH   6   7
ATOM      7  S   LIG    1       -5.679   0.722   0.241  0.00  0.00    +0.079 S 
ATOM      8  O   LIG    1       -5.890   1.263   1.653  0.00  0.00    -0.147 OA
ATOM      9  C   LIG    1       -6.908  -0.540  -0.115  0.00  0.00    +0.228 C 
ATOM     10  O   LIG    1       -5.792   1.823  -0.766  0.00  0.00    -0.147 OA
ENDBRANCH   6   7
ENDBRANCH   5   6
ENDBRANCH   4   5
ENDBRANCH   3   4
ENDBRANCH   1   3
BRANCH   1  11
ATOM     11  C   LIG    1        0.941  -0.305   0.746  0.00  0.00    +0.083 C 
BRANCH  11  12
ATOM     12  C   LIG    1        1.970  -1.399   0.774  0.00  0.00    +0.045 C 
BRANCH  12  13
ATOM     13  C   LIG    1        3.176  -1.179  -0.045  0.00  0.00    +0.194 C 
BRANCH  13  14
ATOM     14  O   LIG    1        3.950  -0.066   0.260  0.00  0.00    -0.239 OA
BRANCH  14  15
ATOM     15  S   LIG    1        5.255   0.010  -0.803  0.00  0.00    +0.079 S 
ATOM     16  C   LIG    1        6.720   0.541   0.003  0.00  0.00    +0.228 C 
ATOM     17  O   LIG    1        5.540  -1.361  -1.389  0.00  0.00    -0.147 OA
ATOM     18  O   LIG    1        4.867   0.961  -1.900  0.00  0.00    -0.147 OA
ENDBRANCH  14  15
ENDBRANCH  13  14
ENDBRANCH  12  13
ENDBRANCH  11  12
ENDBRANCH   1  11
TORSDOF 10
