REMARK  Name = molecules/DBLVDAUGBTYDFR-SWMBIRFSSA-N.pdb
REMARK                            x       y       z     vdW  Elec       q    Type
REMARK                         _______ _______ _______ _____ _____    ______ ____
ROOT
ATOM      1  C   LIG    1        0.168   0.061  -0.381  0.00  0.00    +0.186 C 
ATOM      2  C   LIG    1       -0.743   1.129   0.151  0.00  0.00    +0.202 C 
ATOM      3  C   LIG    1       -2.060   0.849  -0.469  0.00  0.00    +0.282 C 
ATOM      4  O   LIG    1       -2.047  -0.490  -0.763  0.00  0.00    -0.341 OA
ATOM      5  C   LIG    1       -0.758  -0.807  -1.182  0.00  0.00    +0.178 C 
ENDROOT
BRANCH   2   6
ATOM      6  O   LIG    1       -0.314   2.380  -0.345  0.00  0.00    -0.384 OA
ATOM      7  H   LIG    1       -0.079   2.320  -1.300  0.00  0.00    +0.210 HD
ENDBRANCH   2   6
BRANCH   1   8
ATOM      8  O   LIG    1        1.176   0.659  -1.098  0.00  0.00    -0.341 OA
BRANCH   8   9
ATOM      9  C   LIG    1        2.443   0.376  -0.634  0.00  0.00    +0.270 C 
ATOM     10  C   LIG    1        3.151   1.626  -0.247  0.00  0.00    +0.139 C 
ATOM     11  C   LIG    1        4.663   1.491  -0.478  0.00  0.00    +0.167 C 
ATOM     12  C   LIG    1        5.019   0.050  -0.263  0.00  0.00    +0.181 C 
ATOM     13  C   LIG    1        4.330  -0.789  -1.282  0.00  0.00    +0.166 C 
ATOM     14  O   LIG    1        3.084  -0.323  -1.655  0.00  0.00    -0.343 OA
BRANCH  10  15
ATOM     15  N   LIG    1        2.730   2.794  -0.997  0.00  0.00    -0.321 NA
ATOM     16  H   LIG    1        2.455   3.573  -0.360  0.00  0.00    +0.119 HD
ATOM     17  H   LIG    1        3.438   3.153  -1.652  0.00  0.00    +0.119 HD
ENDBRANCH  10  15
BRANCH  11  18
ATOM     18  O   LIG    1        5.356   2.341   0.382  0.00  0.00    -0.387 OA
ATOM     19  H   LIG    1        4.682   2.824   0.960  0.00  0.00    +0.210 HD
ENDBRANCH  11  18
BRANCH  13  20
ATOM     20  C   LIG    1        5.165  -0.944  -2.529  0.00  0.00    +0.112 C 
BRANCH  20  21
ATOM     21  N   LIG    1        5.347   0.281  -3.261  0.00  0.00    -0.328 NA
ATOM     22  H   LIG    1        6.326   0.329  -3.575  0.00  0.00    +0.118 HD
ATOM     23  H   LIG    1        4.640   0.439  -3.994  0.00  0.00    +0.118 HD
ENDBRANCH  20  21
ENDBRANCH  13  20
BRANCH  12  24
ATOM     24  O   LIG    1        6.401  -0.149  -0.246  0.00  0.00    -0.340 OA
BRANCH  24  25
ATOM     25  C   LIG    1        6.880  -0.568   0.968  0.00  0.00    +0.282 C 
ATOM     26  C   LIG    1        7.912   0.296   1.602  0.00  0.00    +0.201 C 
ATOM     27  C   LIG    1        9.262   0.220   0.927  0.00  0.00    +0.179 C 
ATOM     28  C   LIG    1        9.626  -1.192   0.544  0.00  0.00    +0.177 C 
ATOM     29  C   LIG    1        8.411  -1.838  -0.067  0.00  0.00    +0.178 C 
ATOM     30  O   LIG    1        7.418  -1.875   0.910  0.00  0.00    -0.341 OA
BRANCH  28  31
ATOM     31  O   LIG    1       10.689  -1.147  -0.364  0.00  0.00    -0.386 OA
ATOM     32  H   LIG    1       11.569  -1.159   0.082  0.00  0.00    +0.210 HD
ENDBRANCH  28  31
BRANCH  26  33
ATOM     33  O   LIG    1        8.053  -0.138   2.941  0.00  0.00    -0.384 OA
ATOM     34  H   LIG    1        7.495  -0.933   3.131  0.00  0.00    +0.210 HD
ENDBRANCH  26  33
BRANCH  27  35
ATOM     35  O   LIG    1       10.239   0.675   1.819  0.00  0.00    -0.386 OA
ATOM     36  H   LIG    1       10.071   0.340   2.731  0.00  0.00    +0.210 HD
ENDBRANCH  27  35
BRANCH  29  37
ATOM     37  C   LIG    1        8.709  -3.215  -0.615  0.00  0.00    +0.190 C 
BRANCH  37  38
ATOM     38  O   LIG    1        7.518  -3.707  -1.174  0.00  0.00    -0.392 OA
ATOM     39  H   LIG    1        7.564  -3.705  -2.155  0.00  0.00    +0.210 HD
ENDBRANCH  37  38
ENDBRANCH  29  37
ENDBRANCH  24  25
ENDBRANCH  12  24
ENDBRANCH   8   9
ENDBRANCH   1   8
BRANCH   3  40
ATOM     40  O   LIG    1       -3.137   1.071   0.385  0.00  0.00    -0.340 OA
BRANCH  40  41
ATOM     41  C   LIG    1       -4.112   1.903  -0.146  0.00  0.00    +0.182 C 
ATOM     42  C   LIG    1       -4.159   3.122   0.772  0.00  0.00    +0.163 C 
ATOM     43  C   LIG    1       -5.226   4.098   0.418  0.00  0.00    +0.084 C 
ATOM     44  C   LIG    1       -6.560   3.448   0.138  0.00  0.00    +0.042 C 
ATOM     45  C   LIG    1       -6.407   2.304  -0.821  0.00  0.00    +0.084 C 
ATOM     46  C   LIG    1       -5.484   1.280  -0.144  0.00  0.00    +0.169 C 
BRANCH  45  47
ATOM     47  N   LIG    1       -7.670   1.742  -1.180  0.00  0.00    -0.325 NA
ATOM     48  H   LIG    1       -8.440   2.307  -0.756  0.00  0.00    +0.119 HD
ATOM     49  H   LIG    1       -7.781   1.867  -2.232  0.00  0.00    +0.119 HD
ENDBRANCH  45  47
BRANCH  43  50
ATOM     50  N   LIG    1       -5.428   4.959   1.595  0.00  0.00    -0.325 NA
ATOM     51  H   LIG    1       -5.283   4.444   2.475  0.00  0.00    +0.119 HD
ATOM     52  H   LIG    1       -4.939   5.857   1.513  0.00  0.00    +0.119 HD
ENDBRANCH  43  50
BRANCH  42  53
ATOM     53  O   LIG    1       -2.922   3.768   0.607  0.00  0.00    -0.388 OA
ATOM     54  H   LIG    1       -2.288   3.481   1.313  0.00  0.00    +0.210 HD
ENDBRANCH  42  53
BRANCH  46  55
ATOM     55  O   LIG    1       -5.542   0.062  -0.806  0.00  0.00    -0.342 OA
BRANCH  55  56
ATOM     56  C   LIG    1       -6.042  -0.944   0.017  0.00  0.00    +0.268 C 
ATOM     57  C   LIG    1       -5.091  -2.096   0.203  0.00  0.00    +0.110 C 
ATOM     58  C   LIG    1       -5.885  -3.328   0.636  0.00  0.00    +0.057 C 
ATOM     59  C   LIG    1       -7.171  -2.893   1.331  0.00  0.00    +0.147 C 
ATOM     60  C   LIG    1       -8.009  -2.051   0.426  0.00  0.00    +0.175 C 
ATOM     61  O   LIG    1       -7.205  -1.471  -0.552  0.00  0.00    -0.342 OA
BRANCH  57  62
ATOM     62  N   LIG    1       -4.521  -2.403  -1.097  0.00  0.00    -0.323 NA
ATOM     63  H   LIG    1       -4.379  -3.421  -1.226  0.00  0.00    +0.119 HD
ATOM     64  H   LIG    1       -5.057  -1.999  -1.882  0.00  0.00    +0.119 HD
ENDBRANCH  57  62
BRANCH  59  65
ATOM     65  O   LIG    1       -7.812  -4.052   1.759  0.00  0.00    -0.389 OA
ATOM     66  H   LIG    1       -8.676  -4.191   1.306  0.00  0.00    +0.210 HD
ENDBRANCH  59  65
BRANCH  60  67
ATOM     67  C   LIG    1       -8.822  -1.027   1.189  0.00  0.00    +0.190 C 
BRANCH  67  68
ATOM     68  O   LIG    1       -9.575  -1.760   2.131  0.00  0.00    -0.392 OA
ATOM     69  H   LIG    1      -10.529  -1.647   1.957  0.00  0.00    +0.210 HD
ENDBRANCH  67  68
ENDBRANCH  60  67
ENDBRANCH  55  56
ENDBRANCH  46  55
ENDBRANCH  40  41
ENDBRANCH   3  40
BRANCH   5  70
ATOM     70  C   LIG    1       -0.461  -2.279  -1.043  0.00  0.00    +0.190 C 
BRANCH  70  71
ATOM     71  O   LIG    1       -1.364  -2.979  -1.819  0.00  0.00    -0.392 OA
ATOM     72  H   LIG    1       -1.966  -3.547  -1.273  0.00  0.00    +0.210 HD
ENDBRANCH  70  71
ENDBRANCH   5  70
TORSDOF 27
