REMARK  Name = molecules/DCCSDBARQIPTGU-HSZRJFAPSA-N.pdb
REMARK                            x       y       z     vdW  Elec       q    Type
REMARK                         _______ _______ _______ _____ _____    ______ ____
ROOT
ATOM      1  C   LIG    1        0.574  -0.127  -0.996  0.00  0.00    +0.054 C 
ENDROOT
BRANCH   1   2
ATOM      2  C   LIG    1        0.843  -0.948   0.300  0.00  0.00    -0.040 A 
ATOM      3  C   LIG    1        0.855  -0.297   1.505  0.00  0.00    +0.004 A 
ATOM      4  C   LIG    1        1.084  -1.045   2.642  0.00  0.00    +0.000 A 
ATOM      5  C   LIG    1        1.294  -2.409   2.584  0.00  0.00    +0.000 A 
ATOM      6  C   LIG    1        1.282  -3.068   1.373  0.00  0.00    +0.000 A 
ATOM      7  C   LIG    1        1.051  -2.291   0.247  0.00  0.00    +0.004 A 
ENDBRANCH   1   2
BRANCH   1   8
ATOM      8  C   LIG    1        1.300   1.113  -0.772  0.00  0.00    +0.003 A 
ATOM      9  C   LIG    1        0.694   2.334  -0.655  0.00  0.00    +0.013 A 
ATOM     10  C   LIG    1        1.451   3.472  -0.445  0.00  0.00    -0.022 A 
ATOM     11  C   LIG    1        2.820   3.390  -0.354  0.00  0.00    +0.009 A 
ATOM     12  C   LIG    1        3.416   2.158  -0.477  0.00  0.00    +0.047 A 
ATOM     13  C   LIG    1        2.686   0.978  -0.691  0.00  0.00    +0.135 A 
BRANCH  10  14
ATOM     14  C   LIG    1        0.795   4.798  -0.324  0.00  0.00    +0.191 C 
BRANCH  14  15
ATOM     15  O   LIG    1        1.728   5.725   0.175  0.00  0.00    -0.390 OA
ATOM     16  H   LIG    1        1.447   6.065   1.059  0.00  0.00    +0.210 HD
ENDBRANCH  14  15
ENDBRANCH  10  14
BRANCH  13  17
ATOM     17  O   LIG    1        3.406  -0.191  -0.804  0.00  0.00    -0.425 OA
BRANCH  17  18
ATOM     18  C   LIG    1        4.087  -0.863   0.163  0.00  0.00    +0.315 C 
ATOM     19  O   LIG    1        4.054  -0.388   1.324  0.00  0.00    -0.250 OA
BRANCH  18  20
ATOM     20  C   LIG    1        4.825  -2.093  -0.194  0.00  0.00    +0.092 C 
ATOM     21  C   LIG    1        5.398  -2.642   1.111  0.00  0.00    +0.019 C 
ATOM     22  C   LIG    1        4.040  -3.136  -0.904  0.00  0.00    +0.019 C 
ENDBRANCH  18  20
ENDBRANCH  17  18
ENDBRANCH  13  17
ENDBRANCH   1   8
BRANCH   1  23
ATOM     23  C   LIG    1       -0.880  -0.175  -1.189  0.00  0.00    +0.028 C 
BRANCH  23  24
ATOM     24  C   LIG    1       -1.792   0.207  -0.098  0.00  0.00    +0.086 C 
BRANCH  24  25
ATOM     25  N   LIG    1       -3.200   0.126  -0.379  0.00  0.00    -0.297 NA
BRANCH  25  26
ATOM     26  C   LIG    1       -3.732  -1.132  -0.550  0.00  0.00    +0.051 C 
ATOM     27  C   LIG    1       -3.872  -1.948   0.751  0.00  0.00    +0.024 C 
ATOM     28  C   LIG    1       -5.008  -1.299  -1.280  0.00  0.00    +0.024 C 
ENDBRANCH  25  26
BRANCH  25  29
ATOM     29  C   LIG    1       -3.839   1.331  -0.611  0.00  0.00    +0.051 C 
ATOM     30  C   LIG    1       -5.316   1.439  -0.444  0.00  0.00    +0.024 C 
ATOM     31  C   LIG    1       -3.407   2.099  -1.862  0.00  0.00    +0.024 C 
ENDBRANCH  25  29
ENDBRANCH  24  25
ENDBRANCH  23  24
ENDBRANCH   1  23
TORSDOF 12
