REMARK  Name = molecules/DCOPUUMXTXDBNB-UHFFFAOYSA-N.pdb
REMARK                            x       y       z     vdW  Elec       q    Type
REMARK                         _______ _______ _______ _____ _____    ______ ____
ROOT
ATOM      1  C   LIG    1       -0.681   0.360  -0.293  0.00  0.00    +0.035 A 
ATOM      2  C   LIG    1       -0.498   1.728  -0.073  0.00  0.00    +0.023 A 
ATOM      3  C   LIG    1       -1.502   2.650  -0.288  0.00  0.00    +0.002 A 
ATOM      4  C   LIG    1       -2.734   2.233  -0.733  0.00  0.00    +0.000 A 
ATOM      5  C   LIG    1       -2.949   0.894  -0.958  0.00  0.00    +0.006 A 
ATOM      6  C   LIG    1       -1.919  -0.032  -0.734  0.00  0.00    -0.016 A 
ENDROOT
BRANCH   1   7
ATOM      7  N   LIG    1        0.333  -0.568  -0.079  0.00  0.00    -0.312 N 
ATOM      8  H   LIG    1        0.082  -1.602  -0.110  0.00  0.00    +0.152 HD
BRANCH   7   9
ATOM      9  C   LIG    1        1.694  -0.302   0.206  0.00  0.00    +0.068 A 
ATOM     10  C   LIG    1        2.138  -0.175   1.493  0.00  0.00    +0.063 A 
ATOM     11 CL   LIG    1        0.967  -0.350   2.783  0.00  0.00    -0.082 Cl
ATOM     12  C   LIG    1        3.485   0.081   1.751  0.00  0.00    +0.022 A 
ATOM     13  C   LIG    1        4.363   0.206   0.698  0.00  0.00    +0.003 A 
ATOM     14  C   LIG    1        3.933   0.082  -0.606  0.00  0.00    +0.022 A 
ATOM     15  C   LIG    1        2.606  -0.169  -0.837  0.00  0.00    +0.063 A 
ATOM     16 CL   LIG    1        2.034  -0.344  -2.489  0.00  0.00    -0.082 Cl
ENDBRANCH   7   9
ENDBRANCH   1   7
BRANCH   6  17
ATOM     17  C   LIG    1       -2.265  -1.458  -0.956  0.00  0.00    +0.157 C 
BRANCH  17  18
ATOM     18  C   LIG    1       -2.643  -2.131   0.297  0.00  0.00    +0.309 C 
ATOM     19  O   LIG    1       -3.777  -1.798   0.797  0.00  0.00    -0.251 OA
BRANCH  18  20
ATOM     20  O   LIG    1       -1.900  -3.062   0.955  0.00  0.00    -0.480 OA
ATOM     21  H   LIG    1       -1.759  -2.891   1.964  0.00  0.00    +0.295 HD
ENDBRANCH  18  20
ENDBRANCH  17  18
ENDBRANCH   6  17
TORSDOF 5
