REMARK  Name = molecules/DCSUBABJRXZOMT-RBBKRZOGSA-N.pdb
REMARK                            x       y       z     vdW  Elec       q    Type
REMARK                         _______ _______ _______ _____ _____    ______ ____
ROOT
ATOM      1  C   LIG    1       -1.018   0.029   0.398  0.00  0.00    +0.104 C 
ATOM      2  C   LIG    1       -0.415   1.405   0.232  0.00  0.00    +0.152 C 
ATOM      3  C   LIG    1        1.072   1.368   0.055  0.00  0.00    +0.117 C 
ATOM      4  N   LIG    1        1.538   0.427  -0.918  0.00  0.00    -0.300 NA
ATOM      5  C   LIG    1        0.973  -0.890  -0.779  0.00  0.00    +0.086 C 
ATOM      6  C   LIG    1       -0.508  -0.935  -0.612  0.00  0.00    +0.040 C 
ENDROOT
BRANCH   1   9
ATOM      7  C   LIG    1       -3.361  -0.105   1.273  0.00  0.00    +0.248 C 
ATOM      8  O   LIG    1       -2.831  -0.480   2.373  0.00  0.00    -0.270 OA
ATOM      9  N   LIG    1       -2.482   0.168   0.234  0.00  0.00    -0.306 N 
ATOM     10  H   LIG    1       -2.782   0.481  -0.702  0.00  0.00    +0.149 HD
BRANCH   7  17
ATOM     11  C   LIG    1       -5.529  -0.332   2.398  0.00  0.00    +0.038 A 
ATOM     12  C   LIG    1       -6.884  -0.249   2.378  0.00  0.00    +0.062 A 
ATOM     13 CL   LIG    1       -7.833  -0.638   3.810  0.00  0.00    -0.082 Cl
ATOM     14  C   LIG    1       -7.598   0.140   1.259  0.00  0.00    +0.047 A 
ATOM     15  C   LIG    1       -6.913   0.459   0.113  0.00  0.00    +0.070 A 
ATOM     16  C   LIG    1       -5.516   0.381   0.110  0.00  0.00    +0.134 A 
ATOM     17  C   LIG    1       -4.809  -0.008   1.228  0.00  0.00    +0.080 A 
BRANCH  14  18
ATOM     18  N   LIG    1       -9.017   0.217   1.263  0.00  0.00    -0.357 N 
ATOM     19  H   LIG    1       -9.485   0.861   1.926  0.00  0.00    +0.142 HD
ATOM     20  H   LIG    1       -9.544  -0.369   0.602  0.00  0.00    +0.142 HD
ENDBRANCH  14  18
BRANCH  16  21
ATOM     21  O   LIG    1       -4.848   0.710  -1.067  0.00  0.00    -0.494 OA
ATOM     22  C   LIG    1       -5.580   1.100  -2.191  0.00  0.00    +0.277 C 
ENDBRANCH  16  21
ENDBRANCH   7  17
ENDBRANCH   1   9
BRANCH   2  23
ATOM     23  O   LIG    1       -1.077   2.182  -0.700  0.00  0.00    -0.377 OA
ATOM     24  C   LIG    1       -1.708   3.286  -0.170  0.00  0.00    +0.194 C 
ENDBRANCH   2  23
BRANCH   4  25
ATOM     25  C   LIG    1        2.970   0.277  -0.735  0.00  0.00    +0.088 C 
BRANCH  25  26
ATOM     26  C   LIG    1        3.579  -0.666  -1.732  0.00  0.00    +0.056 C 
BRANCH  26  27
ATOM     27  C   LIG    1        5.066  -0.761  -1.465  0.00  0.00    +0.230 C 
BRANCH  27  28
ATOM     28  O   LIG    1        5.292  -1.249  -0.176  0.00  0.00    -0.492 OA
BRANCH  28  29
ATOM     29  C   LIG    1        6.532  -1.453   0.386  0.00  0.00    +0.121 A 
ATOM     30  C   LIG    1        6.628  -1.945   1.672  0.00  0.00    +0.048 A 
ATOM     31  C   LIG    1        7.900  -2.143   2.218  0.00  0.00    +0.042 A 
ATOM     32  C   LIG    1        9.010  -1.843   1.459  0.00  0.00    +0.124 A 
ATOM     33  F   LIG    1       10.257  -2.025   1.961  0.00  0.00    -0.205 F 
ATOM     34  C   LIG    1        8.912  -1.348   0.167  0.00  0.00    +0.042 A 
ATOM     35  C   LIG    1        7.648  -1.153  -0.372  0.00  0.00    +0.048 A 
ENDBRANCH  28  29
ENDBRANCH  27  28
ENDBRANCH  26  27
ENDBRANCH  25  26
ENDBRANCH   4  25
TORSDOF 10
