REMARK  Name = molecules/DCXYFEDJOCDNAF-REOHCLBHSA-N.pdb
REMARK                            x       y       z     vdW  Elec       q    Type
REMARK                         _______ _______ _______ _____ _____    ______ ____
ROOT
ATOM      1  CA  ASN A  1       -0.689  -0.456  -0.315  0.00  0.00    +0.169 C 
ENDROOT
BRANCH   1   2
ATOM      2  N   ASN A  1       -0.821   0.523  -1.358  0.00  0.00    -0.318 NA
ATOM      3  H1  ASN A  1       -0.787   1.469  -0.926  0.00  0.00    +0.119 HD
ATOM      4  H2  ASN A  1       -1.653   0.357  -1.943  0.00  0.00    +0.119 HD
ENDBRANCH   1   2
BRANCH   1   5
ATOM      5  C   ASN A  1       -1.913  -0.434   0.521  0.00  0.00    +0.322 C 
ATOM      6  OXT ASN A  1       -2.013  -1.220   1.503  0.00  0.00    -0.249 OA
BRANCH   5   7
ATOM      7  O   ASN A  1       -2.968   0.436   0.254  0.00  0.00    -0.480 OA
ATOM      8  H   ASN A  1       -3.620   0.725   0.971  0.00  0.00    +0.295 HD
ENDBRANCH   5   7
ENDBRANCH   1   5
BRANCH   1   9
ATOM      9  CB  ASN A  1        0.544  -0.118   0.499  0.00  0.00    +0.125 C 
BRANCH   9  10
ATOM     10  CG  ASN A  1        1.757  -0.143  -0.349  0.00  0.00    +0.213 C 
ATOM     11  ND2 ASN A  1        3.015   0.145   0.226  0.00  0.00    -0.329 N 
ATOM     12 HD21 ASN A  1        3.082   0.576   1.169  0.00  0.00    +0.145 HD
ATOM     13 HD22 ASN A  1        3.926  -0.051  -0.251  0.00  0.00    +0.145 HD
ATOM     14  OD1 ASN A  1        1.637  -0.423  -1.568  0.00  0.00    -0.276 OA
ENDBRANCH   9  10
ENDBRANCH   1   9
TORSDOF 5
