REMARK  Name = molecules/DDHUTBKXLWCZCO-CEMLEFRQSA-N.pdb
REMARK                            x       y       z     vdW  Elec       q    Type
REMARK                         _______ _______ _______ _____ _____    ______ ____
ROOT
ATOM      1  N   LIG    1        2.005  -1.975  -0.958  0.00  0.00    +0.387 N 
ATOM      2  C   LIG    1        2.079  -3.316  -1.664  0.00  0.00    -0.046 C 
ATOM      3  C   LIG    1        0.857  -3.566  -2.464  0.00  0.00    +0.142 C 
ATOM      4  O   LIG    1        0.565  -2.515  -3.340  0.00  0.00    -0.383 OA
ATOM      5  C   LIG    1        1.635  -1.621  -3.388  0.00  0.00    +0.142 C 
ATOM      6  C   LIG    1        1.928  -1.040  -2.010  0.00  0.00    -0.046 C 
ENDROOT
BRANCH   1   7
ATOM      7  C   LIG    1        3.155  -1.977  -0.153  0.00  0.00    -0.038 C 
BRANCH   7   8
ATOM      8  C   LIG    1        3.756  -0.768   0.391  0.00  0.00    -0.046 A 
ATOM      9  C   LIG    1        4.913  -1.007   1.174  0.00  0.00    +0.023 A 
ATOM     10  C   LIG    1        5.561   0.057   1.736  0.00  0.00    +0.065 A 
ATOM     11  C   LIG    1        5.137   1.367   1.575  0.00  0.00    +0.163 A 
ATOM     12  C   LIG    1        4.018   1.623   0.819  0.00  0.00    +0.162 A 
ATOM     13 BR   LIG    1        5.568  -2.784   1.448  0.00  0.00    -0.050 Br
ATOM     14  C   LIG    1        3.361   0.526   0.248  0.00  0.00    +0.052 A 
BRANCH  11  15
ATOM     15  O   LIG    1        5.840   2.406   2.173  0.00  0.00    -0.491 OA
ATOM     16  C   LIG    1        6.975   2.151   2.941  0.00  0.00    +0.277 C 
ENDBRANCH  11  15
BRANCH  12  17
ATOM     17  O   LIG    1        3.575   2.924   0.643  0.00  0.00    -0.491 OA
ATOM     18  C   LIG    1        2.416   3.122  -0.150  0.00  0.00    +0.277 C 
ENDBRANCH  12  17
ENDBRANCH   7   8
ENDBRANCH   1   7
BRANCH   1  19
ATOM     19  C   LIG    1        0.825  -2.148  -0.143  0.00  0.00    -0.046 C 
BRANCH  19  20
ATOM     20  C   LIG    1        0.636  -1.201   0.985  0.00  0.00    +0.142 C 
BRANCH  20  21
ATOM     21  O   LIG    1       -0.491  -1.499   1.711  0.00  0.00    -0.382 OA
BRANCH  21  22
ATOM     22  C   LIG    1       -1.696  -1.479   1.090  0.00  0.00    +0.160 C 
BRANCH  22  23
ATOM     23  C   LIG    1       -2.019  -0.134   0.532  0.00  0.00    +0.032 C 
BRANCH  23  24
ATOM     24  C   LIG    1       -3.362  -0.072  -0.149  0.00  0.00    -0.005 C 
ATOM     25  C   LIG    1       -4.478  -0.670   0.634  0.00  0.00    +0.004 C 
ATOM     26  C   LIG    1       -5.829  -0.057   0.275  0.00  0.00    +0.004 C 
ATOM     27  C   LIG    1       -5.712   1.235  -0.455  0.00  0.00    -0.005 C 
ATOM     28  C   LIG    1       -4.607   2.130   0.070  0.00  0.00    -0.029 C 
ATOM     29  C   LIG    1       -4.510   2.296   1.522  0.00  0.00    +0.011 C 
ATOM     30  C   LIG    1       -4.710   3.493  -0.631  0.00  0.00    +0.011 C 
ATOM     31  C   LIG    1       -4.812   1.075  -1.689  0.00  0.00    +0.008 C 
ATOM     32  C   LIG    1       -3.655   1.287  -0.692  0.00  0.00    -0.002 C 
ENDBRANCH  23  24
ENDBRANCH  22  23
ENDBRANCH  21  22
ENDBRANCH  20  21
ENDBRANCH  19  20
ENDBRANCH   1  19
TORSDOF 10
