REMARK  Name = molecules/DDIWRLSEGOVQQD-BJRLRHTOSA-N.pdb
REMARK                            x       y       z     vdW  Elec       q    Type
REMARK                         _______ _______ _______ _____ _____    ______ ____
ROOT
ATOM      1  C   LIG    1       -1.698  -0.595   0.541  0.00  0.00    +0.183 C 
ATOM      2  C   LIG    1       -1.412  -0.902   2.066  0.00  0.00    +0.038 C 
ATOM      3  C   LIG    1       -2.467  -0.213   2.894  0.00  0.00    +0.012 C 
ATOM      4  C   LIG    1       -0.032  -0.399   2.330  0.00  0.00    +0.012 C 
ATOM      5  C   LIG    1        0.451   0.134   1.034  0.00  0.00    +0.006 C 
ATOM      6  C   LIG    1        1.931   0.042   0.830  0.00  0.00    +0.034 C 
ATOM      7  C   LIG    1        2.550   1.117   1.741  0.00  0.00    +0.011 C 
ATOM      8  C   LIG    1        4.038   1.245   1.564  0.00  0.00    +0.032 C 
ATOM      9  C   LIG    1        4.429   1.136   0.129  0.00  0.00    -0.053 C 
ATOM     10  C   LIG    1        5.312   1.948  -0.347  0.00  0.00    +0.051 C 
ATOM     11  C   LIG    1        5.712   1.922  -1.743  0.00  0.00    +0.179 C 
ATOM     12  O   LIG    1        6.576   2.723  -2.188  0.00  0.00    -0.288 OA
ATOM     13  C   LIG    1        5.087   0.946  -2.609  0.00  0.00    +0.047 C 
ATOM     14  C   LIG    1        4.189   0.113  -2.138  0.00  0.00    -0.009 C 
ATOM     15  C   LIG    1        3.771   0.114  -0.738  0.00  0.00    +0.044 C 
ATOM     16  C   LIG    1        4.188  -1.218  -0.107  0.00  0.00    +0.023 C 
ATOM     17  C   LIG    1        2.295   0.380  -0.561  0.00  0.00    +0.153 C 
ATOM     18  F   LIG    1        2.166   1.776  -0.697  0.00  0.00    -0.238 F 
ATOM     19  C   LIG    1        1.447  -0.235  -1.624  0.00  0.00    +0.154 C 
ATOM     20  C   LIG    1       -0.034  -0.094  -1.302  0.00  0.00    +0.045 C 
ATOM     21  C   LIG    1       -0.300  -0.741   0.023  0.00  0.00    +0.021 C 
ATOM     22  C   LIG    1        0.179  -2.163   0.077  0.00  0.00    +0.016 C 
ENDROOT
BRANCH  19  23
ATOM     23  O   LIG    1        1.757  -1.548  -1.944  0.00  0.00    -0.389 OA
ATOM     24  H   LIG    1        1.599  -1.738  -2.920  0.00  0.00    +0.210 HD
ENDBRANCH  19  23
BRANCH   1  25
ATOM     25  C   LIG    1       -2.641  -1.630   0.090  0.00  0.00    +0.214 C 
ATOM     26  O   LIG    1       -2.209  -2.765  -0.170  0.00  0.00    -0.289 OA
BRANCH  25  27
ATOM     27  C   LIG    1       -4.075  -1.437  -0.073  0.00  0.00    +0.310 C 
BRANCH  27  28
ATOM     28  O   LIG    1       -4.750  -2.635  -0.458  0.00  0.00    -0.457 OA
BRANCH  28  29
ATOM     29  C   LIG    1       -4.475  -3.316  -1.607  0.00  0.00    +0.304 C 
ATOM     30  C   LIG    1       -5.217  -4.551  -1.936  0.00  0.00    +0.136 C 
ATOM     31  O   LIG    1       -3.594  -2.912  -2.400  0.00  0.00    -0.251 OA
ENDBRANCH  28  29
ENDBRANCH  27  28
ENDBRANCH  25  27
ENDBRANCH   1  25
BRANCH   1  32
ATOM     32  O   LIG    1       -2.178   0.704   0.585  0.00  0.00    -0.444 OA
BRANCH  32  33
ATOM     33  C   LIG    1       -2.660   1.517  -0.376  0.00  0.00    +0.376 C 
ATOM     34  O   LIG    1       -2.723   1.125  -1.549  0.00  0.00    -0.241 OA
BRANCH  33  35
ATOM     35  C   LIG    1       -3.120   2.887  -0.046  0.00  0.00    +0.211 A 
ATOM     36  C   LIG    1       -3.120   3.478   1.196  0.00  0.00    +0.056 A 
ATOM     37  C   LIG    1       -3.631   4.745   1.031  0.00  0.00    +0.042 A 
ATOM     38  C   LIG    1       -3.925   4.882  -0.309  0.00  0.00    +0.196 A 
ATOM     39  O   LIG    1       -3.604   3.765  -0.881  0.00  0.00    -0.456 OA
ENDBRANCH  33  35
ENDBRANCH  32  33
ENDBRANCH   1  32
TORSDOF 8
