REMARK  Name = molecules/DDPFHDCZUJFNAT-KPZHSHELSA-N.pdb
REMARK                            x       y       z     vdW  Elec       q    Type
REMARK                         _______ _______ _______ _____ _____    ______ ____
ROOT
ATOM      1  N   LIG    1       -3.691 -11.848   0.000  0.00  0.00    -0.271 NA
ATOM      2  H   LIG    1       -2.355 -11.400   0.000  0.00  0.00    +0.126 HD
ENDROOT
BRANCH   1   3
ATOM      3  C   LIG    1       -3.895 -13.334   0.000  0.00  0.00    +0.093 C 
BRANCH   3   4
ATOM      4  C   LIG    1       -2.461 -12.897   0.000  0.00  0.00    +0.227 C 
ATOM      5  O   LIG    1       -1.026 -12.459   0.000  0.00  0.00    -0.233 OA
ENDBRANCH   3   4
ENDBRANCH   1   3
BRANCH   1   6
ATOM      6  C   LIG    1       -3.895 -10.362   0.000  0.00  0.00    +0.184 C 
BRANCH   6   7
ATOM      7  O   LIG    1       -2.451  -9.957   0.000  0.00  0.00    -0.367 OA
ATOM      8  H   LIG    1       -2.993  -9.020   0.000  0.00  0.00    +0.212 HD
ENDBRANCH   6   7
BRANCH   6   9
ATOM      9  C   LIG    1       -4.493  -8.986   0.000  0.00  0.00    +0.020 C 
ATOM     10  C   LIG    1       -5.439  -7.823   0.000  0.00  0.00    +0.008 C 
ENDBRANCH   6   9
ENDBRANCH   1   6
TORSDOF 5
REMARK  Name = molecules/DDPFHDCZUJFNAT-KPZHSHELSA-N.pdb
REMARK                            x       y       z     vdW  Elec       q    Type
REMARK                         _______ _______ _______ _____ _____    ______ ____
ROOT
ATOM      1  N   LIG    1       -5.439 -15.874   0.000  0.00  0.00    -0.378 N 
ATOM      2  C   LIG    1       -4.493 -14.710   0.000  0.00  0.00    +0.121 C 
ATOM      3  C   LIG    1       -6.665 -16.739   0.000  0.00  0.00    +0.003 C 
ATOM      4  C   LIG    1       -8.078 -17.241   0.000  0.00  0.00    +0.050 C 
ATOM      5  H   LIG    1       -4.200 -16.545   0.000  0.00  0.00    +0.160 HD
ENDROOT
BRANCH   3   6
ATOM      6  C   LIG    1       -5.366 -17.489   0.000  0.00  0.00    +0.147 C 
BRANCH   6   7
ATOM      7  C   LIG    1       -4.067 -18.239   0.000  0.00  0.00    +0.257 C 
ATOM      8  N   LIG    1       -4.067 -19.739   0.000  0.00  0.00    -0.088 NA
ATOM      9  O   LIG    1       -2.768 -17.489   0.000  0.00  0.00    -0.272 OA
ENDBRANCH   6   7
ENDBRANCH   3   6
TORSDOF 2
REMARK  Name = molecules/DDPFHDCZUJFNAT-KPZHSHELSA-N.pdb
REMARK                            x       y       z     vdW  Elec       q    Type
REMARK                         _______ _______ _______ _____ _____    ______ ____
ROOT
ATOM      1  N   LIG    1       -9.575 -17.343   0.000  0.00  0.00    -0.163 NA
ATOM      2  H   LIG    1       -9.205 -18.524   0.000  0.00  0.00    +0.163 HD
ENDROOT
TORSDOF 0
REMARK  Name = molecules/DDPFHDCZUJFNAT-KPZHSHELSA-N.pdb
REMARK                            x       y       z     vdW  Elec       q    Type
REMARK                         _______ _______ _______ _____ _____    ______ ____
ROOT
ATOM      1  CA  GLY A  1      -14.251 -14.043   0.000  0.00  0.00    +0.106 C 
ENDROOT
BRANCH   1   2
ATOM      2  N   GLY A  1      -13.472 -15.324   0.000  0.00  0.00    -0.244 NA
ATOM      3  H   GLY A  1      -14.226 -16.515   0.000  0.00  0.00    +0.141 HD
ENDBRANCH   1   2
BRANCH   1   4
ATOM      4  C   GLY A  1      -15.088 -15.287   0.000  0.00  0.00    +0.228 C 
ATOM      5  O   GLY A  1      -15.925 -16.532   0.000  0.00  0.00    -0.233 OA
ENDBRANCH   1   4
TORSDOF 2
REMARK  Name = molecules/DDPFHDCZUJFNAT-KPZHSHELSA-N.pdb
REMARK                            x       y       z     vdW  Elec       q    Type
REMARK                         _______ _______ _______ _____ _____    ______ ____
ROOT
ATOM      1  N   LIG    1      -14.656 -11.098   0.000  0.00  0.00    -0.246 NA
ATOM      2  H   LIG    1      -16.041 -11.360   0.000  0.00  0.00    +0.141 HD
ENDROOT
BRANCH   1   3
ATOM      3  C   LIG    1      -14.251  -9.654   0.000  0.00  0.00    +0.080 C 
ATOM      4  C   LIG    1      -15.732  -9.892   0.000  0.00  0.00    +0.025 C 
ENDBRANCH   1   3
TORSDOF 1
REMARK  Name = molecules/DDPFHDCZUJFNAT-KPZHSHELSA-N.pdb
REMARK                            x       y       z     vdW  Elec       q    Type
REMARK                         _______ _______ _______ _____ _____    ______ ____
ROOT
ATOM      1  C   LIG    1      -14.802  -5.385   0.000  0.00  0.00    +0.111 C 
ATOM      2  C   LIG    1      -15.722  -6.569   0.000  0.00  0.00    -0.012 C 
ATOM      3  C   LIG    1      -16.907  -5.649   0.000  0.00  0.00    +0.036 C 
ENDROOT
BRANCH   1   5
ATOM      4  N   LIG    1      -12.375  -7.348   0.000  0.00  0.00    +0.004 NA
ATOM      5  N   LIG    1      -13.617  -6.304   0.000  0.00  0.00    -0.139 NA
ENDBRANCH   1   5
TORSDOF 1
REMARK  Name = molecules/DDPFHDCZUJFNAT-KPZHSHELSA-N.pdb
REMARK                            x       y       z     vdW  Elec       q    Type
REMARK                         _______ _______ _______ _____ _____    ______ ____
ROOT
ATOM      1  C   LIG    1       -6.665  -6.958   0.000  0.00  0.00    +0.000 C 
ENDROOT
TORSDOF 0
REMARK  Name = molecules/DDPFHDCZUJFNAT-KPZHSHELSA-N.pdb
REMARK                            x       y       z     vdW  Elec       q    Type
REMARK                         _______ _______ _______ _____ _____    ______ ____
ROOT
ATOM      1  C   LIG    1       -8.078  -6.455   0.000  0.00  0.00    +0.000 C 
ENDROOT
TORSDOF 0
REMARK  Name = molecules/DDPFHDCZUJFNAT-KPZHSHELSA-N.pdb
REMARK                            x       y       z     vdW  Elec       q    Type
REMARK                         _______ _______ _______ _____ _____    ______ ____
ROOT
ATOM      1  C   LIG    1       -9.575  -6.353   0.000  0.00  0.00    +0.000 C 
ENDROOT
TORSDOF 0
REMARK  Name = molecules/DDPFHDCZUJFNAT-KPZHSHELSA-N.pdb
REMARK                            x       y       z     vdW  Elec       q    Type
REMARK                         _______ _______ _______ _____ _____    ______ ____
ROOT
ATOM      1  C   LIG    1      -11.043  -6.658   0.000  0.00  0.00    +0.000 C 
ENDROOT
TORSDOF 0
REMARK  Name = molecules/DDPFHDCZUJFNAT-KPZHSHELSA-N.pdb
REMARK                            x       y       z     vdW  Elec       q    Type
REMARK                         _______ _______ _______ _____ _____    ______ ____
ROOT
ATOM      1  C   LIG    1      -12.228  -5.738   0.000  0.00  0.00    +0.169 C 
ATOM      2  O   LIG    1      -12.217  -4.941   0.000  0.00  0.00    -0.379 OA
ATOM      3  H   LIG    1      -11.431  -5.209   0.000  0.00  0.00    +0.211 HD
ENDROOT
TORSDOF 0
REMARK  Name = molecules/DDPFHDCZUJFNAT-KPZHSHELSA-N.pdb
REMARK                            x       y       z     vdW  Elec       q    Type
REMARK                         _______ _______ _______ _____ _____    ______ ____
ROOT
ATOM      1  N   LIG    1      -14.448  -2.811   0.000  0.00  0.00    +0.000 NA
ENDROOT
TORSDOF 0
REMARK  Name = molecules/DDPFHDCZUJFNAT-KPZHSHELSA-N.pdb
REMARK                            x       y       z     vdW  Elec       q    Type
REMARK                         _______ _______ _______ _____ _____    ______ ____
ROOT
ATOM      1  N   LIG    1      -10.955  -1.980   0.000  0.00  0.00    -0.163 NA
ATOM      2  H   LIG    1      -11.199  -1.195   0.000  0.00  0.00    +0.163 HD
ENDROOT
TORSDOF 0
REMARK  Name = molecules/DDPFHDCZUJFNAT-KPZHSHELSA-N.pdb
REMARK                            x       y       z     vdW  Elec       q    Type
REMARK                         _______ _______ _______ _____ _____    ______ ____
ROOT
ATOM      1  N   LIG    1       -8.789  -5.305   0.000  0.00  0.00    -0.163 NA
ATOM      2  H   LIG    1       -7.893  -5.029   0.000  0.00  0.00    +0.163 HD
ENDROOT
TORSDOF 0
REMARK  Name = molecules/DDPFHDCZUJFNAT-KPZHSHELSA-N.pdb
REMARK                            x       y       z     vdW  Elec       q    Type
REMARK                         _______ _______ _______ _____ _____    ______ ____
ROOT
ATOM      1  N   LIG    1       -5.199  -5.245   0.000  0.00  0.00    -0.163 NA
ATOM      2  H   LIG    1       -5.366  -6.208   0.000  0.00  0.00    +0.163 HD
ENDROOT
TORSDOF 0
REMARK  Name = molecules/DDPFHDCZUJFNAT-KPZHSHELSA-N.pdb
REMARK                            x       y       z     vdW  Elec       q    Type
REMARK                         _______ _______ _______ _____ _____    ______ ____
ROOT
ATOM      1  N   LIG    1       -6.853  -3.706   0.000  0.00  0.00    +0.000 NA
ENDROOT
TORSDOF 0
REMARK  Name = molecules/DDPFHDCZUJFNAT-KPZHSHELSA-N.pdb
REMARK                            x       y       z     vdW  Elec       q    Type
REMARK                         _______ _______ _______ _____ _____    ______ ____
ROOT
ATOM      1  N   LIG    1       -5.631  -1.806   0.000  0.00  0.00    -0.273 NA
ATOM      2  H   LIG    1       -6.076  -2.688   0.000  0.00  0.00    +0.137 HD
ATOM      3  H   LIG    1       -6.152  -0.794   0.000  0.00  0.00    +0.137 HD
ENDROOT
TORSDOF 0
REMARK  Name = molecules/DDPFHDCZUJFNAT-KPZHSHELSA-N.pdb
REMARK                            x       y       z     vdW  Elec       q    Type
REMARK                         _______ _______ _______ _____ _____    ______ ____
ROOT
ATOM      1  N   LIG    1       -5.692   1.785   0.000  0.00  0.00    -0.163 NA
ATOM      2  H   LIG    1       -6.482   1.153   0.000  0.00  0.00    +0.163 HD
ENDROOT
TORSDOF 0
REMARK  Name = molecules/DDPFHDCZUJFNAT-KPZHSHELSA-N.pdb
REMARK                            x       y       z     vdW  Elec       q    Type
REMARK                         _______ _______ _______ _____ _____    ______ ____
ROOT
ATOM      1  N   LIG    1       -9.283   1.724   0.000  0.00  0.00    -0.302 NA
ATOM      2  C   LIG    1       -8.609   2.592   0.000  0.00  0.00    +0.094 C 
ATOM      3  C   LIG    1       -8.320   1.513   0.000  0.00  0.00    +0.104 C 
ATOM      4  H   LIG    1       -9.805   1.300   0.000  0.00  0.00    +0.123 HD
ENDROOT
BRANCH   3   5
ATOM      5  C   LIG    1       -7.425   1.672   0.000  0.00  0.00    -0.015 C 
ATOM      6  C   LIG    1       -6.931   2.080   0.000  0.00  0.00    -0.004 C 
ENDBRANCH   3   5
TORSDOF 1
REMARK  Name = molecules/DDPFHDCZUJFNAT-KPZHSHELSA-N.pdb
REMARK                            x       y       z     vdW  Elec       q    Type
REMARK                         _______ _______ _______ _____ _____    ______ ____
ROOT
ATOM      1  N   LIG    1       -7.629   0.186   0.000  0.00  0.00    +0.000 NA
ENDROOT
TORSDOF 0
REMARK  Name = molecules/DDPFHDCZUJFNAT-KPZHSHELSA-N.pdb
REMARK                            x       y       z     vdW  Elec       q    Type
REMARK                         _______ _______ _______ _____ _____    ______ ____
ROOT
ATOM      1  N   LIG    1       -4.038   0.246   0.000  0.00  0.00    +0.000 NA
ENDROOT
TORSDOF 0
REMARK  Name = molecules/DDPFHDCZUJFNAT-KPZHSHELSA-N.pdb
REMARK                            x       y       z     vdW  Elec       q    Type
REMARK                         _______ _______ _______ _____ _____    ______ ____
ROOT
ATOM      1  N   LIG    1       -4.099   3.837   0.000  0.00  0.00    -0.163 NA
ATOM      2  H   LIG    1       -3.665   4.469   0.000  0.00  0.00    +0.163 HD
ENDROOT
TORSDOF 0
REMARK  Name = molecules/DDPFHDCZUJFNAT-KPZHSHELSA-N.pdb
REMARK                            x       y       z     vdW  Elec       q    Type
REMARK                         _______ _______ _______ _____ _____    ______ ____
ROOT
ATOM      1  N   LIG    1       -7.689   3.776   0.000  0.00  0.00    -0.166 NA
ATOM      2  C   LIG    1       -8.063   4.858   0.000  0.00  0.00    +0.166 C 
ENDROOT
TORSDOF 0
REMARK  Name = molecules/DDPFHDCZUJFNAT-KPZHSHELSA-N.pdb
REMARK                            x       y       z     vdW  Elec       q    Type
REMARK                         _______ _______ _______ _____ _____    ______ ____
ROOT
ATOM      1  N   LIG    1       -9.590   4.998   0.000  0.00  0.00    +0.000 NA
ENDROOT
TORSDOF 0
REMARK  Name = molecules/DDPFHDCZUJFNAT-KPZHSHELSA-N.pdb
REMARK                            x       y       z     vdW  Elec       q    Type
REMARK                         _______ _______ _______ _____ _____    ______ ____
ROOT
ATOM      1  N   LIG    1      -13.181   4.937   0.000  0.00  0.00    +0.000 NA
ENDROOT
TORSDOF 0
REMARK  Name = molecules/DDPFHDCZUJFNAT-KPZHSHELSA-N.pdb
REMARK                            x       y       z     vdW  Elec       q    Type
REMARK                         _______ _______ _______ _____ _____    ______ ____
ROOT
ATOM      1  N   LIG    1      -13.120   1.346   0.000  0.00  0.00    -0.241 NA
ATOM      2  C   LIG    1      -12.572   2.379   0.000  0.00  0.00    +0.142 C 
ENDROOT
BRANCH   1   3
ATOM      3  C   LIG    1      -14.238   2.124   0.000  0.00  0.00    +0.080 C 
ATOM      4  C   LIG    1      -15.008   2.027   0.000  0.00  0.00    +0.019 C 
ENDBRANCH   1   3
TORSDOF 1
REMARK  Name = molecules/DDPFHDCZUJFNAT-KPZHSHELSA-N.pdb
REMARK                            x       y       z     vdW  Elec       q    Type
REMARK                         _______ _______ _______ _____ _____    ______ ____
ROOT
ATOM      1  N   LIG    1      -16.494   2.231   0.000  0.00  0.00    +0.000 NA
ENDROOT
TORSDOF 0
REMARK  Name = molecules/DDPFHDCZUJFNAT-KPZHSHELSA-N.pdb
REMARK                            x       y       z     vdW  Elec       q    Type
REMARK                         _______ _______ _______ _____ _____    ______ ____
ROOT
ATOM      1  N   LIG    1      -15.467   5.673   0.000  0.00  0.00    +0.000 NA
ENDROOT
TORSDOF 0
REMARK  Name = molecules/DDPFHDCZUJFNAT-KPZHSHELSA-N.pdb
REMARK                            x       y       z     vdW  Elec       q    Type
REMARK                         _______ _______ _______ _____ _____    ______ ____
ROOT
ATOM      1  N   LIG    1      -12.026   4.645   0.000  0.00  0.00    -0.163 NA
ATOM      2  H   LIG    1      -12.700   4.363   0.000  0.00  0.00    +0.163 HD
ENDROOT
TORSDOF 0
REMARK  Name = molecules/DDPFHDCZUJFNAT-KPZHSHELSA-N.pdb
REMARK                            x       y       z     vdW  Elec       q    Type
REMARK                         _______ _______ _______ _____ _____    ______ ____
ROOT
ATOM      1  N   LIG    1       -8.886   2.902   0.000  0.00  0.00    +0.000 NA
ENDROOT
TORSDOF 0
REMARK  Name = molecules/DDPFHDCZUJFNAT-KPZHSHELSA-N.pdb
REMARK                            x       y       z     vdW  Elec       q    Type
REMARK                         _______ _______ _______ _____ _____    ______ ____
ROOT
ATOM      1  N   LIG    1       -7.143   6.043   0.000  0.00  0.00    -0.163 NA
ATOM      2  H   LIG    1       -6.211   5.936   0.000  0.00  0.00    +0.163 HD
ENDROOT
TORSDOF 0
REMARK  Name = molecules/DDPFHDCZUJFNAT-KPZHSHELSA-N.pdb
REMARK                            x       y       z     vdW  Elec       q    Type
REMARK                         _______ _______ _______ _____ _____    ______ ____
ROOT
ATOM      1  N   LIG    1       -7.356  10.005   0.000  0.00  0.00    +0.000 NA
ENDROOT
TORSDOF 0
REMARK  Name = molecules/DDPFHDCZUJFNAT-KPZHSHELSA-N.pdb
REMARK                            x       y       z     vdW  Elec       q    Type
REMARK                         _______ _______ _______ _____ _____    ______ ____
ROOT
ATOM      1  C   LIG    1       -9.311  10.828   0.000  0.00  0.00    +0.066 C 
ATOM      2  C   LIG    1       -7.922  11.395   0.000  0.00  0.00    -0.004 C 
ATOM      3  C   LIG    1       -6.533  11.961   0.000  0.00  0.00    +0.037 C 
ENDROOT
BRANCH   1   4
ATOM      4  N   LIG    1      -10.496  11.748   0.000  0.00  0.00    -0.242 NA
ATOM      5  C   LIG    1      -11.885  11.182   0.000  0.00  0.00    +0.142 C 
ENDBRANCH   1   4
TORSDOF 1
REMARK  Name = molecules/DDPFHDCZUJFNAT-KPZHSHELSA-N.pdb
REMARK                            x       y       z     vdW  Elec       q    Type
REMARK                         _______ _______ _______ _____ _____    ______ ____
ROOT
ATOM      1  N   LIG    1      -14.459  11.536   0.000  0.00  0.00    +0.000 NA
ENDROOT
TORSDOF 0
REMARK  Name = molecules/DDPFHDCZUJFNAT-KPZHSHELSA-N.pdb
REMARK                            x       y       z     vdW  Elec       q    Type
REMARK                         _______ _______ _______ _____ _____    ______ ____
ROOT
ATOM      1  N   LIG    1      -16.201   8.396   0.000  0.00  0.00    -0.163 NA
ATOM      2  H   LIG    1      -16.092   7.235   0.000  0.00  0.00    +0.163 HD
ENDROOT
TORSDOF 0
REMARK  Name = molecules/DDPFHDCZUJFNAT-KPZHSHELSA-N.pdb
REMARK                            x       y       z     vdW  Elec       q    Type
REMARK                         _______ _______ _______ _____ _____    ______ ____
ROOT
ATOM      1  N   LIG    1      -14.190   9.008   0.000  0.00  0.00    -0.163 NA
ATOM      2  H   LIG    1      -13.901   9.748   0.000  0.00  0.00    +0.163 HD
ENDROOT
TORSDOF 0
REMARK  Name = molecules/DDPFHDCZUJFNAT-KPZHSHELSA-N.pdb
REMARK                            x       y       z     vdW  Elec       q    Type
REMARK                         _______ _______ _______ _____ _____    ______ ____
ROOT
ATOM      1  O   HOH    1       -3.211 -15.489   0.000  0.00  0.00    -0.253 OA
ATOM      2  H   HOH    0       -3.041 -14.567   0.000  0.00  0.00    +0.253 HD
ENDROOT
TORSDOF 0
REMARK  Name = molecules/DDPFHDCZUJFNAT-KPZHSHELSA-N.pdb
REMARK                            x       y       z     vdW  Elec       q    Type
REMARK                         _______ _______ _______ _____ _____    ______ ____
ROOT
ATOM      1  O   HOH    1       -7.596 -18.661   0.000  0.00  0.00    -0.410 OA
ATOM      2  H   HOH    0       -6.982 -18.205   0.000  0.00  0.00    +0.205 HD
ATOM      3  H   HOH    0       -7.413 -19.464   0.000  0.00  0.00    +0.205 HD
ENDROOT
TORSDOF 0
REMARK  Name = molecules/DDPFHDCZUJFNAT-KPZHSHELSA-N.pdb
REMARK                            x       y       z     vdW  Elec       q    Type
REMARK                         _______ _______ _______ _____ _____    ______ ____
ROOT
ATOM      1  C   LIG    1      -12.375 -16.348   0.000  0.00  0.00    +0.000 C 
ENDROOT
TORSDOF 0
REMARK  Name = molecules/DDPFHDCZUJFNAT-KPZHSHELSA-N.pdb
REMARK                            x       y       z     vdW  Elec       q    Type
REMARK                         _______ _______ _______ _____ _____    ______ ____
ROOT
ATOM      1  C   LIG    1      -10.028 -21.422   0.000  0.00  0.00    +0.008 C 
ATOM      2  C   LIG    1      -10.366 -19.961   0.000  0.00  0.00    -0.008 C 
ENDROOT
TORSDOF 0
REMARK  Name = molecules/DDPFHDCZUJFNAT-KPZHSHELSA-N.pdb
REMARK                            x       y       z     vdW  Elec       q    Type
REMARK                         _______ _______ _______ _____ _____    ______ ____
ROOT
ATOM      1  C   LIG    1      -10.705 -18.499   0.000  0.00  0.00    +0.005 C 
ATOM      2  C   LIG    1      -11.043 -17.038   0.000  0.00  0.00    -0.005 C 
ENDROOT
TORSDOF 0
REMARK  Name = molecules/DDPFHDCZUJFNAT-KPZHSHELSA-N.pdb
REMARK                            x       y       z     vdW  Elec       q    Type
REMARK                         _______ _______ _______ _____ _____    ______ ____
ROOT
ATOM      1  C   LIG    1       -8.905 -19.622   0.000  0.00  0.00    +0.000 C 
ENDROOT
TORSDOF 0
REMARK  Name = molecules/DDPFHDCZUJFNAT-KPZHSHELSA-N.pdb
REMARK                            x       y       z     vdW  Elec       q    Type
REMARK                         _______ _______ _______ _____ _____    ______ ____
ROOT
ATOM      1  O   HOH    1      -13.240 -17.573   0.000  0.00  0.00    -0.253 OA
ATOM      2  H   HOH    0      -12.332 -17.807   0.000  0.00  0.00    +0.253 HD
ENDROOT
TORSDOF 0
REMARK  Name = molecules/DDPFHDCZUJFNAT-KPZHSHELSA-N.pdb
REMARK                            x       y       z     vdW  Elec       q    Type
REMARK                         _______ _______ _______ _____ _____    ______ ____
ROOT
ATOM      1  C   LIG    1      -14.656 -12.598   0.000  0.00  0.00    +0.000 C 
ENDROOT
TORSDOF 0
REMARK  Name = molecules/DDPFHDCZUJFNAT-KPZHSHELSA-N.pdb
REMARK                            x       y       z     vdW  Elec       q    Type
REMARK                         _______ _______ _______ _____ _____    ______ ____
ROOT
ATOM      1  O   HOH    1      -16.142 -12.802   0.000  0.00  0.00    -0.253 OA
ATOM      2  H   HOH    0      -15.692 -13.626   0.000  0.00  0.00    +0.253 HD
ENDROOT
TORSDOF 0
REMARK  Name = molecules/DDPFHDCZUJFNAT-KPZHSHELSA-N.pdb
REMARK                            x       y       z     vdW  Elec       q    Type
REMARK                         _______ _______ _______ _____ _____    ______ ____
ROOT
ATOM      1  C   LIG    1      -13.472  -8.372   0.000  0.00  0.00    +0.000 C 
ENDROOT
TORSDOF 0
REMARK  Name = molecules/DDPFHDCZUJFNAT-KPZHSHELSA-N.pdb
REMARK                            x       y       z     vdW  Elec       q    Type
REMARK                         _______ _______ _______ _____ _____    ______ ____
ROOT
ATOM      1  O   LIG    1      -15.970  -8.411   0.000  0.00  0.00    -0.393 OA
ATOM      2  C   LIG    1      -16.642  -7.754   0.000  0.00  0.00    +0.183 C 
ATOM      3  H   LIG    1      -15.206  -8.188   0.000  0.00  0.00    +0.209 HD
ENDROOT
TORSDOF 0
REMARK  Name = molecules/DDPFHDCZUJFNAT-KPZHSHELSA-N.pdb
REMARK                            x       y       z     vdW  Elec       q    Type
REMARK                         _______ _______ _______ _____ _____    ______ ____
ROOT
ATOM      1  C   LIG    1      -17.213 -10.130   0.000  0.00  0.00    -0.000 C 
ENDROOT
TORSDOF 0
REMARK  Name = molecules/DDPFHDCZUJFNAT-KPZHSHELSA-N.pdb
REMARK                            x       y       z     vdW  Elec       q    Type
REMARK                         _______ _______ _______ _____ _____    ______ ____
ROOT
ATOM      1  O   HOH    1      -14.635  -7.426   0.000  0.00  0.00    -0.253 OA
ATOM      2  H   HOH    0      -14.586  -8.192   0.000  0.00  0.00    +0.253 HD
ENDROOT
TORSDOF 0
REMARK  Name = molecules/DDPFHDCZUJFNAT-KPZHSHELSA-N.pdb
REMARK                            x       y       z     vdW  Elec       q    Type
REMARK                         _______ _______ _______ _____ _____    ______ ____
ROOT
ATOM      1  C   LIG    1      -13.882  -4.200   0.000  0.00  0.00    +0.217 C 
ATOM      2  O   LIG    1      -13.026  -4.426   0.000  0.00  0.00    -0.221 OA
ENDROOT
BRANCH   2   3
ATOM      3  O   LIG    1      -12.527  -3.883   0.000  0.00  0.00    -0.249 OA
ATOM      4  H   LIG    1      -11.732  -4.885   0.000  0.00  0.00    +0.253 HD
ENDBRANCH   2   3
TORSDOF 1
REMARK  Name = molecules/DDPFHDCZUJFNAT-KPZHSHELSA-N.pdb
REMARK                            x       y       z     vdW  Elec       q    Type
REMARK                         _______ _______ _______ _____ _____    ______ ____
ROOT
ATOM      1  C   LIG    1      -12.344  -2.546   0.000  0.00  0.00    +0.000 C 
ENDROOT
TORSDOF 0
REMARK  Name = molecules/DDPFHDCZUJFNAT-KPZHSHELSA-N.pdb
REMARK                            x       y       z     vdW  Elec       q    Type
REMARK                         _______ _______ _______ _____ _____    ______ ____
ROOT
ATOM      1  C   LIG    1      -17.083   1.134   0.000  0.00  0.00    -0.000 C 
ENDROOT
TORSDOF 0
REMARK  Name = molecules/DDPFHDCZUJFNAT-KPZHSHELSA-N.pdb
REMARK                            x       y       z     vdW  Elec       q    Type
REMARK                         _______ _______ _______ _____ _____    ______ ____
ROOT
ATOM      1  C   LIG    1      -14.713  -0.706   0.000  0.00  0.00    +0.000 C 
ENDROOT
TORSDOF 0
REMARK  Name = molecules/DDPFHDCZUJFNAT-KPZHSHELSA-N.pdb
REMARK                            x       y       z     vdW  Elec       q    Type
REMARK                         _______ _______ _______ _____ _____    ______ ____
ROOT
ATOM      1  C   LIG    1      -13.528  -1.626   0.000  0.00  0.00    +0.012 C 
ATOM      2  C   LIG    1      -14.177  -0.838   0.000  0.00  0.00    -0.009 C 
ATOM      3  C   LIG    1      -12.691  -1.043   0.000  0.00  0.00    -0.004 C 
ENDROOT
TORSDOF 0
REMARK  Name = molecules/DDPFHDCZUJFNAT-KPZHSHELSA-N.pdb
REMARK                            x       y       z     vdW  Elec       q    Type
REMARK                         _______ _______ _______ _____ _____    ______ ____
ROOT
ATOM      1  C   LIG    1      -14.978   1.399   0.000  0.00  0.00    -0.010 C 
ATOM      2  C   LIG    1      -14.442   0.638   0.000  0.00  0.00    +0.010 C 
ENDROOT
TORSDOF 0
REMARK  Name = molecules/DDPFHDCZUJFNAT-KPZHSHELSA-N.pdb
REMARK                            x       y       z     vdW  Elec       q    Type
REMARK                         _______ _______ _______ _____ _____    ______ ____
ROOT
ATOM      1  C   LIG    1      -15.898   0.214   0.000  0.00  0.00    +0.000 C 
ENDROOT
TORSDOF 0
REMARK  Name = molecules/DDPFHDCZUJFNAT-KPZHSHELSA-N.pdb
REMARK                            x       y       z     vdW  Elec       q    Type
REMARK                         _______ _______ _______ _____ _____    ______ ____
ROOT
ATOM      1  C   LIG    1       -8.585  -3.819   0.000  0.00  0.00    +0.070 C 
ATOM      2  C   LIG    1       -8.284  -3.104   0.000  0.00  0.00    +0.269 C 
ATOM      3  O   LIG    1       -7.416  -3.731   0.000  0.00  0.00    -0.190 OA
ENDROOT
BRANCH   2   4
ATOM      4  O   LIG    1       -7.491  -2.793   0.000  0.00  0.00    -0.326 OA
ATOM      5  C   LIG    1       -7.364  -1.919   0.000  0.00  0.00    +0.177 C 
ENDBRANCH   2   4
TORSDOF 1
REMARK  Name = molecules/DDPFHDCZUJFNAT-KPZHSHELSA-N.pdb
REMARK                            x       y       z     vdW  Elec       q    Type
REMARK                         _______ _______ _______ _____ _____    ______ ____
ROOT
ATOM      1  C   LIG    1       -9.770  -2.900   0.000  0.00  0.00    +0.279 C 
ATOM      2  O   LIG    1       -9.222  -1.866   0.000  0.00  0.00    -0.279 OA
ENDROOT
TORSDOF 0
REMARK  Name = molecules/DDPFHDCZUJFNAT-KPZHSHELSA-N.pdb
REMARK                            x       y       z     vdW  Elec       q    Type
REMARK                         _______ _______ _______ _____ _____    ______ ____
ROOT
ATOM      1  C   LIG    1       -6.685  -5.040   0.000  0.00  0.00    -0.000 C 
ENDROOT
TORSDOF 0
REMARK  Name = molecules/DDPFHDCZUJFNAT-KPZHSHELSA-N.pdb
REMARK                            x       y       z     vdW  Elec       q    Type
REMARK                         _______ _______ _______ _____ _____    ______ ____
ROOT
ATOM      1  C   LIG    1      -10.364  -9.780   0.000  0.00  0.00    +0.022 C 
ATOM      2  C   LIG    1       -9.444  -8.595   0.000  0.00  0.00    -0.003 C 
ENDROOT
BRANCH   1   3
ATOM      3  C   LIG    1      -11.284 -10.965   0.000  0.00  0.00    +0.124 C 
ATOM      4  N   LIG    1      -12.204 -12.149   0.000  0.00  0.00    -0.143 NA
ENDBRANCH   1   3
TORSDOF 1
REMARK  Name = molecules/DDPFHDCZUJFNAT-KPZHSHELSA-N.pdb
REMARK                            x       y       z     vdW  Elec       q    Type
REMARK                         _______ _______ _______ _____ _____    ______ ____
ROOT
ATOM      1  C   LIG    1       -8.524  -7.410   0.000  0.00  0.00    +0.000 C 
ENDROOT
TORSDOF 0
REMARK  Name = molecules/DDPFHDCZUJFNAT-KPZHSHELSA-N.pdb
REMARK                            x       y       z     vdW  Elec       q    Type
REMARK                         _______ _______ _______ _____ _____    ______ ____
ROOT
ATOM      1  C   LIG    1       -7.604  -6.225   0.000  0.00  0.00    +0.000 C 
ENDROOT
TORSDOF 0
REMARK  Name = molecules/DDPFHDCZUJFNAT-KPZHSHELSA-N.pdb
REMARK                            x       y       z     vdW  Elec       q    Type
REMARK                         _______ _______ _______ _____ _____    ______ ____
ROOT
ATOM      1  C   LIG    1       -5.463  -3.140   0.000  0.00  0.00    +0.000 C 
ENDROOT
TORSDOF 0
REMARK  Name = molecules/DDPFHDCZUJFNAT-KPZHSHELSA-N.pdb
REMARK                            x       y       z     vdW  Elec       q    Type
REMARK                         _______ _______ _______ _____ _____    ______ ____
ROOT
ATOM      1  C   LIG    1       -0.724  -6.820   0.000  0.00  0.00    +0.044 C 
ATOM      2  C   LIG    1       -1.909  -5.900   0.000  0.00  0.00    +0.185 C 
ATOM      3  O   LIG    1       -0.996  -4.872   0.000  0.00  0.00    -0.229 OA
ENDROOT
TORSDOF 0
REMARK  Name = molecules/DDPFHDCZUJFNAT-KPZHSHELSA-N.pdb
REMARK                            x       y       z     vdW  Elec       q    Type
REMARK                         _______ _______ _______ _____ _____    ______ ____
ROOT
ATOM      1  C   LIG    1       -3.094  -4.980   0.000  0.00  0.00    -0.000 C 
ENDROOT
TORSDOF 0
REMARK  Name = molecules/DDPFHDCZUJFNAT-KPZHSHELSA-N.pdb
REMARK                            x       y       z     vdW  Elec       q    Type
REMARK                         _______ _______ _______ _____ _____    ______ ____
ROOT
ATOM      1  C   LIG    1       -4.279  -4.060   0.000  0.00  0.00    +0.000 C 
ENDROOT
TORSDOF 0
REMARK  Name = molecules/DDPFHDCZUJFNAT-KPZHSHELSA-N.pdb
REMARK                            x       y       z     vdW  Elec       q    Type
REMARK                         _______ _______ _______ _____ _____    ______ ____
ROOT
ATOM      1  C   LIG    1       -0.989  -4.715   0.000  0.00  0.00    +0.000 C 
ENDROOT
TORSDOF 0
REMARK  Name = molecules/DDPFHDCZUJFNAT-KPZHSHELSA-N.pdb
REMARK                            x       y       z     vdW  Elec       q    Type
REMARK                         _______ _______ _______ _____ _____    ______ ____
ROOT
ATOM      1  O   LIG    1       -5.080  -1.690   0.000  0.00  0.00    -0.379 OA
ATOM      2  C   LIG    1       -4.712  -0.621   0.000  0.00  0.00    +0.169 C 
ATOM      3  H   LIG    1       -5.668  -2.018   0.000  0.00  0.00    +0.211 HD
ENDROOT
TORSDOF 0
REMARK  Name = molecules/DDPFHDCZUJFNAT-KPZHSHELSA-N.pdb
REMARK                            x       y       z     vdW  Elec       q    Type
REMARK                         _______ _______ _______ _____ _____    ______ ____
ROOT
ATOM      1  C   LIG    1       -7.117  -1.601   0.000  0.00  0.00    +0.279 C 
ATOM      2  O   LIG    1       -6.709  -0.962   0.000  0.00  0.00    -0.279 OA
ENDROOT
TORSDOF 0
REMARK  Name = molecules/DDPFHDCZUJFNAT-KPZHSHELSA-N.pdb
REMARK                            x       y       z     vdW  Elec       q    Type
REMARK                         _______ _______ _______ _____ _____    ______ ____
ROOT
ATOM      1  C   LIG    1       -8.957  -3.971   0.000  0.00  0.00    +0.109 C 
ATOM      2  N   LIG    1       -9.783  -3.056   0.000  0.00  0.00    -0.250 NA
ATOM      3  H   LIG    1       -9.222  -1.866   0.000  0.00  0.00    +0.141 HD
ENDROOT
TORSDOF 0
REMARK  Name = molecules/DDPFHDCZUJFNAT-KPZHSHELSA-N.pdb
REMARK                            x       y       z     vdW  Elec       q    Type
REMARK                         _______ _______ _______ _____ _____    ______ ____
ROOT
ATOM      1  O   LIG    1       -9.877  -5.156   0.000  0.00  0.00    -0.274 OA
ATOM      2  C   LIG    1      -10.292  -4.467   0.000  0.00  0.00    +0.210 C 
ENDROOT
BRANCH   1   3
ATOM      3  N   LIG    1       -9.107  -5.387   0.000  0.00  0.00    -0.111 NA
ATOM      4  H   LIG    1       -8.992  -6.367   0.000  0.00  0.00    +0.176 HD
ENDBRANCH   1   3
TORSDOF 1
REMARK  Name = molecules/DDPFHDCZUJFNAT-KPZHSHELSA-N.pdb
REMARK                            x       y       z     vdW  Elec       q    Type
REMARK                         _______ _______ _______ _____ _____    ______ ____
ROOT
ATOM      1  C   LIG    1       -8.037  -2.786   0.000  0.00  0.00    +0.000 C 
ENDROOT
TORSDOF 0
REMARK  Name = molecules/DDPFHDCZUJFNAT-KPZHSHELSA-N.pdb
REMARK                            x       y       z     vdW  Elec       q    Type
REMARK                         _______ _______ _______ _____ _____    ______ ____
ROOT
ATOM      1  O   LIG    1       -7.849  -0.292   0.000  0.00  0.00    -0.232 OA
ATOM      2  C   LIG    1       -9.018  -0.380   0.000  0.00  0.00    +0.232 C 
ENDROOT
TORSDOF 0
REMARK  Name = molecules/DDPFHDCZUJFNAT-KPZHSHELSA-N.pdb
REMARK                            x       y       z     vdW  Elec       q    Type
REMARK                         _______ _______ _______ _____ _____    ______ ____
ROOT
ATOM      1  C   LIG    1       -5.896   0.299   0.000  0.00  0.00    +0.000 C 
ENDROOT
TORSDOF 0
REMARK  Name = molecules/DDPFHDCZUJFNAT-KPZHSHELSA-N.pdb
REMARK                            x       y       z     vdW  Elec       q    Type
REMARK                         _______ _______ _______ _____ _____    ______ ____
ROOT
ATOM      1  C   LIG    1       -3.527  -1.541   0.000  0.00  0.00    -0.000 C 
ENDROOT
TORSDOF 0
REMARK  Name = molecules/DDPFHDCZUJFNAT-KPZHSHELSA-N.pdb
REMARK                            x       y       z     vdW  Elec       q    Type
REMARK                         _______ _______ _______ _____ _____    ______ ____
ROOT
ATOM      1  C   LIG    1       -2.342  -2.461   0.000  0.00  0.00    +0.000 C 
ENDROOT
TORSDOF 0
REMARK  Name = molecules/DDPFHDCZUJFNAT-KPZHSHELSA-N.pdb
REMARK                            x       y       z     vdW  Elec       q    Type
REMARK                         _______ _______ _______ _____ _____    ______ ____
ROOT
ATOM      1  C   LIG    1       -1.157  -3.381   0.000  0.00  0.00    +0.000 C 
ENDROOT
TORSDOF 0
REMARK  Name = molecules/DDPFHDCZUJFNAT-KPZHSHELSA-N.pdb
REMARK                            x       y       z     vdW  Elec       q    Type
REMARK                         _______ _______ _______ _____ _____    ______ ____
ROOT
ATOM      1  N   LIG    1        0.232  -2.814   0.000  0.00  0.00    +0.379 N 
ATOM      2  C   LIG    1        0.436  -1.329   0.000  0.00  0.00    -0.111 C 
ATOM      3  H   LIG    1        1.365  -3.726   0.000  0.00  0.00    -0.089 HD
ATOM      4  H   LIG    1       -0.743  -2.256   0.000  0.00  0.00    -0.089 HD
ATOM      5  H   LIG    1        0.294  -3.939   0.000  0.00  0.00    -0.089 HD
ENDROOT
TORSDOF 0
REMARK  Name = molecules/DDPFHDCZUJFNAT-KPZHSHELSA-N.pdb
REMARK                            x       y       z     vdW  Elec       q    Type
REMARK                         _______ _______ _______ _____ _____    ______ ____
ROOT
ATOM      1  C   LIG    1       -7.797   1.520   0.000  0.00  0.00    +0.000 C 
ENDROOT
TORSDOF 0
REMARK  Name = molecules/DDPFHDCZUJFNAT-KPZHSHELSA-N.pdb
REMARK                            x       y       z     vdW  Elec       q    Type
REMARK                         _______ _______ _______ _____ _____    ______ ____
ROOT
ATOM      1  C   LIG    1       -5.957   3.890   0.000  0.00  0.00    +0.000 C 
ENDROOT
TORSDOF 0
REMARK  Name = molecules/DDPFHDCZUJFNAT-KPZHSHELSA-N.pdb
REMARK                            x       y       z     vdW  Elec       q    Type
REMARK                         _______ _______ _______ _____ _____    ______ ____
ROOT
ATOM      1  C   LIG    1       -5.037   5.074   0.000  0.00  0.00    +0.005 C 
ATOM      2  C   LIG    1       -4.364   5.942   0.000  0.00  0.00    -0.005 C 
ENDROOT
TORSDOF 0
REMARK  Name = molecules/DDPFHDCZUJFNAT-KPZHSHELSA-N.pdb
REMARK                            x       y       z     vdW  Elec       q    Type
REMARK                         _______ _______ _______ _____ _____    ______ ____
ROOT
ATOM      1  C   LIG    1       -4.117   6.259   0.000  0.00  0.00    -0.015 C 
ATOM      2  C   LIG    1       -3.444   7.127   0.000  0.00  0.00    -0.092 C 
ATOM      3  C   LIG    1       -2.524   8.312   0.000  0.00  0.00    +0.107 C 
ENDROOT
TORSDOF 0
REMARK  Name = molecules/DDPFHDCZUJFNAT-KPZHSHELSA-N.pdb
REMARK                            x       y       z     vdW  Elec       q    Type
REMARK                         _______ _______ _______ _____ _____    ______ ____
ROOT
ATOM      1  O   HOH    1       -4.683   7.648   0.000  0.00  0.00    -0.410 OA
ATOM      2  H   HOH    0       -5.548   6.862   0.000  0.00  0.00    +0.205 HD
ATOM      3  H   HOH    0       -4.371   8.306   0.000  0.00  0.00    +0.205 HD
ENDROOT
TORSDOF 0
REMARK  Name = molecules/DDPFHDCZUJFNAT-KPZHSHELSA-N.pdb
REMARK                            x       y       z     vdW  Elec       q    Type
REMARK                         _______ _______ _______ _____ _____    ______ ____
ROOT
ATOM      1  O   LIG    1       -2.725   5.702   0.000  0.00  0.00    -0.386 OA
ATOM      2  C   LIG    1       -2.259   6.207   0.000  0.00  0.00    +0.176 C 
ATOM      3  H   LIG    1       -3.179   5.022   0.000  0.00  0.00    +0.210 HD
ENDROOT
TORSDOF 0
REMARK  Name = molecules/DDPFHDCZUJFNAT-KPZHSHELSA-N.pdb
REMARK                            x       y       z     vdW  Elec       q    Type
REMARK                         _______ _______ _______ _____ _____    ______ ____
ROOT
ATOM      1  C   LIG    1       -6.877   2.705   0.000  0.00  0.00    +0.000 C 
ATOM      2  C   LIG    1       -6.204   3.572   0.000  0.00  0.00    +0.000 C 
ATOM      3  C   LIG    1       -7.497   3.469   0.000  0.00  0.00    +0.000 C 
ENDROOT
TORSDOF 0
REMARK  Name = molecules/DDPFHDCZUJFNAT-KPZHSHELSA-N.pdb
REMARK                            x       y       z     vdW  Elec       q    Type
REMARK                         _______ _______ _______ _____ _____    ______ ____
ROOT
ATOM      1  O   LIG    1       -7.066   0.210   0.000  0.00  0.00    -0.379 OA
ATOM      2  C   LIG    1       -6.365   0.691   0.000  0.00  0.00    +0.169 C 
ATOM      3  H   LIG    1       -7.754   0.124   0.000  0.00  0.00    +0.211 HD
ENDROOT
TORSDOF 0
REMARK  Name = molecules/DDPFHDCZUJFNAT-KPZHSHELSA-N.pdb
REMARK                            x       y       z     vdW  Elec       q    Type
REMARK                         _______ _______ _______ _____ _____    ______ ____
ROOT
ATOM      1  C   LIG    1      -13.757   3.299   0.000  0.00  0.00    +0.000 C 
ATOM      2  C   LIG    1      -12.916   2.832   0.000  0.00  0.00    +0.000 C 
ENDROOT
TORSDOF 0
REMARK  Name = molecules/DDPFHDCZUJFNAT-KPZHSHELSA-N.pdb
REMARK                            x       y       z     vdW  Elec       q    Type
REMARK                         _______ _______ _______ _____ _____    ______ ____
ROOT
ATOM      1  C   LIG    1      -11.387   1.459   0.000  0.00  0.00    +0.000 C 
ENDROOT
TORSDOF 0
REMARK  Name = molecules/DDPFHDCZUJFNAT-KPZHSHELSA-N.pdb
REMARK                            x       y       z     vdW  Elec       q    Type
REMARK                         _______ _______ _______ _____ _____    ______ ____
ROOT
ATOM      1  C   LIG    1      -10.203   0.539   0.000  0.00  0.00    +0.000 C 
ENDROOT
TORSDOF 0
REMARK  Name = molecules/DDPFHDCZUJFNAT-KPZHSHELSA-N.pdb
REMARK                            x       y       z     vdW  Elec       q    Type
REMARK                         _______ _______ _______ _____ _____    ______ ____
ROOT
ATOM      1  C   LIG    1      -13.492   1.194   0.000  0.00  0.00    +0.169 C 
ATOM      2  O   LIG    1      -13.896   0.663   0.000  0.00  0.00    -0.379 OA
ATOM      3  H   LIG    1      -14.776   0.418   0.000  0.00  0.00    +0.211 HD
ENDROOT
TORSDOF 0
REMARK  Name = molecules/DDPFHDCZUJFNAT-KPZHSHELSA-N.pdb
REMARK                            x       y       z     vdW  Elec       q    Type
REMARK                         _______ _______ _______ _____ _____    ______ ____
ROOT
ATOM      1  C   LIG    1       -5.524   0.451   0.000  0.00  0.00    -0.008 C 
ATOM      2  C   LIG    1       -6.240   0.752   0.000  0.00  0.00    +0.022 C 
ATOM      3  C   LIG    1       -5.055  -0.168   0.000  0.00  0.00    -0.013 C 
ENDROOT
TORSDOF 0
REMARK  Name = molecules/DDPFHDCZUJFNAT-KPZHSHELSA-N.pdb
REMARK                            x       y       z     vdW  Elec       q    Type
REMARK                         _______ _______ _______ _____ _____    ______ ____
ROOT
ATOM      1  C   LIG    1       -7.866  -4.544   0.000  0.00  0.00    +0.000 C 
ENDROOT
TORSDOF 0
REMARK  Name = molecules/DDPFHDCZUJFNAT-KPZHSHELSA-N.pdb
REMARK                            x       y       z     vdW  Elec       q    Type
REMARK                         _______ _______ _______ _____ _____    ______ ____
ROOT
ATOM      1  C   LIG    1       -6.444  -0.734   0.000  0.00  0.00    +0.000 C 
ENDROOT
TORSDOF 0
REMARK  Name = molecules/DDPFHDCZUJFNAT-KPZHSHELSA-N.pdb
REMARK                            x       y       z     vdW  Elec       q    Type
REMARK                         _______ _______ _______ _____ _____    ______ ____
ROOT
ATOM      1  O   HOH    1       -5.555   1.950   0.000  0.00  0.00    +0.000 OA
ENDROOT
TORSDOF 0
REMARK  Name = molecules/DDPFHDCZUJFNAT-KPZHSHELSA-N.pdb
REMARK                            x       y       z     vdW  Elec       q    Type
REMARK                         _______ _______ _______ _____ _____    ______ ____
ROOT
ATOM      1  C   LIG    1       -4.303   2.351   0.000  0.00  0.00    +0.000 C 
ENDROOT
TORSDOF 0
REMARK  Name = molecules/DDPFHDCZUJFNAT-KPZHSHELSA-N.pdb
REMARK                            x       y       z     vdW  Elec       q    Type
REMARK                         _______ _______ _______ _____ _____    ______ ____
ROOT
ATOM      1  C   LIG    1       -0.749  -0.409   0.000  0.00  0.00    -0.004 C 
ATOM      2  C   LIG    1       -1.933   0.511   0.000  0.00  0.00    +0.004 C 
ENDROOT
TORSDOF 0
REMARK  Name = molecules/DDPFHDCZUJFNAT-KPZHSHELSA-N.pdb
REMARK                            x       y       z     vdW  Elec       q    Type
REMARK                         _______ _______ _______ _____ _____    ______ ____
ROOT
ATOM      1  C   LIG    1       -3.118   1.431   0.000  0.00  0.00    +0.279 C 
ATOM      2  O   LIG    1       -3.607   0.225   0.000  0.00  0.00    -0.279 OA
ENDROOT
TORSDOF 0
REMARK  Name = molecules/DDPFHDCZUJFNAT-KPZHSHELSA-N.pdb
REMARK                            x       y       z     vdW  Elec       q    Type
REMARK                         _______ _______ _______ _____ _____    ______ ____
ROOT
ATOM      1  N   LIG    1        2.806  -3.168   0.000  0.00  0.00    +0.000 NA
ENDROOT
TORSDOF 0
REMARK  Name = molecules/DDPFHDCZUJFNAT-KPZHSHELSA-N.pdb
REMARK                            x       y       z     vdW  Elec       q    Type
REMARK                         _______ _______ _______ _____ _____    ______ ____
ROOT
ATOM      1  C   LIG    1        1.621  -2.248   0.000  0.00  0.00    +0.000 C 
ENDROOT
TORSDOF 0
REMARK  Name = molecules/DDPFHDCZUJFNAT-KPZHSHELSA-N.pdb
REMARK                            x       y       z     vdW  Elec       q    Type
REMARK                         _______ _______ _______ _____ _____    ______ ____
ROOT
ATOM      1  O   HOH    1       -5.613   1.620   0.000  0.00  0.00    -0.410 OA
ATOM      2  H   HOH    0       -6.056   2.286   0.000  0.00  0.00    +0.205 HD
ATOM      3  H   HOH    0       -5.446   2.293   0.000  0.00  0.00    +0.205 HD
ENDROOT
TORSDOF 0
REMARK  Name = molecules/DDPFHDCZUJFNAT-KPZHSHELSA-N.pdb
REMARK                            x       y       z     vdW  Elec       q    Type
REMARK                         _______ _______ _______ _____ _____    ______ ____
ROOT
ATOM      1  C   LIG    1       -5.284   4.757   0.000  0.00  0.00    +0.000 C 
ENDROOT
TORSDOF 0
REMARK  Name = molecules/DDPFHDCZUJFNAT-KPZHSHELSA-N.pdb
REMARK                            x       y       z     vdW  Elec       q    Type
REMARK                         _______ _______ _______ _____ _____    ______ ____
ROOT
ATOM      1  O   HOH    1       -5.051   2.612   0.000  0.00  0.00    -0.253 OA
ATOM      2  H   HOH    0       -4.382   2.516   0.000  0.00  0.00    +0.253 HD
ENDROOT
TORSDOF 0
REMARK  Name = molecules/DDPFHDCZUJFNAT-KPZHSHELSA-N.pdb
REMARK                            x       y       z     vdW  Elec       q    Type
REMARK                         _______ _______ _______ _____ _____    ______ ____
ROOT
ATOM      1  C   LIG    1       -9.794   3.512   0.000  0.00  0.00    +0.000 C 
ENDROOT
TORSDOF 0
REMARK  Name = molecules/DDPFHDCZUJFNAT-KPZHSHELSA-N.pdb
REMARK                            x       y       z     vdW  Elec       q    Type
REMARK                         _______ _______ _______ _____ _____    ______ ____
ROOT
ATOM      1  N   LIG    1       -5.259  -1.654   0.000  0.00  0.00    +0.000 NA
ENDROOT
TORSDOF 0
REMARK  Name = molecules/DDPFHDCZUJFNAT-KPZHSHELSA-N.pdb
REMARK                            x       y       z     vdW  Elec       q    Type
REMARK                         _______ _______ _______ _____ _____    ______ ____
ROOT
ATOM      1  O   LIG    1      -11.005   2.626   0.000  0.00  0.00    -0.218 OA
ATOM      2  O   LIG    1      -11.468   3.225   0.000  0.00  0.00    -0.038 OA
ATOM      3  H   LIG    1      -10.330   2.523   0.000  0.00  0.00    +0.256 HD
ENDROOT
TORSDOF 0
REMARK  Name = molecules/DDPFHDCZUJFNAT-KPZHSHELSA-N.pdb
REMARK                            x       y       z     vdW  Elec       q    Type
REMARK                         _______ _______ _______ _____ _____    ______ ____
ROOT
ATOM      1  C   LIG    1      -11.695   4.733   0.000  0.00  0.00    +0.000 C 
ENDROOT
TORSDOF 0
REMARK  Name = molecules/DDPFHDCZUJFNAT-KPZHSHELSA-N.pdb
REMARK                            x       y       z     vdW  Elec       q    Type
REMARK                         _______ _______ _______ _____ _____    ______ ____
ROOT
ATOM      1  O   HOH    1      -11.040   8.022   0.000  0.00  0.00    -0.253 OA
ATOM      2  H   HOH    0      -10.223   9.056   0.000  0.00  0.00    +0.253 HD
ENDROOT
TORSDOF 0
REMARK  Name = molecules/DDPFHDCZUJFNAT-KPZHSHELSA-N.pdb
REMARK                            x       y       z     vdW  Elec       q    Type
REMARK                         _______ _______ _______ _____ _____    ______ ____
ROOT
ATOM      1  C   LIG    1      -10.775   5.918   0.000  0.00  0.00    +0.228 C 
ATOM      2  C   LIG    1       -9.855   7.102   0.000  0.00  0.00    +0.073 C 
ATOM      3  O   LIG    1       -9.687   5.272   0.000  0.00  0.00    -0.301 OA
ENDROOT
TORSDOF 0
REMARK  Name = molecules/DDPFHDCZUJFNAT-KPZHSHELSA-N.pdb
REMARK                            x       y       z     vdW  Elec       q    Type
REMARK                         _______ _______ _______ _____ _____    ______ ____
ROOT
ATOM      1  C   LIG    1       -8.935   8.287   0.000  0.00  0.00    +0.174 C 
ATOM      2  C   LIG    1       -8.275   8.821   0.000  0.00  0.00    +0.047 C 
ATOM      3  O   LIG    1       -9.761   9.025   0.000  0.00  0.00    -0.221 OA
ENDROOT
TORSDOF 0
REMARK  Name = molecules/DDPFHDCZUJFNAT-KPZHSHELSA-N.pdb
REMARK                            x       y       z     vdW  Elec       q    Type
REMARK                         _______ _______ _______ _____ _____    ______ ____
ROOT
ATOM      1  O   HOH    1      -10.668   3.639   0.000  0.00  0.00    -0.253 OA
ATOM      2  H   HOH    0      -11.289   3.156   0.000  0.00  0.00    +0.253 HD
ENDROOT
TORSDOF 0
REMARK  Name = molecules/DDPFHDCZUJFNAT-KPZHSHELSA-N.pdb
REMARK                            x       y       z     vdW  Elec       q    Type
REMARK                         _______ _______ _______ _____ _____    ______ ____
ROOT
ATOM      1  C   LIG    1      -15.285   4.672   0.000  0.00  0.00    +0.000 C 
ENDROOT
TORSDOF 0
REMARK  Name = molecules/DDPFHDCZUJFNAT-KPZHSHELSA-N.pdb
REMARK                            x       y       z     vdW  Elec       q    Type
REMARK                         _______ _______ _______ _____ _____    ______ ____
ROOT
ATOM      1  C   LIG    1      -16.470   5.592   0.000  0.00  0.00    +0.004 C 
ATOM      2  C   LIG    1      -17.024   6.113   0.000  0.00  0.00    -0.013 C 
ATOM      3  C   LIG    1      -17.859   5.026   0.000  0.00  0.00    +0.009 C 
ENDROOT
TORSDOF 0
REMARK  Name = molecules/DDPFHDCZUJFNAT-KPZHSHELSA-N.pdb
REMARK                            x       y       z     vdW  Elec       q    Type
REMARK                         _______ _______ _______ _____ _____    ______ ____
ROOT
ATOM      1  C   LIG    1      -16.266   7.078   0.000  0.00  0.00    +0.000 C 
ENDROOT
TORSDOF 0
REMARK  Name = molecules/DDPFHDCZUJFNAT-KPZHSHELSA-N.pdb
REMARK                            x       y       z     vdW  Elec       q    Type
REMARK                         _______ _______ _______ _____ _____    ______ ____
ROOT
ATOM      1  C   LIG    1      -17.451   7.998   0.000  0.00  0.00    +0.031 C 
ATOM      2  C   LIG    1      -18.209   7.033   0.000  0.00  0.00    -0.061 C 
ATOM      3  C   LIG    1      -18.840   7.432   0.000  0.00  0.00    -0.000 C 
ATOM      4  C   LIG    1      -19.044   5.946   0.000  0.00  0.00    +0.031 C 
ENDROOT
TORSDOF 0
REMARK  Name = molecules/DDPFHDCZUJFNAT-KPZHSHELSA-N.pdb
REMARK                            x       y       z     vdW  Elec       q    Type
REMARK                         _______ _______ _______ _____ _____    ______ ____
ROOT
ATOM      1  O   HOH    1      -20.025   8.352   0.000  0.00  0.00    -0.253 OA
ATOM      2  H   HOH    0      -19.157   8.802   0.000  0.00  0.00    +0.253 HD
ENDROOT
TORSDOF 0
REMARK  Name = molecules/DDPFHDCZUJFNAT-KPZHSHELSA-N.pdb
REMARK                            x       y       z     vdW  Elec       q    Type
REMARK                         _______ _______ _______ _____ _____    ______ ____
ROOT
ATOM      1  C   LIG    1      -14.101   3.752   0.000  0.00  0.00    +0.000 C 
ENDROOT
TORSDOF 0
REMARK  Name = molecules/DDPFHDCZUJFNAT-KPZHSHELSA-N.pdb
REMARK                            x       y       z     vdW  Elec       q    Type
REMARK                         _______ _______ _______ _____ _____    ______ ____
ROOT
ATOM      1  C   LIG    1      -12.038   0.307   0.000  0.00  0.00    -0.000 C 
ENDROOT
TORSDOF 0
REMARK  Name = molecules/DDPFHDCZUJFNAT-KPZHSHELSA-N.pdb
REMARK                            x       y       z     vdW  Elec       q    Type
REMARK                         _______ _______ _______ _____ _____    ______ ____
ROOT
ATOM      1  O   HOH    1      -14.935   3.525   0.000  0.00  0.00    -0.410 OA
ATOM      2  H   HOH    0      -15.534   3.309   0.000  0.00  0.00    +0.205 HD
ATOM      3  H   HOH    0      -14.722   2.877   0.000  0.00  0.00    +0.205 HD
ENDROOT
TORSDOF 0
REMARK  Name = molecules/DDPFHDCZUJFNAT-KPZHSHELSA-N.pdb
REMARK                            x       y       z     vdW  Elec       q    Type
REMARK                         _______ _______ _______ _____ _____    ______ ____
ROOT
ATOM      1  C   LIG    1      -15.671   4.186   0.000  0.00  0.00    +0.000 C 
ENDROOT
TORSDOF 0
REMARK  Name = molecules/DDPFHDCZUJFNAT-KPZHSHELSA-N.pdb
REMARK                            x       y       z     vdW  Elec       q    Type
REMARK                         _______ _______ _______ _____ _____    ______ ____
ROOT
ATOM      1  N   LIG    1      -22.617   1.356   0.000  0.00  0.00    -0.102 NA
ENDROOT
BRANCH   1   2
ATOM      2  C   LIG    1      -23.802   2.276   0.000  0.00  0.00    +0.534 C 
ATOM      3  N   LIG    1      -23.597   3.762   0.000  0.00  0.00    +0.135 NA
ATOM      4  N   LIG    1      -25.191   1.710   0.000  0.00  0.00    +0.135 NA
ENDBRANCH   1   2
BRANCH   1   5
ATOM      5  C   LIG    1      -21.228   1.922   0.000  0.00  0.00    +0.244 C 
BRANCH   5   7
ATOM      6  C   LIG    1      -18.450   3.054   0.000  0.00  0.00    -0.001 C 
ATOM      7  C   LIG    1      -19.839   2.488   0.000  0.00  0.00    +0.045 C 
ENDBRANCH   5   7
ENDBRANCH   1   5
TORSDOF 3
REMARK  Name = molecules/DDPFHDCZUJFNAT-KPZHSHELSA-N.pdb
REMARK                            x       y       z     vdW  Elec       q    Type
REMARK                         _______ _______ _______ _____ _____    ______ ____
ROOT
ATOM      1  C   LIG    1      -17.061   3.620   0.000  0.00  0.00    +0.000 C 
ENDROOT
TORSDOF 0
REMARK  Name = molecules/DDPFHDCZUJFNAT-KPZHSHELSA-N.pdb
REMARK                            x       y       z     vdW  Elec       q    Type
REMARK                         _______ _______ _______ _____ _____    ______ ____
ROOT
ATOM      1  O   HOH    1      -15.057   2.818   0.000  0.00  0.00    -0.253 OA
ATOM      2  H   HOH    0      -14.556   2.252   0.000  0.00  0.00    +0.253 HD
ENDROOT
TORSDOF 0
REMARK  Name = molecules/DDPFHDCZUJFNAT-KPZHSHELSA-N.pdb
REMARK                            x       y       z     vdW  Elec       q    Type
REMARK                         _______ _______ _______ _____ _____    ______ ____
ROOT
ATOM      1  C   LIG    1      -13.512   4.850   0.000  0.00  0.00    +0.000 C 
ENDROOT
TORSDOF 0
REMARK  Name = molecules/DDPFHDCZUJFNAT-KPZHSHELSA-N.pdb
REMARK                            x       y       z     vdW  Elec       q    Type
REMARK                         _______ _______ _______ _____ _____    ______ ____
ROOT
ATOM      1  O   LIG    1      -13.255   8.194   0.000  0.00  0.00    -0.221 OA
ATOM      2  C   LIG    1      -14.395   7.521   0.000  0.00  0.00    +0.217 C 
ENDROOT
BRANCH   1   3
ATOM      3  O   LIG    1      -13.022   6.916   0.000  0.00  0.00    -0.249 OA
ATOM      4  H   LIG    1      -11.839   6.975   0.000  0.00  0.00    +0.253 HD
ENDBRANCH   1   3
TORSDOF 1
REMARK  Name = molecules/DDPFHDCZUJFNAT-KPZHSHELSA-N.pdb
REMARK                            x       y       z     vdW  Elec       q    Type
REMARK                         _______ _______ _______ _____ _____    ______ ____
ROOT
ATOM      1  C   LIG    1      -14.078   6.239   0.000  0.00  0.00    -0.000 C 
ENDROOT
TORSDOF 0
REMARK  Name = molecules/DDPFHDCZUJFNAT-KPZHSHELSA-N.pdb
REMARK                            x       y       z     vdW  Elec       q    Type
REMARK                         _______ _______ _______ _____ _____    ______ ____
ROOT
ATOM      1  C   LIG    1      -15.210   9.017   0.000  0.00  0.00    +0.000 C 
ENDROOT
TORSDOF 0
REMARK  Name = molecules/DDPFHDCZUJFNAT-KPZHSHELSA-N.pdb
REMARK                            x       y       z     vdW  Elec       q    Type
REMARK                         _______ _______ _______ _____ _____    ______ ____
ROOT
ATOM      1  C   LIG    1      -14.644   7.628   0.000  0.00  0.00    +0.000 C 
ATOM      2  C   LIG    1      -15.784   6.955   0.000  0.00  0.00    +0.000 C 
ENDROOT
TORSDOF 0
REMARK  Name = molecules/DDPFHDCZUJFNAT-KPZHSHELSA-N.pdb
REMARK                            x       y       z     vdW  Elec       q    Type
REMARK                         _______ _______ _______ _____ _____    ______ ____
ROOT
ATOM      1  O   HOH    1      -14.945   4.407   0.000  0.00  0.00    -0.253 OA
ATOM      2  H   HOH    0      -15.255   3.216   0.000  0.00  0.00    +0.253 HD
ENDROOT
TORSDOF 0
REMARK  Name = molecules/DDPFHDCZUJFNAT-KPZHSHELSA-N.pdb
REMARK                            x       y       z     vdW  Elec       q    Type
REMARK                         _______ _______ _______ _____ _____    ______ ____
ROOT
ATOM      1  C   LIG    1      -10.071   3.822   0.000  0.00  0.00    +0.176 C 
ATOM      2  O   LIG    1       -9.563   4.879   0.000  0.00  0.00    -0.386 OA
ATOM      3  H   LIG    1       -8.421   5.086   0.000  0.00  0.00    +0.210 HD
ENDROOT
TORSDOF 0
REMARK  Name = molecules/DDPFHDCZUJFNAT-KPZHSHELSA-N.pdb
REMARK                            x       y       z     vdW  Elec       q    Type
REMARK                         _______ _______ _______ _____ _____    ______ ____
ROOT
ATOM      1  C   LIG    1      -12.849   2.690   0.000  0.00  0.00    +0.000 C 
ATOM      2  C   LIG    1      -11.460   3.256   0.000  0.00  0.00    +0.000 C 
ENDROOT
TORSDOF 0
REMARK  Name = molecules/DDPFHDCZUJFNAT-KPZHSHELSA-N.pdb
REMARK                            x       y       z     vdW  Elec       q    Type
REMARK                         _______ _______ _______ _____ _____    ______ ____
ROOT
ATOM      1  O   HOH    1      -15.423   3.044   0.000  0.00  0.00    +0.000 OA
ENDROOT
TORSDOF 0
REMARK  Name = molecules/DDPFHDCZUJFNAT-KPZHSHELSA-N.pdb
REMARK                            x       y       z     vdW  Elec       q    Type
REMARK                         _______ _______ _______ _____ _____    ______ ____
ROOT
ATOM      1  C   LIG    1       -7.709   7.432   0.000  0.00  0.00    -0.000 C 
ENDROOT
TORSDOF 0
REMARK  Name = molecules/DDPFHDCZUJFNAT-KPZHSHELSA-N.pdb
REMARK                            x       y       z     vdW  Elec       q    Type
REMARK                         _______ _______ _______ _____ _____    ______ ____
ROOT
ATOM      1  O   HOH    1       -9.868   9.436   0.000  0.00  0.00    -0.253 OA
ATOM      2  H   HOH    0      -10.835   9.508   0.000  0.00  0.00    +0.253 HD
ENDROOT
TORSDOF 0
REMARK  Name = molecules/DDPFHDCZUJFNAT-KPZHSHELSA-N.pdb
REMARK                            x       y       z     vdW  Elec       q    Type
REMARK                         _______ _______ _______ _____ _____    ______ ____
ROOT
ATOM      1  C   LIG    1      -13.274  10.616   0.000  0.00  0.00    +0.169 C 
ATOM      2  O   LIG    1      -13.821   9.923   0.000  0.00  0.00    -0.379 OA
ATOM      3  H   LIG    1      -12.801   9.574   0.000  0.00  0.00    +0.211 HD
ENDROOT
TORSDOF 0
REMARK  Name = molecules/DDPFHDCZUJFNAT-KPZHSHELSA-N.pdb
REMARK                            x       y       z     vdW  Elec       q    Type
REMARK                         _______ _______ _______ _____ _____    ______ ____
ROOT
ATOM      1  O   HOH    1      -12.431   9.375   0.000  0.00  0.00    -0.253 OA
ATOM      2  H   HOH    0      -11.153   9.873   0.000  0.00  0.00    +0.253 HD
ENDROOT
TORSDOF 0
REMARK  Name = molecules/DDPFHDCZUJFNAT-KPZHSHELSA-N.pdb
REMARK                            x       y       z     vdW  Elec       q    Type
REMARK                         _______ _______ _______ _____ _____    ______ ____
ROOT
ATOM      1  C   LIG    1      -15.281   9.581   0.000  0.00  0.00    +0.000 C 
ENDROOT
TORSDOF 0
REMARK  Name = molecules/DDPFHDCZUJFNAT-KPZHSHELSA-N.pdb
REMARK                            x       y       z     vdW  Elec       q    Type
REMARK                         _______ _______ _______ _____ _____    ______ ____
ROOT
ATOM      1  C   LIG    1      -16.414  12.359   0.000  0.00  0.00    +0.115 C 
ATOM      2  C   LIG    1      -15.848  10.970   0.000  0.00  0.00    +0.029 C 
ATOM      3  C   LIG    1      -16.980  13.748   0.000  0.00  0.00    +0.038 C 
ENDROOT
BRANCH   1   4
ATOM      4  O   LIG    1      -17.803  11.793   0.000  0.00  0.00    -0.392 OA
ATOM      5  H   LIG    1      -17.295  10.577   0.000  0.00  0.00    +0.210 HD
ENDBRANCH   1   4
TORSDOF 1
REMARK  Name = molecules/DDPFHDCZUJFNAT-KPZHSHELSA-N.pdb
REMARK                            x       y       z     vdW  Elec       q    Type
REMARK                         _______ _______ _______ _____ _____    ______ ____
ROOT
ATOM      1  C   LIG    1      -17.701   8.444   0.000  0.00  0.00    +0.000 C 
ENDROOT
TORSDOF 0
REMARK  Name = molecules/DDPFHDCZUJFNAT-KPZHSHELSA-N.pdb
REMARK                            x       y       z     vdW  Elec       q    Type
REMARK                         _______ _______ _______ _____ _____    ______ ____
ROOT
ATOM      1  H   UNK    1      -13.511  -6.369   0.000  0.00  0.00    +0.000 HD
ENDROOT
TORSDOF 0
REMARK  Name = molecules/DDPFHDCZUJFNAT-KPZHSHELSA-N.pdb
REMARK                            x       y       z     vdW  Elec       q    Type
REMARK                         _______ _______ _______ _____ _____    ______ ____
ROOT
ATOM      1  H   UNK    1       -4.819  -6.457   0.000  0.00  0.00    +0.000 HD
ENDROOT
TORSDOF 0
REMARK  Name = molecules/DDPFHDCZUJFNAT-KPZHSHELSA-N.pdb
REMARK                            x       y       z     vdW  Elec       q    Type
REMARK                         _______ _______ _______ _____ _____    ______ ____
ROOT
ATOM      1  H   UNK    1       -8.936  -5.225   0.000  0.00  0.00    +0.000 HD
ENDROOT
TORSDOF 0
REMARK  Name = molecules/DDPFHDCZUJFNAT-KPZHSHELSA-N.pdb
REMARK                            x       y       z     vdW  Elec       q    Type
REMARK                         _______ _______ _______ _____ _____    ______ ____
ROOT
ATOM      1  H   UNK    1      -15.948  -2.789   0.000  0.00  0.00    +0.000 HD
ENDROOT
TORSDOF 0
REMARK  Name = molecules/DDPFHDCZUJFNAT-KPZHSHELSA-N.pdb
REMARK                            x       y       z     vdW  Elec       q    Type
REMARK                         _______ _______ _______ _____ _____    ______ ____
ROOT
ATOM      1  H   UNK    1      -10.750  -0.494   0.000  0.00  0.00    +0.000 HD
ENDROOT
TORSDOF 0
REMARK  Name = molecules/DDPFHDCZUJFNAT-KPZHSHELSA-N.pdb
REMARK                            x       y       z     vdW  Elec       q    Type
REMARK                         _______ _______ _______ _____ _____    ______ ____
ROOT
ATOM      1  H   UNK    1      -10.289  -5.336   0.000  0.00  0.00    +0.000 HD
ENDROOT
TORSDOF 0
REMARK  Name = molecules/DDPFHDCZUJFNAT-KPZHSHELSA-N.pdb
REMARK                            x       y       z     vdW  Elec       q    Type
REMARK                         _______ _______ _______ _____ _____    ______ ____
ROOT
ATOM      1  H   UNK    1       -4.467  -6.554   0.000  0.00  0.00    +0.000 HD
ENDROOT
TORSDOF 0
REMARK  Name = molecules/DDPFHDCZUJFNAT-KPZHSHELSA-N.pdb
REMARK                            x       y       z     vdW  Elec       q    Type
REMARK                         _______ _______ _______ _____ _____    ______ ____
ROOT
ATOM      1  H   UNK    1       -3.307  -1.063   0.000  0.00  0.00    +0.000 HD
ENDROOT
TORSDOF 0
REMARK  Name = molecules/DDPFHDCZUJFNAT-KPZHSHELSA-N.pdb
REMARK                            x       y       z     vdW  Elec       q    Type
REMARK                         _______ _______ _______ _____ _____    ______ ____
ROOT
ATOM      1  H   UNK    1       -2.614   4.050   0.000  0.00  0.00    +0.000 HD
ENDROOT
TORSDOF 0
REMARK  Name = molecules/DDPFHDCZUJFNAT-KPZHSHELSA-N.pdb
REMARK                            x       y       z     vdW  Elec       q    Type
REMARK                         _______ _______ _______ _____ _____    ______ ____
ROOT
ATOM      1  H   UNK    1      -17.552   1.167   0.000  0.00  0.00    +0.000 HD
ENDROOT
TORSDOF 0
REMARK  Name = molecules/DDPFHDCZUJFNAT-KPZHSHELSA-N.pdb
REMARK                            x       y       z     vdW  Elec       q    Type
REMARK                         _______ _______ _______ _____ _____    ______ ____
ROOT
ATOM      1  H   UNK    1       -9.444   1.510   0.000  0.00  0.00    +0.000 HD
ENDROOT
TORSDOF 0
REMARK  Name = molecules/DDPFHDCZUJFNAT-KPZHSHELSA-N.pdb
REMARK                            x       y       z     vdW  Elec       q    Type
REMARK                         _______ _______ _______ _____ _____    ______ ____
ROOT
ATOM      1  H   UNK    1       -5.905   9.622   0.000  0.00  0.00    +0.000 HD
ENDROOT
TORSDOF 0
REMARK  Name = molecules/DDPFHDCZUJFNAT-KPZHSHELSA-N.pdb
REMARK                            x       y       z     vdW  Elec       q    Type
REMARK                         _______ _______ _______ _____ _____    ______ ____
ROOT
ATOM      1  H   UNK    1      -10.291  13.234   0.000  0.00  0.00    +0.000 HD
ENDROOT
TORSDOF 0
REMARK  Name = molecules/DDPFHDCZUJFNAT-KPZHSHELSA-N.pdb
REMARK                            x       y       z     vdW  Elec       q    Type
REMARK                         _______ _______ _______ _____ _____    ______ ____
ROOT
ATOM      1  H   UNK    1      -14.075  12.986   0.000  0.00  0.00    +0.000 HD
ENDROOT
TORSDOF 0
REMARK  Name = molecules/DDPFHDCZUJFNAT-KPZHSHELSA-N.pdb
REMARK                            x       y       z     vdW  Elec       q    Type
REMARK                         _______ _______ _______ _____ _____    ______ ____
ROOT
ATOM      1  H   UNK    1        0.070 -13.483   0.000  0.00  0.00    +0.000 HD
ENDROOT
TORSDOF 0
REMARK  Name = molecules/DDPFHDCZUJFNAT-KPZHSHELSA-N.pdb
REMARK                            x       y       z     vdW  Elec       q    Type
REMARK                         _______ _______ _______ _____ _____    ______ ____
ROOT
ATOM      1  H   UNK    1       -2.768 -20.489   0.000  0.00  0.00    +0.000 HD
ENDROOT
TORSDOF 0
REMARK  Name = molecules/DDPFHDCZUJFNAT-KPZHSHELSA-N.pdb
REMARK                            x       y       z     vdW  Elec       q    Type
REMARK                         _______ _______ _______ _____ _____    ______ ____
ROOT
ATOM      1  H   UNK    1       -5.366 -20.489   0.000  0.00  0.00    +0.000 HD
ENDROOT
TORSDOF 0
REMARK  Name = molecules/DDPFHDCZUJFNAT-KPZHSHELSA-N.pdb
REMARK                            x       y       z     vdW  Elec       q    Type
REMARK                         _______ _______ _______ _____ _____    ______ ____
ROOT
ATOM      1  H   UNK    1       -8.391 -21.031   0.000  0.00  0.00    +0.000 HD
ENDROOT
TORSDOF 0
REMARK  Name = molecules/DDPFHDCZUJFNAT-KPZHSHELSA-N.pdb
REMARK                            x       y       z     vdW  Elec       q    Type
REMARK                         _______ _______ _______ _____ _____    ______ ____
ROOT
ATOM      1  H   UNK    1      -17.421 -16.430   0.000  0.00  0.00    +0.000 HD
ENDROOT
TORSDOF 0
REMARK  Name = molecules/DDPFHDCZUJFNAT-KPZHSHELSA-N.pdb
REMARK                            x       y       z     vdW  Elec       q    Type
REMARK                         _______ _______ _______ _____ _____    ______ ____
ROOT
ATOM      1  H   UNK    1      -17.802  -8.750   0.000  0.00  0.00    +0.000 HD
ENDROOT
TORSDOF 0
REMARK  Name = molecules/DDPFHDCZUJFNAT-KPZHSHELSA-N.pdb
REMARK                            x       y       z     vdW  Elec       q    Type
REMARK                         _______ _______ _______ _____ _____    ______ ____
ROOT
ATOM      1  H   UNK    1      -16.975 -11.611   0.000  0.00  0.00    +0.000 HD
ENDROOT
TORSDOF 0
REMARK  Name = molecules/DDPFHDCZUJFNAT-KPZHSHELSA-N.pdb
REMARK                            x       y       z     vdW  Elec       q    Type
REMARK                         _______ _______ _______ _____ _____    ______ ____
ROOT
ATOM      1  H   UNK    1      -18.003  -0.051   0.000  0.00  0.00    +0.000 HD
ENDROOT
TORSDOF 0
REMARK  Name = molecules/DDPFHDCZUJFNAT-KPZHSHELSA-N.pdb
REMARK                            x       y       z     vdW  Elec       q    Type
REMARK                         _______ _______ _______ _____ _____    ______ ____
ROOT
ATOM      1  H   UNK    1      -15.771  -1.770   0.000  0.00  0.00    +0.000 HD
ENDROOT
TORSDOF 0
REMARK  Name = molecules/DDPFHDCZUJFNAT-KPZHSHELSA-N.pdb
REMARK                            x       y       z     vdW  Elec       q    Type
REMARK                         _______ _______ _______ _____ _____    ______ ____
ROOT
ATOM      1  H   UNK    1      -16.818  -0.971   0.000  0.00  0.00    +0.000 HD
ENDROOT
TORSDOF 0
REMARK  Name = molecules/DDPFHDCZUJFNAT-KPZHSHELSA-N.pdb
REMARK                            x       y       z     vdW  Elec       q    Type
REMARK                         _______ _______ _______ _____ _____    ______ ____
ROOT
ATOM      1  H   UNK    1      -10.949  -3.826   0.000  0.00  0.00    +0.000 HD
ENDROOT
TORSDOF 0
REMARK  Name = molecules/DDPFHDCZUJFNAT-KPZHSHELSA-N.pdb
REMARK                            x       y       z     vdW  Elec       q    Type
REMARK                         _______ _______ _______ _____ _____    ______ ____
ROOT
ATOM      1  H   UNK    1       -9.001  -1.611   0.000  0.00  0.00    +0.000 HD
ENDROOT
TORSDOF 0
REMARK  Name = molecules/DDPFHDCZUJFNAT-KPZHSHELSA-N.pdb
REMARK                            x       y       z     vdW  Elec       q    Type
REMARK                         _______ _______ _______ _____ _____    ______ ____
ROOT
ATOM      1  H   UNK    1      -11.638 -13.539   0.000  0.00  0.00    +0.000 HD
ENDROOT
TORSDOF 0
REMARK  Name = molecules/DDPFHDCZUJFNAT-KPZHSHELSA-N.pdb
REMARK                            x       y       z     vdW  Elec       q    Type
REMARK                         _______ _______ _______ _____ _____    ______ ____
ROOT
ATOM      1  H   UNK    1        0.299  -5.484   0.000  0.00  0.00    +0.000 HD
ENDROOT
TORSDOF 0
REMARK  Name = molecules/DDPFHDCZUJFNAT-KPZHSHELSA-N.pdb
REMARK                            x       y       z     vdW  Elec       q    Type
REMARK                         _______ _______ _______ _____ _____    ______ ____
ROOT
ATOM      1  H   UNK    1       -4.133  -2.913   0.000  0.00  0.00    +0.000 HD
ENDROOT
TORSDOF 0
REMARK  Name = molecules/DDPFHDCZUJFNAT-KPZHSHELSA-N.pdb
REMARK                            x       y       z     vdW  Elec       q    Type
REMARK                         _______ _______ _______ _____ _____    ______ ____
ROOT
ATOM      1  H   UNK    1        1.296  -3.872   0.000  0.00  0.00    +0.000 HD
ENDROOT
TORSDOF 0
REMARK  Name = molecules/DDPFHDCZUJFNAT-KPZHSHELSA-N.pdb
REMARK                            x       y       z     vdW  Elec       q    Type
REMARK                         _______ _______ _______ _____ _____    ______ ____
ROOT
ATOM      1  H   UNK    1       -3.428   0.155   0.000  0.00  0.00    +0.000 HD
ENDROOT
TORSDOF 0
REMARK  Name = molecules/DDPFHDCZUJFNAT-KPZHSHELSA-N.pdb
REMARK                            x       y       z     vdW  Elec       q    Type
REMARK                         _______ _______ _______ _____ _____    ______ ____
ROOT
ATOM      1  H   UNK    1       -4.479   3.634   0.000  0.00  0.00    +0.000 HD
ENDROOT
TORSDOF 0
REMARK  Name = molecules/DDPFHDCZUJFNAT-KPZHSHELSA-N.pdb
REMARK                            x       y       z     vdW  Elec       q    Type
REMARK                         _______ _______ _______ _____ _____    ______ ____
ROOT
ATOM      1  H   UNK    1       -5.964   6.254   0.000  0.00  0.00    +0.000 HD
ENDROOT
TORSDOF 0
REMARK  Name = molecules/DDPFHDCZUJFNAT-KPZHSHELSA-N.pdb
REMARK                            x       y       z     vdW  Elec       q    Type
REMARK                         _______ _______ _______ _____ _____    ______ ____
ROOT
ATOM      1  H   UNK    1       -3.915   8.937   0.000  0.00  0.00    +0.000 HD
ENDROOT
TORSDOF 0
REMARK  Name = molecules/DDPFHDCZUJFNAT-KPZHSHELSA-N.pdb
REMARK                            x       y       z     vdW  Elec       q    Type
REMARK                         _______ _______ _______ _____ _____    ______ ____
ROOT
ATOM      1  H   UNK    1      -11.643  -0.019   0.000  0.00  0.00    +0.000 HD
ENDROOT
TORSDOF 0
REMARK  Name = molecules/DDPFHDCZUJFNAT-KPZHSHELSA-N.pdb
REMARK                            x       y       z     vdW  Elec       q    Type
REMARK                         _______ _______ _______ _____ _____    ______ ____
ROOT
ATOM      1  H   UNK    1      -12.565   0.015   0.000  0.00  0.00    +0.000 HD
ENDROOT
TORSDOF 0
REMARK  Name = molecules/DDPFHDCZUJFNAT-KPZHSHELSA-N.pdb
REMARK                            x       y       z     vdW  Elec       q    Type
REMARK                         _______ _______ _______ _____ _____    ______ ____
ROOT
ATOM      1  H   UNK    1       -6.527  -5.221   0.000  0.00  0.00    +0.000 HD
ENDROOT
TORSDOF 0
REMARK  Name = molecules/DDPFHDCZUJFNAT-KPZHSHELSA-N.pdb
REMARK                            x       y       z     vdW  Elec       q    Type
REMARK                         _______ _______ _______ _____ _____    ______ ____
ROOT
ATOM      1  H   UNK    1        1.356  -0.144   0.000  0.00  0.00    +0.000 HD
ENDROOT
TORSDOF 0
REMARK  Name = molecules/DDPFHDCZUJFNAT-KPZHSHELSA-N.pdb
REMARK                            x       y       z     vdW  Elec       q    Type
REMARK                         _______ _______ _______ _____ _____    ______ ____
ROOT
ATOM      1  H   UNK    1        0.171   0.776   0.000  0.00  0.00    +0.000 HD
ENDROOT
TORSDOF 0
REMARK  Name = molecules/DDPFHDCZUJFNAT-KPZHSHELSA-N.pdb
REMARK                            x       y       z     vdW  Elec       q    Type
REMARK                         _______ _______ _______ _____ _____    ______ ____
ROOT
ATOM      1  H   UNK    1       -2.198   2.616   0.000  0.00  0.00    +0.000 HD
ENDROOT
TORSDOF 0
REMARK  Name = molecules/DDPFHDCZUJFNAT-KPZHSHELSA-N.pdb
REMARK                            x       y       z     vdW  Elec       q    Type
REMARK                         _______ _______ _______ _____ _____    ______ ____
ROOT
ATOM      1  H   UNK    1        4.195  -2.602   0.000  0.00  0.00    +0.000 HD
ENDROOT
TORSDOF 0
REMARK  Name = molecules/DDPFHDCZUJFNAT-KPZHSHELSA-N.pdb
REMARK                            x       y       z     vdW  Elec       q    Type
REMARK                         _______ _______ _______ _____ _____    ______ ____
ROOT
ATOM      1  H   UNK    1        2.602  -4.654   0.000  0.00  0.00    +0.000 HD
ENDROOT
TORSDOF 0
REMARK  Name = molecules/DDPFHDCZUJFNAT-KPZHSHELSA-N.pdb
REMARK                            x       y       z     vdW  Elec       q    Type
REMARK                         _______ _______ _______ _____ _____    ______ ____
ROOT
ATOM      1  H   UNK    1        2.541  -1.063   0.000  0.00  0.00    +0.000 HD
ENDROOT
TORSDOF 0
REMARK  Name = molecules/DDPFHDCZUJFNAT-KPZHSHELSA-N.pdb
REMARK                            x       y       z     vdW  Elec       q    Type
REMARK                         _______ _______ _______ _____ _____    ______ ____
ROOT
ATOM      1  H   UNK    1       -1.074   5.287   0.000  0.00  0.00    +0.000 HD
ENDROOT
TORSDOF 0
REMARK  Name = molecules/DDPFHDCZUJFNAT-KPZHSHELSA-N.pdb
REMARK                            x       y       z     vdW  Elec       q    Type
REMARK                         _______ _______ _______ _____ _____    ______ ____
ROOT
ATOM      1  H   UNK    1       -2.865   4.835   0.000  0.00  0.00    +0.000 HD
ENDROOT
TORSDOF 0
REMARK  Name = molecules/DDPFHDCZUJFNAT-KPZHSHELSA-N.pdb
REMARK                            x       y       z     vdW  Elec       q    Type
REMARK                         _______ _______ _______ _____ _____    ______ ____
ROOT
ATOM      1  H   UNK    1       -9.789   1.665   0.000  0.00  0.00    +0.000 HD
ENDROOT
TORSDOF 0
REMARK  Name = molecules/DDPFHDCZUJFNAT-KPZHSHELSA-N.pdb
REMARK                            x       y       z     vdW  Elec       q    Type
REMARK                         _______ _______ _______ _____ _____    ______ ____
ROOT
ATOM      1  H   UNK    1      -16.465   3.745   0.000  0.00  0.00    +0.000 HD
ENDROOT
TORSDOF 0
REMARK  Name = molecules/DDPFHDCZUJFNAT-KPZHSHELSA-N.pdb
REMARK                            x       y       z     vdW  Elec       q    Type
REMARK                         _______ _______ _______ _____ _____    ______ ____
ROOT
ATOM      1  H   UNK    1      -21.414   7.785   0.000  0.00  0.00    +0.000 HD
ENDROOT
TORSDOF 0
REMARK  Name = molecules/DDPFHDCZUJFNAT-KPZHSHELSA-N.pdb
REMARK                            x       y       z     vdW  Elec       q    Type
REMARK                         _______ _______ _______ _____ _____    ______ ____
ROOT
ATOM      1  H   UNK    1      -18.417   3.633   0.000  0.00  0.00    +0.000 HD
ENDROOT
TORSDOF 0
REMARK  Name = molecules/DDPFHDCZUJFNAT-KPZHSHELSA-N.pdb
REMARK                            x       y       z     vdW  Elec       q    Type
REMARK                         _______ _______ _______ _____ _____    ______ ____
ROOT
ATOM      1  H   UNK    1      -15.941   0.581   0.000  0.00  0.00    +0.000 HD
ENDROOT
TORSDOF 0
REMARK  Name = molecules/DDPFHDCZUJFNAT-KPZHSHELSA-N.pdb
REMARK                            x       y       z     vdW  Elec       q    Type
REMARK                         _______ _______ _______ _____ _____    ______ ____
ROOT
ATOM      1  H   UNK    1      -11.269   1.596   0.000  0.00  0.00    +0.000 HD
ENDROOT
TORSDOF 0
REMARK  Name = molecules/DDPFHDCZUJFNAT-KPZHSHELSA-N.pdb
REMARK                            x       y       z     vdW  Elec       q    Type
REMARK                         _______ _______ _______ _____ _____    ______ ____
ROOT
ATOM      1  H   UNK    1      -22.821  -0.130   0.000  0.00  0.00    +0.000 HD
ENDROOT
TORSDOF 0
REMARK  Name = molecules/DDPFHDCZUJFNAT-KPZHSHELSA-N.pdb
REMARK                            x       y       z     vdW  Elec       q    Type
REMARK                         _______ _______ _______ _____ _____    ______ ____
ROOT
ATOM      1  H   UNK    1      -24.782   4.682   0.000  0.00  0.00    +0.000 HD
ENDROOT
TORSDOF 0
REMARK  Name = molecules/DDPFHDCZUJFNAT-KPZHSHELSA-N.pdb
REMARK                            x       y       z     vdW  Elec       q    Type
REMARK                         _______ _______ _______ _____ _____    ______ ____
ROOT
ATOM      1  H   UNK    1      -22.208   4.328   0.000  0.00  0.00    +0.000 HD
ENDROOT
TORSDOF 0
REMARK  Name = molecules/DDPFHDCZUJFNAT-KPZHSHELSA-N.pdb
REMARK                            x       y       z     vdW  Elec       q    Type
REMARK                         _______ _______ _______ _____ _____    ______ ____
ROOT
ATOM      1  H   UNK    1      -26.375   2.630   0.000  0.00  0.00    +0.000 HD
ENDROOT
TORSDOF 0
REMARK  Name = molecules/DDPFHDCZUJFNAT-KPZHSHELSA-N.pdb
REMARK                            x       y       z     vdW  Elec       q    Type
REMARK                         _______ _______ _______ _____ _____    ______ ____
ROOT
ATOM      1  H   UNK    1      -18.087   4.714   0.000  0.00  0.00    +0.000 HD
ENDROOT
TORSDOF 0
REMARK  Name = molecules/DDPFHDCZUJFNAT-KPZHSHELSA-N.pdb
REMARK                            x       y       z     vdW  Elec       q    Type
REMARK                         _______ _______ _______ _____ _____    ______ ____
ROOT
ATOM      1  H   UNK    1      -12.377   9.410   0.000  0.00  0.00    +0.000 HD
ENDROOT
TORSDOF 0
REMARK  Name = molecules/DDPFHDCZUJFNAT-KPZHSHELSA-N.pdb
REMARK                            x       y       z     vdW  Elec       q    Type
REMARK                         _______ _______ _______ _____ _____    ______ ____
ROOT
ATOM      1  H   UNK    1      -12.689   6.805   0.000  0.00  0.00    +0.000 HD
ENDROOT
TORSDOF 0
REMARK  Name = molecules/DDPFHDCZUJFNAT-KPZHSHELSA-N.pdb
REMARK                            x       y       z     vdW  Elec       q    Type
REMARK                         _______ _______ _______ _____ _____    ______ ____
ROOT
ATOM      1  H   UNK    1      -16.812   2.478   0.000  0.00  0.00    +0.000 HD
ENDROOT
TORSDOF 0
REMARK  Name = molecules/DDPFHDCZUJFNAT-KPZHSHELSA-N.pdb
REMARK                            x       y       z     vdW  Elec       q    Type
REMARK                         _______ _______ _______ _____ _____    ______ ____
ROOT
ATOM      1  H   UNK    1      -19.091  12.561   0.000  0.00  0.00    +0.000 HD
ENDROOT
TORSDOF 0
REMARK  Name = molecules/DDPFHDCZUJFNAT-KPZHSHELSA-N.pdb
REMARK                            x       y       z     vdW  Elec       q    Type
REMARK                         _______ _______ _______ _____ _____    ______ ____
ROOT
ATOM      1  H   UNK    1      -19.285   5.987   0.000  0.00  0.00    +0.000 HD
ENDROOT
TORSDOF 0
REMARK  Name = molecules/DDPFHDCZUJFNAT-KPZHSHELSA-N.pdb
REMARK                            x       y       z     vdW  Elec       q    Type
REMARK                         _______ _______ _______ _____ _____    ______ ____
ROOT
ATOM      1  H   UNK    1      -17.862   9.935   0.000  0.00  0.00    +0.000 HD
ENDROOT
TORSDOF 0
