REMARK  Name = molecules/DDUHZTYCFQRHIY-RBHXEPJQSA-N.pdb
REMARK                            x       y       z     vdW  Elec       q    Type
REMARK                         _______ _______ _______ _____ _____    ______ ____
ROOT
ATOM      1  C   LIG    1        1.665  -0.026  -1.835  0.00  0.00    +0.125 A 
ATOM      2  C   LIG    1        0.523  -0.113  -1.057  0.00  0.00    +0.159 A 
ATOM      3  C   LIG    1        0.664  -0.309   0.302  0.00  0.00    +0.107 A 
ATOM      4  C   LIG    1       -0.665  -0.365   0.893  0.00  0.00    +0.221 C 
ATOM      5  O   LIG    1       -0.950  -0.717   2.061  0.00  0.00    -0.287 OA
ATOM      6  C   LIG    1       -1.583   0.079  -0.180  0.00  0.00    +0.231 C 
ATOM      7  C   LIG    1       -2.056   1.491  -0.006  0.00  0.00    +0.053 C 
ATOM      8  C   LIG    1       -2.836   1.606   1.275  0.00  0.00    +0.087 C 
ATOM      9  C   LIG    1       -4.056   0.771   1.132  0.00  0.00    +0.160 C 
ATOM     10  O   LIG    1       -5.155   1.105   1.618  0.00  0.00    -0.293 OA
ATOM     11  C   LIG    1       -3.918  -0.478   0.388  0.00  0.00    +0.091 C 
ATOM     12  C   LIG    1       -0.931   2.493  -0.020  0.00  0.00    +0.013 C 
ATOM     13  C   LIG    1       -2.776  -0.799  -0.219  0.00  0.00    +0.152 C 
ATOM     14  C   LIG    1        1.914  -0.415   0.866  0.00  0.00    +0.138 A 
ATOM     15  C   LIG    1        3.037  -0.327   0.087  0.00  0.00    +0.093 A 
ATOM     16  O   LIG    1       -0.818  -0.040  -1.380  0.00  0.00    -0.467 OA
ATOM     17  C   LIG    1        2.913  -0.133  -1.263  0.00  0.00    +0.145 A 
ATOM     18 CL   LIG    1        1.527   0.222  -3.570  0.00  0.00    -0.076 Cl
ENDROOT
BRANCH  13  19
ATOM     19  O   LIG    1       -2.719  -2.001  -0.907  0.00  0.00    -0.495 OA
ATOM     20  C   LIG    1       -3.767  -2.457  -1.738  0.00  0.00    +0.276 C 
ENDBRANCH  13  19
BRANCH  14  21
ATOM     21  O   LIG    1        2.031  -0.609   2.222  0.00  0.00    -0.494 OA
ATOM     22  C   LIG    1        3.321  -0.722   2.829  0.00  0.00    +0.277 C 
ENDBRANCH  14  21
BRANCH  17  23
ATOM     23  O   LIG    1        4.030  -0.041  -2.076  0.00  0.00    -0.493 OA
ATOM     24  C   LIG    1        5.347  -0.137  -1.585  0.00  0.00    +0.277 C 
ENDBRANCH  17  23
TORSDOF 3
