REMARK  Name = molecules/DEQANNDTNATYII-WKXAURAUSA-N.pdb
REMARK                            x       y       z     vdW  Elec       q    Type
REMARK                         _______ _______ _______ _____ _____    ______ ____
ROOT
ATOM      1  CA  CYS A  2        1.739   1.056  -0.680  0.00  0.00    +0.169 C 
ATOM      2  CB  CYS A  2        0.289   1.069  -0.363  0.00  0.00    +0.112 C 
ATOM      3  SG  CYS A  2       -0.750   1.111  -1.847  0.00  0.00    -0.091 S 
ATOM      4  SG  CYS A  7       -2.128   2.731  -1.752  0.00  0.00    -0.091 S 
ATOM      5  CB  CYS A  7       -3.763   2.042  -1.368  0.00  0.00    +0.112 C 
ATOM      6  CA  CYS A  7       -4.134   2.279   0.078  0.00  0.00    +0.169 C 
ATOM      7  N   CYS A  7       -5.013   1.221   0.491  0.00  0.00    -0.302 N 
ATOM      8  C   THR A  6       -5.020   0.471   1.655  0.00  0.00    +0.237 C 
ATOM      9  O   THR A  6       -6.114   0.390   2.320  0.00  0.00    -0.274 OA
ATOM     10  CA  THR A  6       -3.846  -0.282   2.240  0.00  0.00    +0.187 C 
ATOM     11  N   THR A  6       -2.827  -0.533   1.266  0.00  0.00    -0.300 N 
ATOM     12  H   THR A  6       -2.118   0.260   1.154  0.00  0.00    +0.150 HD
ATOM     13  C   LYS A  5       -2.604  -1.636   0.429  0.00  0.00    +0.234 C 
ATOM     14  CA  LYS A  5       -2.299  -3.034   0.809  0.00  0.00    +0.159 C 
ATOM     15  N   LYS A  5       -0.897  -3.270   1.088  0.00  0.00    -0.302 N 
ATOM     16  H   LYS A  5       -0.724  -3.992   1.860  0.00  0.00    +0.150 HD
ATOM     17  C   TRP A  4        0.228  -2.708   0.521  0.00  0.00    +0.234 C 
ATOM     18  O   TRP A  4        1.081  -2.147   1.306  0.00  0.00    -0.274 OA
ATOM     19  CA  TRP A  4        0.623  -2.651  -0.934  0.00  0.00    +0.163 C 
ATOM     20  N   TRP A  4        2.066  -2.628  -1.043  0.00  0.00    -0.302 N 
ATOM     21  H   TRP A  4        2.568  -3.333  -0.434  0.00  0.00    +0.150 HD
ATOM     22  C   PHE A  3        2.834  -1.778  -1.844  0.00  0.00    +0.234 C 
ATOM     23  O   PHE A  3        4.042  -1.562  -1.542  0.00  0.00    -0.274 OA
ATOM     24  CA  PHE A  3        2.309  -1.103  -3.048  0.00  0.00    +0.163 C 
ATOM     25  N   PHE A  3        2.562   0.318  -3.000  0.00  0.00    -0.302 N 
ATOM     26  H   PHE A  3        3.294   0.690  -3.674  0.00  0.00    +0.150 HD
ATOM     27  O   LYS A  5       -2.659  -1.464  -0.864  0.00  0.00    -0.274 OA
ATOM     28  H   CYS A  7       -5.779   0.989  -0.222  0.00  0.00    +0.150 HD
ATOM     29  C   CYS A  2        1.950   1.256  -2.160  0.00  0.00    +0.235 C 
ATOM     30  O   CYS A  2        1.538   2.347  -2.640  0.00  0.00    -0.274 OA
ENDROOT
BRANCH   1  33
ATOM     31  C   PHE A  1        3.569   1.926   0.757  0.00  0.00    +0.231 C 
ATOM     32  O   PHE A  1        4.084   0.765   0.753  0.00  0.00    -0.274 OA
ATOM     33  N   CYS A  2        2.367   2.170   0.048  0.00  0.00    -0.302 N 
ATOM     34  H   CYS A  2        1.944   3.107   0.043  0.00  0.00    +0.150 HD
BRANCH  31  35
ATOM     35  CA  PHE A  1        4.243   3.012   1.510  0.00  0.00    +0.142 C 
BRANCH  35  36
ATOM     36  N   PHE A  1        5.543   2.594   1.946  0.00  0.00    -0.320 NA
ATOM     37  H1  PHE A  1        5.581   1.537   2.047  0.00  0.00    +0.119 HD
ATOM     38  H2  PHE A  1        6.223   2.800   1.165  0.00  0.00    +0.119 HD
ENDBRANCH  35  36
BRANCH  35  39
ATOM     39  CB  PHE A  1        4.369   4.275   0.700  0.00  0.00    +0.063 C 
BRANCH  39  40
ATOM     40  CG  PHE A  1        4.980   5.373   1.498  0.00  0.00    -0.045 A 
ATOM     41  CD2 PHE A  1        4.148   6.165   2.279  0.00  0.00    +0.004 A 
ATOM     42  CE2 PHE A  1        4.643   7.202   3.066  0.00  0.00    +0.000 A 
ATOM     43  CZ  PHE A  1        6.009   7.458   3.074  0.00  0.00    +0.000 A 
ATOM     44  CE1 PHE A  1        6.832   6.677   2.304  0.00  0.00    +0.000 A 
ATOM     45  CD1 PHE A  1        6.333   5.637   1.515  0.00  0.00    +0.004 A 
ENDBRANCH  39  40
ENDBRANCH  35  39
ENDBRANCH  31  35
ENDBRANCH   1  33
BRANCH   6  46
ATOM     46  C   CYS A  7       -4.759   3.625   0.280  0.00  0.00    +0.235 C 
ATOM     47  O   CYS A  7       -5.909   3.658   0.824  0.00  0.00    -0.274 OA
ATOM     48  N   THR A  8       -4.160   4.831  -0.094  0.00  0.00    -0.306 N 
ATOM     49  H   THR A  8       -3.217   4.909  -0.547  0.00  0.00    +0.149 HD
BRANCH  48  50
ATOM     50  CA  THR A  8       -4.836   6.093   0.138  0.00  0.00    +0.126 C 
BRANCH  50  51
ATOM     51  CB  THR A  8       -5.568   6.531  -1.124  0.00  0.00    +0.134 C 
ATOM     52  CG2 THR A  8       -4.681   6.704  -2.312  0.00  0.00    +0.039 C 
BRANCH  51  53
ATOM     53  OG1 THR A  8       -6.519   5.540  -1.468  0.00  0.00    -0.390 OA
ATOM     54  HG1 THR A  8       -7.349   5.730  -0.946  0.00  0.00    +0.210 HD
ENDBRANCH  51  53
ENDBRANCH  50  51
BRANCH  50  55
ATOM     55  C   THR A  8       -3.866   7.090   0.646  0.00  0.00    +0.180 C 
BRANCH  55  56
ATOM     56  O   THR A  8       -2.848   7.277  -0.291  0.00  0.00    -0.393 OA
ATOM     57  H   THR A  8       -2.353   8.095   0.014  0.00  0.00    +0.209 HD
ENDBRANCH  55  56
ENDBRANCH  50  55
ENDBRANCH  48  50
ENDBRANCH   6  46
BRANCH  10  58
ATOM     58  CB  THR A  6       -3.330   0.680   3.333  0.00  0.00    +0.141 C 
ATOM     59  CG2 THR A  6       -4.391   0.826   4.412  0.00  0.00    +0.040 C 
BRANCH  58  60
ATOM     60  OG1 THR A  6       -2.226   0.102   3.946  0.00  0.00    -0.390 OA
ATOM     61  HG1 THR A  6       -2.500  -0.513   4.655  0.00  0.00    +0.210 HD
ENDBRANCH  58  60
ENDBRANCH  10  58
BRANCH  24  62
ATOM     62  CB  PHE A  3        2.837  -1.766  -4.300  0.00  0.00    +0.067 C 
BRANCH  62  63
ATOM     63  CG  PHE A  3        4.299  -1.635  -4.496  0.00  0.00    -0.045 A 
ATOM     64  CD2 PHE A  3        5.205  -2.531  -3.941  0.00  0.00    +0.004 A 
ATOM     65  CE2 PHE A  3        6.566  -2.444  -4.083  0.00  0.00    +0.000 A 
ATOM     66  CZ  PHE A  3        7.066  -1.382  -4.838  0.00  0.00    +0.000 A 
ATOM     67  CE1 PHE A  3        6.217  -0.472  -5.409  0.00  0.00    +0.000 A 
ATOM     68  CD1 PHE A  3        4.860  -0.606  -5.234  0.00  0.00    +0.004 A 
ENDBRANCH  62  63
ENDBRANCH  24  62
BRANCH  19  69
ATOM     69  CB  TRP A  4        0.098  -3.826  -1.698  0.00  0.00    +0.069 C 
BRANCH  69  70
ATOM     70  CG  TRP A  4        0.513  -5.144  -1.256  0.00  0.00    -0.020 A 
ATOM     71  CD1 TRP A  4       -0.268  -5.977  -0.451  0.00  0.00    +0.087 A 
ATOM     72  NE1 TRP A  4        0.386  -7.112  -0.192  0.00  0.00    -0.360 N 
ATOM     73  HE1 TRP A  4        0.087  -7.932   0.372  0.00  0.00    +0.165 HD
ATOM     74  CE2 TRP A  4        1.589  -7.039  -0.818  0.00  0.00    +0.047 A 
ATOM     75  CZ2 TRP A  4        2.619  -7.922  -0.882  0.00  0.00    +0.026 A 
ATOM     76  CH2 TRP A  4        3.777  -7.664  -1.591  0.00  0.00    +0.002 A 
ATOM     77  CZ3 TRP A  4        3.866  -6.459  -2.251  0.00  0.00    +0.001 A 
ATOM     78  CE3 TRP A  4        2.836  -5.548  -2.200  0.00  0.00    +0.010 A 
ATOM     79  CD2 TRP A  4        1.685  -5.811  -1.490  0.00  0.00    +0.003 A 
ENDBRANCH  69  70
ENDBRANCH  19  69
BRANCH  14  80
ATOM     80  CB  LYS A  5       -3.159  -3.444   1.974  0.00  0.00    +0.032 C 
BRANCH  80  81
ATOM     81  CG  LYS A  5       -3.028  -4.935   2.303  0.00  0.00    +0.003 C 
BRANCH  81  82
ATOM     82  CD  LYS A  5       -3.991  -5.140   3.486  0.00  0.00    +0.015 C 
BRANCH  82  83
ATOM     83  CE  LYS A  5       -3.999  -6.563   3.953  0.00  0.00    +0.077 C 
BRANCH  83  84
ATOM     84  NZ  LYS A  5       -4.413  -7.415   2.875  0.00  0.00    -0.330 NA
ATOM     85  HZ1 LYS A  5       -5.009  -8.179   3.293  0.00  0.00    +0.118 HD
ATOM     86  HZ2 LYS A  5       -4.998  -6.859   2.223  0.00  0.00    +0.118 HD
ENDBRANCH  83  84
ENDBRANCH  82  83
ENDBRANCH  81  82
ENDBRANCH  80  81
ENDBRANCH  14  80
TORSDOF 22
