REMARK  Name = molecules/DFEYYRMXOJXZRJ-UHFFFAOYSA-N.pdb
REMARK                            x       y       z     vdW  Elec       q    Type
REMARK                         _______ _______ _______ _____ _____    ______ ____
ROOT
ATOM      1  C   LIG    1       -0.205   0.082  -0.184  0.00  0.00    +0.328 C 
ENDROOT
BRANCH   1   2
ATOM      2  C   LIG    1       -0.892   1.312   0.412  0.00  0.00    +0.424 C 
ATOM      3  F   LIG    1       -1.182   1.006   1.742  0.00  0.00    -0.168 F 
ATOM      4  F   LIG    1       -0.127   2.440   0.289  0.00  0.00    -0.168 F 
ATOM      5  F   LIG    1       -2.110   1.538  -0.198  0.00  0.00    -0.168 F 
ENDBRANCH   1   2
BRANCH   1   6
ATOM      6  C   LIG    1       -1.229  -1.053  -0.044  0.00  0.00    +0.424 C 
ATOM      7  F   LIG    1       -1.437  -1.177   1.333  0.00  0.00    -0.168 F 
ATOM      8  F   LIG    1       -0.676  -2.184  -0.559  0.00  0.00    -0.168 F 
ATOM      9  F   LIG    1       -2.429  -0.708  -0.636  0.00  0.00    -0.168 F 
ENDBRANCH   1   6
BRANCH   1  10
ATOM     10  O   LIG    1        0.885  -0.296   0.568  0.00  0.00    -0.329 OA
BRANCH  10  11
ATOM     11  C   LIG    1        2.067  -0.348  -0.155  0.00  0.00    +0.376 C 
ATOM     12  F   LIG    1        2.375   0.883  -0.695  0.00  0.00    -0.218 F 
ENDBRANCH  10  11
ENDBRANCH   1  10
TORSDOF 4
