REMARK  Name = molecules/DFPAKSUCGFBDDF-UHFFFAOYSA-N.pdb
REMARK                            x       y       z     vdW  Elec       q    Type
REMARK                         _______ _______ _______ _____ _____    ______ ____
ROOT
ATOM      1  C   LIG    1        0.232  -0.407   0.135  0.00  0.00    +0.055 A 
ATOM      2  C   LIG    1       -0.667  -1.445   0.222  0.00  0.00    +0.123 A 
ATOM      3  N   LIG    1       -1.985  -1.277  -0.040  0.00  0.00    -0.263 NA
ATOM      4  C   LIG    1       -2.489  -0.083  -0.399  0.00  0.00    +0.111 A 
ATOM      5  C   LIG    1       -1.609   0.975  -0.493  0.00  0.00    +0.020 A 
ATOM      6  C   LIG    1       -0.256   0.827  -0.230  0.00  0.00    +0.016 A 
ENDROOT
BRANCH   1   9
ATOM      7  N   LIG    1        2.558   0.515   0.318  0.00  0.00    -0.325 N 
ATOM      8  H   LIG    1        3.213   0.805   1.069  0.00  0.00    +0.145 HD
ATOM      9  C   LIG    1        1.664  -0.585   0.418  0.00  0.00    +0.243 C 
ATOM     10  O   LIG    1        2.136  -1.684   0.750  0.00  0.00    -0.270 OA
ATOM     11  H   LIG    1        2.586   1.092  -0.559  0.00  0.00    +0.145 HD
ENDBRANCH   1   9
TORSDOF 1
