REMARK  Name = molecules/DGAIEPBNLOQYER-BDAKNGLRSA-N.pdb
REMARK                            x       y       z     vdW  Elec       q    Type
REMARK                         _______ _______ _______ _____ _____    ______ ____
ROOT
ATOM      1  C   LIG    1       -1.374   0.113   1.144  0.00  0.00    +0.066 A 
ATOM      2  C   LIG    1       -1.242   1.475   1.297  0.00  0.00    +0.049 A 
ATOM      3  I   LIG    1       -2.992   2.593   1.629  0.00  0.00    -0.041 I 
ATOM      4  C   LIG    1       -0.017   2.098   1.237  0.00  0.00    +0.061 A 
ATOM      5  C   LIG    1        1.092   1.265   1.012  0.00  0.00    +0.049 A 
ATOM      6  C   LIG    1        1.022  -0.071   0.858  0.00  0.00    +0.065 A 
ATOM      7  I   LIG    1        2.921   2.280   0.828  0.00  0.00    -0.041 I 
ATOM      8  C   LIG    1       -0.255  -0.648   0.928  0.00  0.00    +0.040 A 
ATOM      9  I   LIG    1       -0.426  -2.751   0.690  0.00  0.00    -0.042 I 
ENDROOT
BRANCH   1  10
ATOM     10  C   LIG    1       -2.662  -0.575   1.202  0.00  0.00    +0.249 C 
ATOM     11  O   LIG    1       -3.041  -0.980   2.343  0.00  0.00    -0.270 OA
ATOM     12  N   LIG    1       -3.461  -0.787   0.051  0.00  0.00    -0.298 N 
ATOM     13  C   LIG    1       -3.000  -0.313  -1.230  0.00  0.00    +0.132 C 
BRANCH  12  14
ATOM     14  C   LIG    1       -4.722  -1.478   0.205  0.00  0.00    +0.141 C 
BRANCH  14  15
ATOM     15  C   LIG    1       -4.524  -2.984   0.036  0.00  0.00    +0.157 C 
BRANCH  15  16
ATOM     16  O   LIG    1       -4.013  -3.267  -1.229  0.00  0.00    -0.388 OA
ATOM     17  H   LIG    1       -3.458  -4.085  -1.229  0.00  0.00    +0.210 HD
ENDBRANCH  15  16
BRANCH  15  18
ATOM     18  C   LIG    1       -5.849  -3.679   0.190  0.00  0.00    +0.188 C 
BRANCH  18  19
ATOM     19  O   LIG    1       -5.684  -5.046   0.052  0.00  0.00    -0.392 OA
ATOM     20  H   LIG    1       -4.811  -5.296  -0.296  0.00  0.00    +0.210 HD
ENDBRANCH  18  19
ENDBRANCH  15  18
ENDBRANCH  14  15
ENDBRANCH  12  14
ENDBRANCH   1  10
BRANCH   4  21
ATOM     21  N   LIG    1        0.127   3.503   1.394  0.00  0.00    -0.282 N 
ATOM     22  H   LIG    1        0.280   3.917   2.347  0.00  0.00    +0.155 HD
ATOM     23  C   LIG    1        0.070   4.398   0.278  0.00  0.00    +0.243 C 
ATOM     24  O   LIG    1       -0.114   3.893  -0.856  0.00  0.00    -0.273 OA
BRANCH  23  25
ATOM     25  C   LIG    1        0.226   5.850   0.500  0.00  0.00    +0.255 C 
BRANCH  25  26
ATOM     26  O   LIG    1        0.203   6.638  -0.608  0.00  0.00    -0.374 OA
ATOM     27  C   LIG    1        1.233   6.380  -1.494  0.00  0.00    +0.194 C 
ENDBRANCH  25  26
ENDBRANCH  23  25
ENDBRANCH   4  21
BRANCH   6  28
ATOM     28  C   LIG    1        2.113  -0.983   0.588  0.00  0.00    +0.246 C 
ATOM     29  N   LIG    1        3.440  -0.790   1.011  0.00  0.00    -0.309 N 
ATOM     30  H   LIG    1        3.739   0.013   1.600  0.00  0.00    +0.149 HD
ATOM     31  O   LIG    1        1.849  -2.052  -0.081  0.00  0.00    -0.270 OA
BRANCH  29  32
ATOM     32  C   LIG    1        4.513  -1.724   0.701  0.00  0.00    +0.138 C 
BRANCH  32  33
ATOM     33  C   LIG    1        4.684  -1.796  -0.792  0.00  0.00    +0.157 C 
BRANCH  33  34
ATOM     34  O   LIG    1        4.995  -0.534  -1.300  0.00  0.00    -0.388 OA
ATOM     35  H   LIG    1        5.980  -0.465  -1.348  0.00  0.00    +0.210 HD
ENDBRANCH  33  34
BRANCH  33  36
ATOM     36  C   LIG    1        5.849  -2.732  -1.081  0.00  0.00    +0.188 C 
BRANCH  36  37
ATOM     37  O   LIG    1        5.525  -3.972  -0.573  0.00  0.00    -0.392 OA
ATOM     38  H   LIG    1        6.098  -4.256   0.175  0.00  0.00    +0.210 HD
ENDBRANCH  36  37
ENDBRANCH  33  36
ENDBRANCH  32  33
ENDBRANCH  29  32
ENDBRANCH   6  28
TORSDOF 15
