REMARK  Name = molecules/DGMJZELBSFOPHH-KVTDHHQDSA-N.pdb
REMARK                            x       y       z     vdW  Elec       q    Type
REMARK                         _______ _______ _______ _____ _____    ______ ____
ROOT
ATOM      1  C   LIG    1       -0.462   0.567  -0.237  0.00  0.00    +0.302 C 
ENDROOT
BRANCH   1   2
ATOM      2  C   LIG    1        0.622  -0.341   0.183  0.00  0.00    +0.302 C 
BRANCH   2   3
ATOM      3  O   LIG    1        0.920  -0.390   1.546  0.00  0.00    -0.340 OA
BRANCH   3   4
ATOM      4  N   LIG    1        0.762  -1.471   2.369  0.00  0.00    +0.218 N 
ATOM      5  O   LIG    1        0.469  -1.397   3.574  0.00  0.00    -0.090 OA
ATOM      6  O   LIG    1        0.938  -2.719   1.830  0.00  0.00    -0.090 OA
ENDBRANCH   3   4
ENDBRANCH   2   3
BRANCH   2   7
ATOM      7  C   LIG    1        1.870  -0.317  -0.670  0.00  0.00    +0.296 C 
BRANCH   7   8
ATOM      8  C   LIG    1        2.860   0.752  -0.266  0.00  0.00    +0.318 C 
BRANCH   8   9
ATOM      9  O   LIG    1        2.384   2.062  -0.372  0.00  0.00    -0.348 OA
BRANCH   9  10
ATOM     10  N   LIG    1        3.140   3.158  -0.049  0.00  0.00    +0.217 N 
ATOM     11  O   LIG    1        3.570   3.383   1.237  0.00  0.00    -0.090 OA
ATOM     12  O   LIG    1        3.451   3.973  -0.934  0.00  0.00    -0.090 OA
ENDBRANCH   9  10
ENDBRANCH   8   9
ENDBRANCH   7   8
BRANCH   7  13
ATOM     13  O   LIG    1        2.590  -1.560  -0.488  0.00  0.00    -0.341 OA
BRANCH  13  14
ATOM     14  N   LIG    1        2.916  -2.368  -1.527  0.00  0.00    +0.218 N 
ATOM     15  O   LIG    1        4.080  -3.102  -1.499  0.00  0.00    -0.090 OA
ATOM     16  O   LIG    1        2.151  -2.438  -2.502  0.00  0.00    -0.090 OA
ENDBRANCH  13  14
ENDBRANCH   7  13
ENDBRANCH   2   7
ENDBRANCH   1   2
BRANCH   1  17
ATOM     17  C   LIG    1       -1.829   0.131   0.290  0.00  0.00    +0.296 C 
BRANCH  17  18
ATOM     18  O   LIG    1       -1.968   0.260   1.665  0.00  0.00    -0.341 OA
BRANCH  18  19
ATOM     19  N   LIG    1       -2.847   1.145   2.201  0.00  0.00    +0.218 N 
ATOM     20  O   LIG    1       -4.077   0.725   2.596  0.00  0.00    -0.090 OA
ATOM     21  O   LIG    1       -2.529   2.328   2.328  0.00  0.00    -0.090 OA
ENDBRANCH  18  19
ENDBRANCH  17  18
BRANCH  17  22
ATOM     22  C   LIG    1       -2.219  -1.223  -0.257  0.00  0.00    +0.318 C 
BRANCH  22  23
ATOM     23  O   LIG    1       -3.584  -1.490   0.025  0.00  0.00    -0.348 OA
BRANCH  23  25
ATOM     24  O   LIG    1       -4.477  -2.988  -1.656  0.00  0.00    -0.090 OA
ATOM     25  N   LIG    1       -4.204  -2.647  -0.355  0.00  0.00    +0.217 N 
ATOM     26  O   LIG    1       -4.545  -3.445   0.540  0.00  0.00    -0.090 OA
ENDBRANCH  23  25
ENDBRANCH  22  23
ENDBRANCH  17  22
ENDBRANCH   1  17
BRANCH   1  27
ATOM     27  O   LIG    1       -0.258   1.920   0.075  0.00  0.00    -0.340 OA
BRANCH  27  28
ATOM     28  N   LIG    1       -0.491   2.953  -0.769  0.00  0.00    +0.218 N 
ATOM     29  O   LIG    1       -0.161   4.101  -0.442  0.00  0.00    -0.090 OA
ATOM     30  O   LIG    1       -1.086   2.760  -1.983  0.00  0.00    -0.090 OA
ENDBRANCH  27  28
ENDBRANCH   1  27
TORSDOF 17
