REMARK  Name = molecules/DGMKFQYCZXERLX-OAHLLOKOSA-N.pdb
REMARK                            x       y       z     vdW  Elec       q    Type
REMARK                         _______ _______ _______ _____ _____    ______ ____
ROOT
ATOM      1  C   LIG    1        0.177   0.971   0.082  0.00  0.00    +0.160 C 
ENDROOT
BRANCH   1   2
ATOM      2  N   LIG    1        1.333   0.393   0.751  0.00  0.00    -0.300 N 
ATOM      3  H   LIG    1        1.540   0.680   1.714  0.00  0.00    +0.150 HD
ATOM      4  C   LIG    1        2.137  -0.542   0.067  0.00  0.00    +0.245 C 
ATOM      5  O   LIG    1        1.842  -0.875  -1.134  0.00  0.00    -0.270 OA
BRANCH   4   6
ATOM      6  C   LIG    1        3.305  -1.173   0.645  0.00  0.00    +0.037 A 
ATOM      7  C   LIG    1        3.790  -0.845   1.890  0.00  0.00    +0.013 A 
ATOM      8  C   LIG    1        4.906  -1.457   2.435  0.00  0.00    +0.001 A 
ATOM      9  C   LIG    1        5.579  -2.433   1.732  0.00  0.00    +0.000 A 
ATOM     10  C   LIG    1        5.105  -2.771   0.487  0.00  0.00    +0.001 A 
ATOM     11  C   LIG    1        3.987  -2.148  -0.042  0.00  0.00    +0.013 A 
ENDBRANCH   4   6
ENDBRANCH   1   2
BRANCH   1  12
ATOM     12  C   LIG    1       -1.053   0.753   0.838  0.00  0.00    +0.236 C 
ATOM     13  O   LIG    1       -0.891   0.623   2.098  0.00  0.00    -0.274 OA
ATOM     14  N   LIG    1       -2.393   0.665   0.352  0.00  0.00    -0.300 N 
BRANCH  14  15
ATOM     15  C   LIG    1       -3.398   0.513   1.357  0.00  0.00    +0.107 C 
BRANCH  15  16
ATOM     16  C   LIG    1       -3.673  -0.787   1.977  0.00  0.00    +0.016 C 
ATOM     17  C   LIG    1       -4.138  -1.901   1.121  0.00  0.00    +0.005 C 
ENDBRANCH  15  16
ENDBRANCH  14  15
BRANCH  14  18
ATOM     18  C   LIG    1       -2.622   0.889  -1.018  0.00  0.00    +0.107 C 
BRANCH  18  19
ATOM     19  C   LIG    1       -2.572  -0.120  -2.066  0.00  0.00    +0.016 C 
ATOM     20  C   LIG    1       -3.538  -1.238  -2.120  0.00  0.00    +0.005 C 
ENDBRANCH  18  19
ENDBRANCH  14  18
ENDBRANCH   1  12
BRANCH   1  21
ATOM     21  C   LIG    1        0.415   2.494   0.033  0.00  0.00    +0.043 C 
BRANCH  21  22
ATOM     22  C   LIG    1        1.660   2.856  -0.723  0.00  0.00    +0.123 C 
BRANCH  22  23
ATOM     23  C   LIG    1        1.677   2.469  -2.135  0.00  0.00    +0.305 C 
ATOM     24  O   LIG    1        0.707   1.912  -2.691  0.00  0.00    -0.251 OA
BRANCH  23  25
ATOM     25  O   LIG    1        2.793   2.703  -2.948  0.00  0.00    -0.481 OA
ATOM     26  H   LIG    1        3.364   3.501  -2.704  0.00  0.00    +0.295 HD
ENDBRANCH  23  25
ENDBRANCH  22  23
ENDBRANCH  21  22
ENDBRANCH   1  21
TORSDOF 11
