REMARK  Name = molecules/DGMZLCLHHVYDIS-UHFFFAOYSA-N.pdb
REMARK                            x       y       z     vdW  Elec       q    Type
REMARK                         _______ _______ _______ _____ _____    ______ ____
ROOT
ATOM      1  C   LIG    1        0.471  -0.368  -0.973  0.00  0.00    +0.050 A 
ATOM      2  C   LIG    1       -0.582   0.482  -0.647  0.00  0.00    +0.011 A 
ATOM      3  C   LIG    1       -1.604  -0.310  -0.212  0.00  0.00    +0.054 A 
ATOM      4  C   LIG    1       -2.775   0.329   0.176  0.00  0.00    +0.072 A 
ATOM      5  C   LIG    1       -2.905   1.698   0.127  0.00  0.00    +0.122 A 
ATOM      6  C   LIG    1       -1.859   2.474  -0.317  0.00  0.00    +0.046 A 
ATOM      7  N   LIG    1       -1.238  -1.606  -0.250  0.00  0.00    -0.333 N 
ATOM      8  C   LIG    1       -0.688   1.862  -0.707  0.00  0.00    +0.014 A 
ATOM      9  C   LIG    1        0.015  -1.645  -0.709  0.00  0.00    +0.028 A 
ATOM     10  C   LIG    1        0.848  -2.854  -0.921  0.00  0.00    +0.064 C 
ENDROOT
BRANCH   1  11
ATOM     11  C   LIG    1        1.745   0.101  -1.491  0.00  0.00    +0.195 C 
ATOM     12  O   LIG    1        1.791   0.213  -2.766  0.00  0.00    -0.287 OA
BRANCH  11  13
ATOM     13  C   LIG    1        2.898   0.427  -0.666  0.00  0.00    +0.022 A 
ATOM     14  C   LIG    1        3.034  -0.154   0.566  0.00  0.00    +0.013 A 
ATOM     15  C   LIG    1        4.131   0.137   1.382  0.00  0.00    +0.021 A 
ATOM     16  C   LIG    1        5.072   1.026   0.909  0.00  0.00    +0.041 A 
ATOM     17 CL   LIG    1        6.470   1.410   1.918  0.00  0.00    -0.084 Cl
ATOM     18  C   LIG    1        4.945   1.620  -0.338  0.00  0.00    +0.021 A 
ATOM     19  C   LIG    1        3.858   1.317  -1.118  0.00  0.00    +0.013 A 
ENDBRANCH  11  13
ENDBRANCH   1  11
BRANCH   5  20
ATOM     20  O   LIG    1       -4.076   2.311   0.518  0.00  0.00    -0.495 OA
ATOM     21  C   LIG    1       -4.306   3.685   0.506  0.00  0.00    +0.277 C 
ENDBRANCH   5  20
BRANCH   7  22
ATOM     22  C   LIG    1       -2.032  -2.750   0.130  0.00  0.00    +0.242 C 
BRANCH  22  23
ATOM     23  C   LIG    1       -1.936  -3.113   1.540  0.00  0.00    +0.325 C 
ATOM     24  O   LIG    1       -1.220  -2.488   2.328  0.00  0.00    -0.249 OA
BRANCH  23  25
ATOM     25  O   LIG    1       -2.698  -4.212   1.968  0.00  0.00    -0.479 OA
ATOM     26  H   LIG    1       -3.116  -4.872   1.297  0.00  0.00    +0.295 HD
ENDBRANCH  23  25
ENDBRANCH  22  23
ENDBRANCH   7  22
TORSDOF 6
