REMARK  Name = molecules/DHSUYTOATWAVLW-WFVMDLQDSA-N.pdb
REMARK                            x       y       z     vdW  Elec       q    Type
REMARK                         _______ _______ _______ _____ _____    ______ ____
ROOT
ATOM      1  C   LIG    1       -2.547  -1.301   0.203  0.00  0.00    +0.049 C 
ENDROOT
BRANCH   1   2
ATOM      2  CA  LIG    1       -3.415  -0.310   0.154  0.00  0.00    +0.099 C 
ATOM      3  N   LIG    1       -3.093   0.846  -0.596  0.00  0.00    -0.283 N 
ATOM      4  C   LIG    1       -2.981   2.140  -0.058  0.00  0.00    +0.221 C 
ATOM      5  O   LIG    1       -3.174   2.312   1.162  0.00  0.00    -0.275 OA
ATOM      6  H   LIG    1       -2.934   0.717  -1.620  0.00  0.00    +0.155 HD
BRANCH   4   7
ATOM      7  C   LIG    1       -2.641   3.307  -0.897  0.00  0.00    +0.081 C 
ATOM      8  C   LIG    1       -1.562   4.215  -0.275  0.00  0.00    -0.023 C 
ATOM      9  C   LIG    1       -1.119   3.912   1.122  0.00  0.00    +0.011 C 
ATOM     10  C   LIG    1       -0.432   4.608  -1.204  0.00  0.00    +0.011 C 
ATOM     11  C   LIG    1       -2.938   4.680  -0.481  0.00  0.00    +0.020 C 
ENDBRANCH   4   7
BRANCH   2  12
ATOM     12  C   LIG    1       -4.705  -0.402   0.860  0.00  0.00    +0.347 C 
ATOM     13  OXT LIG    1       -4.955  -1.431   1.501  0.00  0.00    -0.244 OA
BRANCH  12  14
ATOM     14  O   LIG    1       -5.592   0.660   0.786  0.00  0.00    -0.476 OA
ATOM     15  H   LIG    1       -5.826   1.228   1.578  0.00  0.00    +0.295 HD
ENDBRANCH  12  14
ENDBRANCH   2  12
ENDBRANCH   1   2
BRANCH   1  16
ATOM     16  C   LIG    1       -1.268  -1.138  -0.533  0.00  0.00    +0.010 C 
BRANCH  16  17
ATOM     17  C   LIG    1       -0.159  -1.242   0.504  0.00  0.00    +0.001 C 
BRANCH  17  18
ATOM     18  C   LIG    1        1.200  -1.085  -0.140  0.00  0.00    +0.011 C 
BRANCH  18  19
ATOM     19  C   LIG    1        2.273  -1.192   0.922  0.00  0.00    +0.069 C 
BRANCH  19  20
ATOM     20  SG  LIG    1        3.922  -1.006   0.190  0.00  0.00    -0.159 S 
BRANCH  20  21
ATOM     21  CB  LIG    1        4.183  -2.450  -0.893  0.00  0.00    +0.099 C 
BRANCH  21  22
ATOM     22  CA  LIG    1        4.240  -3.659   0.023  0.00  0.00    +0.170 C 
BRANCH  22  23
ATOM     23  N   LIG    1        5.353  -3.500   0.939  0.00  0.00    -0.318 NA
ATOM     24  H1  LIG    1        5.242  -4.091   1.783  0.00  0.00    +0.119 HD
ATOM     25  H2  LIG    1        5.451  -2.509   1.223  0.00  0.00    +0.119 HD
ENDBRANCH  22  23
BRANCH  22  26
ATOM     26  C   LIG    1        4.453  -4.924  -0.739  0.00  0.00    +0.323 C 
ATOM     27  OXT LIG    1        5.433  -5.665  -0.571  0.00  0.00    -0.249 OA
BRANCH  26  28
ATOM     28  O   LIG    1        3.495  -5.266  -1.674  0.00  0.00    -0.480 OA
ATOM     29  H   LIG    1        3.600  -6.085  -2.248  0.00  0.00    +0.295 HD
ENDBRANCH  26  28
ENDBRANCH  22  26
ENDBRANCH  21  22
ENDBRANCH  20  21
ENDBRANCH  19  20
ENDBRANCH  18  19
ENDBRANCH  17  18
ENDBRANCH  16  17
ENDBRANCH   1  16
TORSDOF 14
