REMARK  Name = molecules/DIDCGVRALANKIU-OTEFFYEFSA-N.pdb
REMARK                            x       y       z     vdW  Elec       q    Type
REMARK                         _______ _______ _______ _____ _____    ______ ____
ROOT
ATOM      1  C   LIG    1       26.487  10.183   0.000  0.00  0.00    +0.054 C 
ENDROOT
BRANCH   1   2
ATOM      2  C   LIG    1       27.602  11.186   0.000  0.00  0.00    -0.034 A 
ATOM      3  C   LIG    1       27.290  12.653   0.000  0.00  0.00    +0.008 A 
ATOM      4  C   LIG    1       28.405  13.657   0.000  0.00  0.00    +0.051 A 
ATOM      5  C   LIG    1       29.831  13.194   0.000  0.00  0.00    +0.180 A 
ATOM      6  O   LIG    1       30.946  14.197   0.000  0.00  0.00    -0.288 OA
ATOM      7  C   LIG    1       30.143  11.726   0.000  0.00  0.00    +0.059 A 
ATOM      8  C   LIG    1       29.029  10.723   0.000  0.00  0.00    -0.010 A 
ENDBRANCH   1   2
BRANCH   1   9
ATOM      9  C   LIG    1       25.372   9.179   0.000  0.00  0.00    +0.122 C 
ATOM     10  C   LIG    1       24.258   8.175   0.000  0.00  0.00    +0.020 C 
BRANCH   9  12
ATOM     11  C   LIG    1       27.843   8.376   0.000  0.00  0.00    +0.058 C 
ATOM     12  N   LIG    1       26.376   8.064   0.000  0.00  0.00    -0.282 NA
BRANCH  11  13
ATOM     13  C   LIG    1       28.847   7.261   0.000  0.00  0.00    +0.075 C 
BRANCH  13  14
ATOM     14  C   LIG    1       29.851   6.147   0.000  0.00  0.00    +0.130 C 
ATOM     15  N   LIG    1       30.855   5.032   0.000  0.00  0.00    -0.143 NA
ENDBRANCH  13  14
ENDBRANCH  11  13
ENDBRANCH   9  12
ENDBRANCH   1   9
TORSDOF 5
REMARK  Name = molecules/DIDCGVRALANKIU-OTEFFYEFSA-N.pdb
REMARK                            x       y       z     vdW  Elec       q    Type
REMARK                         _______ _______ _______ _____ _____    ______ ____
ROOT
ATOM      1  N   GLY A  1       22.831   8.639   0.000  0.00  0.00    -0.134 NA
ATOM      2  CA  GLY A  1       21.716   7.635   0.000  0.00  0.00    +0.160 C 
ATOM      3  C   GLY A  1       22.720   6.520   0.000  0.00  0.00    +0.269 C 
ATOM      4  O   GLY A  1       23.724   5.406   0.000  0.00  0.00    -0.295 OA
ENDROOT
TORSDOF 0
REMARK  Name = molecules/DIDCGVRALANKIU-OTEFFYEFSA-N.pdb
REMARK                            x       y       z     vdW  Elec       q    Type
REMARK                         _______ _______ _______ _____ _____    ______ ____
ROOT
ATOM      1  N   LIG    1       19.246   8.438   0.000  0.00  0.00    -0.138 NA
ATOM      2  C   LIG    1       18.242   9.553   0.000  0.00  0.00    +0.114 C 
ATOM      3  C   LIG    1       19.357  10.556   0.000  0.00  0.00    +0.002 C 
ENDROOT
BRANCH   3   4
ATOM      4  C   LIG    1       20.471  11.560   0.000  0.00  0.00    +0.094 C 
BRANCH   4   5
ATOM      5  S   LIG    1       21.586  12.564   0.000  0.00  0.00    -0.174 S 
ATOM      6  H   LIG    1       22.247  12.967   0.000  0.00  0.00    +0.102 HD
ENDBRANCH   4   5
ENDBRANCH   3   4
TORSDOF 2
REMARK  Name = molecules/DIDCGVRALANKIU-OTEFFYEFSA-N.pdb
REMARK                            x       y       z     vdW  Elec       q    Type
REMARK                         _______ _______ _______ _____ _____    ______ ____
ROOT
ATOM      1  N   LIG    1       15.701   9.012   0.000  0.00  0.00    -0.195 NA
ATOM      2  N   LIG    1       15.718   7.340   0.000  0.00  0.00    -0.134 NA
ATOM      3  C   LIG    1       17.127   8.549   0.000  0.00  0.00    +0.117 C 
ATOM      4  C   LIG    1       14.586   8.009   0.000  0.00  0.00    +0.212 C 
ENDROOT
TORSDOF 0
REMARK  Name = molecules/DIDCGVRALANKIU-OTEFFYEFSA-N.pdb
REMARK                            x       y       z     vdW  Elec       q    Type
REMARK                         _______ _______ _______ _____ _____    ______ ____
ROOT
ATOM      1  C   LIG    1       10.992   9.719   0.000  0.00  0.00    +0.085 C 
ATOM      2  C   LIG    1       11.602  11.089   0.000  0.00  0.00    +0.013 C 
ATOM      3  C   LIG    1       10.078  10.473   0.000  0.00  0.00    +0.013 C 
ENDROOT
BRANCH   1   4
ATOM      4  N   LIG    1       12.115   8.812   0.000  0.00  0.00    -0.252 NA
ATOM      5  H   LIG    1       12.469   9.459   0.000  0.00  0.00    +0.141 HD
ENDBRANCH   1   4
TORSDOF 1
REMARK  Name = molecules/DIDCGVRALANKIU-OTEFFYEFSA-N.pdb
REMARK                            x       y       z     vdW  Elec       q    Type
REMARK                         _______ _______ _______ _____ _____    ______ ____
ROOT
ATOM      1  N   LIG    1        9.110   6.845   0.000  0.00  0.00    -0.130 NA
ATOM      2  C   LIG    1        7.684   7.308   0.000  0.00  0.00    +0.130 C 
ENDROOT
BRANCH   2   3
ATOM      3  C   LIG    1        7.220   5.882   0.000  0.00  0.00    +0.130 C 
ATOM      4  N   LIG    1        5.753   5.570   0.000  0.00  0.00    -0.130 NA
ENDBRANCH   2   3
TORSDOF 1
REMARK  Name = molecules/DIDCGVRALANKIU-OTEFFYEFSA-N.pdb
REMARK                            x       y       z     vdW  Elec       q    Type
REMARK                         _______ _______ _______ _____ _____    ______ ____
ROOT
ATOM      1  C   LIG    1        1.785   5.493   0.000  0.00  0.00    +0.259 C 
ATOM      2  O   LIG    1        0.781   6.608   0.000  0.00  0.00    -0.272 OA
ATOM      3  N   LIG    1        3.252   5.805   0.000  0.00  0.00    -0.172 N 
ATOM      4  C   LIG    1        3.863   4.607   0.000  0.00  0.00    +0.155 C 
ENDROOT
BRANCH   1   6
ATOM      5  N   LIG    1        2.748   3.603   0.000  0.00  0.00    -0.130 NA
ATOM      6  C   LIG    1        1.321   4.067   0.000  0.00  0.00    +0.185 C 
BRANCH   6   7
ATOM      7  C   LIG    1        0.858   2.640   0.000  0.00  0.00    +0.068 C 
BRANCH   7   8
ATOM      8  C   LIG    1        0.394   1.214   0.000  0.00  0.00    -0.018 A 
ATOM      9  C   LIG    1        1.276   0.000   0.000  0.00  0.00    +0.115 A 
ATOM     10  N   LIG    1        0.394  -1.214   0.000  0.00  0.00    -0.255 NA
ATOM     11  C   LIG    1       -1.032  -0.750   0.000  0.00  0.00    +0.071 A 
ATOM     12  C   LIG    1       -2.331  -1.500   0.000  0.00  0.00    +0.028 A 
ATOM     13  C   LIG    1       -3.630  -0.750   0.000  0.00  0.00    +0.002 A 
ATOM     14  C   LIG    1       -3.630   0.750   0.000  0.00  0.00    +0.001 A 
ATOM     15  C   LIG    1       -2.331   1.500   0.000  0.00  0.00    +0.010 A 
ATOM     16  C   LIG    1       -1.032   0.750   0.000  0.00  0.00    +0.005 A 
ENDBRANCH   7   8
ENDBRANCH   6   7
ENDBRANCH   1   6
BRANCH   3  17
ATOM     17  O   LIG    1        3.915   6.106   0.000  0.00  0.00    -0.264 OA
BRANCH  17  18
ATOM     18  C   LIG    1        3.716   7.232   0.000  0.00  0.00    +0.233 C 
BRANCH  18  19
ATOM     19  C   LIG    1        4.179   8.658   0.000  0.00  0.00    +0.094 C 
ATOM     20  N   LIG    1        3.175   9.773   0.000  0.00  0.00    -0.278 NA
BRANCH  20  21
ATOM     21  C   LIG    1        3.639  11.200   0.000  0.00  0.00    +0.130 C 
BRANCH  21  22
ATOM     22  C   LIG    1        2.212  11.663   0.000  0.00  0.00    +0.029 C 
BRANCH  22  23
ATOM     23  C   LIG    1        0.786  12.127   0.000  0.00  0.00    +0.003 C 
BRANCH  23  24
ATOM     24  C   LIG    1       -0.641  12.590   0.000  0.00  0.00    +0.018 C 
BRANCH  24  25
ATOM     25  C   LIG    1       -2.067  13.054   0.000  0.00  0.00    +0.124 C 
ATOM     26  N   LIG    1       -3.494  13.517   0.000  0.00  0.00    -0.143 NA
ENDBRANCH  24  25
ENDBRANCH  23  24
ENDBRANCH  22  23
ENDBRANCH  21  22
ENDBRANCH  20  21
ENDBRANCH  18  19
ENDBRANCH  17  18
ENDBRANCH   3  17
TORSDOF 11
REMARK  Name = molecules/DIDCGVRALANKIU-OTEFFYEFSA-N.pdb
REMARK                            x       y       z     vdW  Elec       q    Type
REMARK                         _______ _______ _______ _____ _____    ______ ____
ROOT
ATOM      1  N   LIG    1        6.180  11.740   0.000  0.00  0.00    -0.248 NA
ATOM      2  C   LIG    1        7.647  11.428   0.000  0.00  0.00    +0.074 C 
ATOM      3  C   LIG    1        8.070  12.703   0.000  0.00  0.00    -0.016 C 
ATOM      4  C   LIG    1        7.394  13.842   0.000  0.00  0.00    +0.058 C 
ATOM      5  C   LIG    1        6.024  13.232   0.000  0.00  0.00    +0.133 C 
ENDROOT
TORSDOF 0
REMARK  Name = molecules/DIDCGVRALANKIU-OTEFFYEFSA-N.pdb
REMARK                            x       y       z     vdW  Elec       q    Type
REMARK                         _______ _______ _______ _____ _____    ______ ____
ROOT
ATOM      1  N   LIG    1       10.231  11.700   0.000  0.00  0.00    +0.000 NA
ENDROOT
TORSDOF 0
REMARK  Name = molecules/DIDCGVRALANKIU-OTEFFYEFSA-N.pdb
REMARK                            x       y       z     vdW  Elec       q    Type
REMARK                         _______ _______ _______ _____ _____    ______ ____
ROOT
ATOM      1  N   LIG    1       13.704  12.617   0.000  0.00  0.00    -0.285 NA
ATOM      2  C   LIG    1       12.212  12.460   0.000  0.00  0.00    +0.150 C 
ATOM      3  C   LIG    1       14.314  13.987   0.000  0.00  0.00    +0.135 C 
ENDROOT
TORSDOF 0
REMARK  Name = molecules/DIDCGVRALANKIU-OTEFFYEFSA-N.pdb
REMARK                            x       y       z     vdW  Elec       q    Type
REMARK                         _______ _______ _______ _____ _____    ______ ____
ROOT
ATOM      1  N   LIG    1       16.416  15.514   0.000  0.00  0.00    -0.138 NA
ATOM      2  C   LIG    1       17.026  16.884   0.000  0.00  0.00    +0.113 C 
ENDROOT
BRANCH   2   3
ATOM      3  C   LIG    1       18.396  16.274   0.000  0.00  0.00    +0.023 C 
ATOM      4  C   LIG    1       19.766  15.664   0.000  0.00  0.00    +0.002 C 
ENDBRANCH   2   3
TORSDOF 1
REMARK  Name = molecules/DIDCGVRALANKIU-OTEFFYEFSA-N.pdb
REMARK                            x       y       z     vdW  Elec       q    Type
REMARK                         _______ _______ _______ _____ _____    ______ ____
ROOT
ATOM      1  N   LIG    1       15.498  18.986   0.000  0.00  0.00    -0.245 NA
ATOM      2  H   LIG    1       15.329  18.253   0.000  0.00  0.00    +0.141 HD
ENDROOT
BRANCH   1   3
ATOM      3  C   LIG    1       14.128  19.596   0.000  0.00  0.00    +0.084 C 
ATOM      4  C   LIG    1       13.843  18.462   0.000  0.00  0.00    +0.020 C 
ENDBRANCH   1   3
TORSDOF 1
REMARK  Name = molecules/DIDCGVRALANKIU-OTEFFYEFSA-N.pdb
REMARK                            x       y       z     vdW  Elec       q    Type
REMARK                         _______ _______ _______ _____ _____    ______ ____
ROOT
ATOM      1  C   LIG    1       11.416  16.699   0.000  0.00  0.00    +0.157 C 
ENDROOT
BRANCH   1   2
ATOM      2  C   LIG    1       12.787  16.089   0.000  0.00  0.00    +0.259 C 
ATOM      3  O   LIG    1       12.760  14.589   0.000  0.00  0.00    -0.272 OA
ATOM      4  N   LIG    1       14.000  16.970   0.000  0.00  0.00    -0.135 N 
ATOM      5  C   LIG    1       13.518  18.226   0.000  0.00  0.00    +0.151 C 
BRANCH   4   6
ATOM      6  O   LIG    1       14.667  17.262   0.000  0.00  0.00    -0.118 OA
BRANCH   6   7
ATOM      7  O   LIG    1       14.691  16.345   0.000  0.00  0.00    -0.228 OA
ATOM      8  H   LIG    1       15.370  16.360   0.000  0.00  0.00    +0.255 HD
ENDBRANCH   6   7
ENDBRANCH   4   6
ENDBRANCH   1   2
BRANCH   1   9
ATOM      9  N   LIG    1       12.026  18.069   0.000  0.00  0.00    -0.244 NA
ATOM     10  H   LIG    1       12.358  18.671   0.000  0.00  0.00    +0.141 HD
ENDBRANCH   1   9
BRANCH   1  11
ATOM     11  C   LIG    1       10.046  17.309   0.000  0.00  0.00    +0.029 C 
BRANCH  11  12
ATOM     12  C   LIG    1        8.676  17.919   0.000  0.00  0.00    +0.003 C 
BRANCH  12  13
ATOM     13  C   LIG    1        7.305  18.529   0.000  0.00  0.00    +0.018 C 
BRANCH  13  14
ATOM     14  C   LIG    1        5.935  19.139   0.000  0.00  0.00    +0.124 C 
ATOM     15  N   LIG    1        4.565  19.749   0.000  0.00  0.00    -0.143 NA
ENDBRANCH  13  14
ENDBRANCH  12  13
ENDBRANCH  11  12
ENDBRANCH   1  11
TORSDOF 8
REMARK  Name = molecules/DIDCGVRALANKIU-OTEFFYEFSA-N.pdb
REMARK                            x       y       z     vdW  Elec       q    Type
REMARK                         _______ _______ _______ _____ _____    ______ ____
ROOT
ATOM      1  C   LIG    1       13.687  19.954   0.000  0.00  0.00    -0.004 C 
ATOM      2  C   LIG    1       14.738  20.967   0.000  0.00  0.00    +0.012 C 
ATOM      3  C   LIG    1       13.530  21.446   0.000  0.00  0.00    -0.009 C 
ENDROOT
TORSDOF 0
REMARK  Name = molecules/DIDCGVRALANKIU-OTEFFYEFSA-N.pdb
REMARK                            x       y       z     vdW  Elec       q    Type
REMARK                         _______ _______ _______ _____ _____    ______ ____
ROOT
ATOM      1  C   LIG    1       13.373  22.938   0.000  0.00  0.00    +0.115 C 
ATOM      2  N   LIG    1       13.216  24.429   0.000  0.00  0.00    -0.255 NA
ATOM      3  H   LIG    1       14.588  24.317   0.000  0.00  0.00    +0.141 HD
ENDROOT
TORSDOF 0
REMARK  Name = molecules/DIDCGVRALANKIU-OTEFFYEFSA-N.pdb
REMARK                            x       y       z     vdW  Elec       q    Type
REMARK                         _______ _______ _______ _____ _____    ______ ____
ROOT
ATOM      1  O   HOH    1       28.307   9.803   0.000  0.00  0.00    -0.410 OA
ATOM      2  H   HOH    0       27.731   9.344   0.000  0.00  0.00    +0.205 HD
ATOM      3  H   HOH    0       29.340   9.256   0.000  0.00  0.00    +0.205 HD
ENDROOT
TORSDOF 0
REMARK  Name = molecules/DIDCGVRALANKIU-OTEFFYEFSA-N.pdb
REMARK                            x       y       z     vdW  Elec       q    Type
REMARK                         _______ _______ _______ _____ _____    ______ ____
ROOT
ATOM      1  O   HOH    1       24.570   6.708   0.000  0.00  0.00    -0.410 OA
ATOM      2  H   HOH    0       24.045   7.224   0.000  0.00  0.00    +0.205 HD
ATOM      3  H   HOH    0       25.191   5.718   0.000  0.00  0.00    +0.205 HD
ENDROOT
TORSDOF 0
REMARK  Name = molecules/DIDCGVRALANKIU-OTEFFYEFSA-N.pdb
REMARK                            x       y       z     vdW  Elec       q    Type
REMARK                         _______ _______ _______ _____ _____    ______ ____
ROOT
ATOM      1  C   LIG    1       20.713   8.750   0.000  0.00  0.00    +0.000 C 
ENDROOT
TORSDOF 0
REMARK  Name = molecules/DIDCGVRALANKIU-OTEFFYEFSA-N.pdb
REMARK                            x       y       z     vdW  Elec       q    Type
REMARK                         _______ _______ _______ _____ _____    ______ ____
ROOT
ATOM      1  O   HOH    1       21.347  10.109   0.000  0.00  0.00    -0.410 OA
ATOM      2  H   HOH    0       22.519  10.106   0.000  0.00  0.00    +0.205 HD
ATOM      3  H   HOH    0       20.600   9.718   0.000  0.00  0.00    +0.205 HD
ENDROOT
TORSDOF 0
REMARK  Name = molecules/DIDCGVRALANKIU-OTEFFYEFSA-N.pdb
REMARK                            x       y       z     vdW  Elec       q    Type
REMARK                         _______ _______ _______ _____ _____    ______ ____
ROOT
ATOM      1  C   LIG    1       21.274  14.031   0.000  0.00  0.00    -0.022 C 
ATOM      2  C   LIG    1       21.137  15.054   0.000  0.00  0.00    -0.004 C 
ATOM      3  C   LIG    1       22.507  14.444   0.000  0.00  0.00    +0.026 C 
ENDROOT
TORSDOF 0
REMARK  Name = molecules/DIDCGVRALANKIU-OTEFFYEFSA-N.pdb
REMARK                            x       y       z     vdW  Elec       q    Type
REMARK                         _______ _______ _______ _____ _____    ______ ____
ROOT
ATOM      1  O   HOH    1       17.616   7.131   0.000  0.00  0.00    -0.410 OA
ATOM      2  H   HOH    0       18.358   6.921   0.000  0.00  0.00    +0.205 HD
ATOM      3  H   HOH    0       17.918   6.484   0.000  0.00  0.00    +0.205 HD
ENDROOT
TORSDOF 0
REMARK  Name = molecules/DIDCGVRALANKIU-OTEFFYEFSA-N.pdb
REMARK                            x       y       z     vdW  Elec       q    Type
REMARK                         _______ _______ _______ _____ _____    ______ ____
ROOT
ATOM      1  C   LIG    1       13.582   9.123   0.000  0.00  0.00    +0.000 C 
ENDROOT
TORSDOF 0
REMARK  Name = molecules/DIDCGVRALANKIU-OTEFFYEFSA-N.pdb
REMARK                            x       y       z     vdW  Elec       q    Type
REMARK                         _______ _______ _______ _____ _____    ______ ____
ROOT
ATOM      1  C   LIG    1       16.593   5.779   0.000  0.00  0.00    +0.094 C 
ENDROOT
BRANCH   1   2
ATOM      2  N   LIG    1       16.468   5.031   0.000  0.00  0.00    -0.307 N 
ATOM      3  C   LIG    1       17.597   4.665   0.000  0.00  0.00    +0.326 C 
ATOM      4  O   LIG    1       19.064   4.976   0.000  0.00  0.00    -0.280 OA
ATOM      5  H   LIG    1       15.755   4.536   0.000  0.00  0.00    +0.149 HD
ENDBRANCH   1   2
BRANCH   1   6
ATOM      6  C   LIG    1       16.932   6.458   0.000  0.00  0.00    +0.047 C 
BRANCH   6   7
ATOM      7  C   LIG    1       15.589   6.894   0.000  0.00  0.00    -0.024 C 
ATOM      8  C   LIG    1       14.505   6.458   0.000  0.00  0.00    -0.005 C 
ENDBRANCH   6   7
ENDBRANCH   1   6
TORSDOF 3
REMARK  Name = molecules/DIDCGVRALANKIU-OTEFFYEFSA-N.pdb
REMARK                            x       y       z     vdW  Elec       q    Type
REMARK                         _______ _______ _______ _____ _____    ______ ____
ROOT
ATOM      1  O   HOH    1       17.133   3.238   0.000  0.00  0.00    +0.000 OA
ENDROOT
TORSDOF 0
REMARK  Name = molecules/DIDCGVRALANKIU-OTEFFYEFSA-N.pdb
REMARK                            x       y       z     vdW  Elec       q    Type
REMARK                         _______ _______ _______ _____ _____    ______ ____
ROOT
ATOM      1  O   HOH    1       14.046  10.550   0.000  0.00  0.00    -0.410 OA
ATOM      2  H   HOH    0       12.972  10.479   0.000  0.00  0.00    +0.205 HD
ATOM      3  H   HOH    0       14.585  11.403   0.000  0.00  0.00    +0.205 HD
ENDROOT
TORSDOF 0
REMARK  Name = molecules/DIDCGVRALANKIU-OTEFFYEFSA-N.pdb
REMARK                            x       y       z     vdW  Elec       q    Type
REMARK                         _______ _______ _______ _____ _____    ______ ____
ROOT
ATOM      1  C   LIG    1       10.225   7.848   0.000  0.00  0.00    +0.000 C 
ENDROOT
TORSDOF 0
REMARK  Name = molecules/DIDCGVRALANKIU-OTEFFYEFSA-N.pdb
REMARK                            x       y       z     vdW  Elec       q    Type
REMARK                         _______ _______ _______ _____ _____    ______ ____
ROOT
ATOM      1  C   LIG    1       13.078   6.921   0.000  0.00  0.00    -0.000 C 
ENDROOT
TORSDOF 0
REMARK  Name = molecules/DIDCGVRALANKIU-OTEFFYEFSA-N.pdb
REMARK                            x       y       z     vdW  Elec       q    Type
REMARK                         _______ _______ _______ _____ _____    ______ ____
ROOT
ATOM      1  C   LIG    1       14.968   5.031   0.000  0.00  0.00    -0.000 C 
ENDROOT
TORSDOF 0
REMARK  Name = molecules/DIDCGVRALANKIU-OTEFFYEFSA-N.pdb
REMARK                            x       y       z     vdW  Elec       q    Type
REMARK                         _______ _______ _______ _____ _____    ______ ____
ROOT
ATOM      1  C   LIG    1       11.651   7.385   0.000  0.00  0.00    +0.000 C 
ENDROOT
TORSDOF 0
REMARK  Name = molecules/DIDCGVRALANKIU-OTEFFYEFSA-N.pdb
REMARK                            x       y       z     vdW  Elec       q    Type
REMARK                         _______ _______ _______ _____ _____    ______ ____
ROOT
ATOM      1  O   HOH    1        9.736   9.267   0.000  0.00  0.00    -0.410 OA
ATOM      2  H   HOH    0        9.183   8.895   0.000  0.00  0.00    +0.205 HD
ATOM      3  H   HOH    0        9.643   8.630   0.000  0.00  0.00    +0.205 HD
ENDROOT
TORSDOF 0
REMARK  Name = molecules/DIDCGVRALANKIU-OTEFFYEFSA-N.pdb
REMARK                            x       y       z     vdW  Elec       q    Type
REMARK                         _______ _______ _______ _____ _____    ______ ____
ROOT
ATOM      1  C   LIG    1        8.147   8.735   0.000  0.00  0.00    +0.000 C 
ENDROOT
TORSDOF 0
REMARK  Name = molecules/DIDCGVRALANKIU-OTEFFYEFSA-N.pdb
REMARK                            x       y       z     vdW  Elec       q    Type
REMARK                         _______ _______ _______ _____ _____    ______ ____
ROOT
ATOM      1  C   LIG    1        8.611  10.162   0.000  0.00  0.00    +0.005 C 
ATOM      2  C   LIG    1        9.018  10.818   0.000  0.00  0.00    -0.009 C 
ATOM      3  C   LIG    1        9.621  10.329   0.000  0.00  0.00    +0.005 C 
ENDROOT
TORSDOF 0
REMARK  Name = molecules/DIDCGVRALANKIU-OTEFFYEFSA-N.pdb
REMARK                            x       y       z     vdW  Elec       q    Type
REMARK                         _______ _______ _______ _____ _____    ______ ____
ROOT
ATOM      1  C   LIG    1       10.541  11.900   0.000  0.00  0.00    +0.000 C 
ENDROOT
TORSDOF 0
REMARK  Name = molecules/DIDCGVRALANKIU-OTEFFYEFSA-N.pdb
REMARK                            x       y       z     vdW  Elec       q    Type
REMARK                         _______ _______ _______ _____ _____    ______ ____
ROOT
ATOM      1  C   LIG    1        9.538  13.015   0.000  0.00  0.00    +0.018 C 
ATOM      2  C   LIG    1        8.398  12.727   0.000  0.00  0.00    -0.018 C 
ENDROOT
TORSDOF 0
REMARK  Name = molecules/DIDCGVRALANKIU-OTEFFYEFSA-N.pdb
REMARK                            x       y       z     vdW  Elec       q    Type
REMARK                         _______ _______ _______ _____ _____    ______ ____
ROOT
ATOM      1  C   LIG    1        7.607  11.276   0.000  0.00  0.00    +0.000 C 
ENDROOT
TORSDOF 0
REMARK  Name = molecules/DIDCGVRALANKIU-OTEFFYEFSA-N.pdb
REMARK                            x       y       z     vdW  Elec       q    Type
REMARK                         _______ _______ _______ _____ _____    ______ ____
ROOT
ATOM      1  O   HOH    1        8.352   4.898   0.000  0.00  0.00    -0.410 OA
ATOM      2  H   HOH    0        9.422   5.378   0.000  0.00  0.00    +0.205 HD
ATOM      3  H   HOH    0        7.511   4.952   0.000  0.00  0.00    +0.205 HD
ENDROOT
TORSDOF 0
REMARK  Name = molecules/DIDCGVRALANKIU-OTEFFYEFSA-N.pdb
REMARK                            x       y       z     vdW  Elec       q    Type
REMARK                         _______ _______ _______ _____ _____    ______ ____
ROOT
ATOM      1  C   LIG    1       12.110   3.293   0.000  0.00  0.00    +0.412 C 
ATOM      2  N   LIG    1       13.537   2.829   0.000  0.00  0.00    -0.127 NA
ATOM      3  H   LIG    1       14.241   3.719   0.000  0.00  0.00    +0.306 HD
ENDROOT
BRANCH   1   4
ATOM      4  N   LIG    1       11.798   4.760   0.000  0.00  0.00    -0.287 N 
ATOM      5  H   LIG    1       11.188   5.958   0.000  0.00  0.00    +0.255 HD
ATOM      6  H   LIG    1       12.792   5.449   0.000  0.00  0.00    +0.255 HD
ENDBRANCH   1   4
BRANCH   1   7
ATOM      7  N   LIG    1       10.996   2.289   0.000  0.00  0.00    -0.111 NA
BRANCH   7   8
ATOM      8  C   LIG    1        9.569   2.753   0.000  0.00  0.00    +0.244 C 
BRANCH   8  10
ATOM      9  C   LIG    1        6.716   3.680   0.000  0.00  0.00    -0.001 C 
ATOM     10  C   LIG    1        8.142   3.216   0.000  0.00  0.00    +0.045 C 
ENDBRANCH   8  10
ENDBRANCH   7   8
ENDBRANCH   1   7
TORSDOF 4
REMARK  Name = molecules/DIDCGVRALANKIU-OTEFFYEFSA-N.pdb
REMARK                            x       y       z     vdW  Elec       q    Type
REMARK                         _______ _______ _______ _____ _____    ______ ____
ROOT
ATOM      1  C   LIG    1        5.289   4.143   0.000  0.00  0.00    +0.000 C 
ENDROOT
TORSDOF 0
REMARK  Name = molecules/DIDCGVRALANKIU-OTEFFYEFSA-N.pdb
REMARK                            x       y       z     vdW  Elec       q    Type
REMARK                         _______ _______ _______ _____ _____    ______ ____
ROOT
ATOM      1  O   HOH    1        5.673   8.789   0.000  0.00  0.00    -0.410 OA
ATOM      2  H   HOH    0        6.720   9.198   0.000  0.00  0.00    +0.205 HD
ATOM      3  H   HOH    0        6.257   7.772   0.000  0.00  0.00    +0.205 HD
ENDROOT
TORSDOF 0
REMARK  Name = molecules/DIDCGVRALANKIU-OTEFFYEFSA-N.pdb
REMARK                            x       y       z     vdW  Elec       q    Type
REMARK                         _______ _______ _______ _____ _____    ______ ____
ROOT
ATOM      1  C   LIG    1        5.066  10.736   0.000  0.00  0.00    +0.225 C 
ATOM      2  O   LIG    1        5.554   9.318   0.000  0.00  0.00    -0.225 OA
ENDROOT
TORSDOF 0
REMARK  Name = molecules/DIDCGVRALANKIU-OTEFFYEFSA-N.pdb
REMARK                            x       y       z     vdW  Elec       q    Type
REMARK                         _______ _______ _______ _____ _____    ______ ____
ROOT
ATOM      1  O   HOH    1        8.630   9.369   0.000  0.00  0.00    -0.253 OA
ATOM      2  H   HOH    0        8.947   8.787   0.000  0.00  0.00    +0.253 HD
ENDROOT
TORSDOF 0
REMARK  Name = molecules/DIDCGVRALANKIU-OTEFFYEFSA-N.pdb
REMARK                            x       y       z     vdW  Elec       q    Type
REMARK                         _______ _______ _______ _____ _____    ______ ____
ROOT
ATOM      1  C   LIG    1       10.382   8.349   0.000  0.00  0.00    +0.000 C 
ENDROOT
TORSDOF 0
REMARK  Name = molecules/DIDCGVRALANKIU-OTEFFYEFSA-N.pdb
REMARK                            x       y       z     vdW  Elec       q    Type
REMARK                         _______ _______ _______ _____ _____    ______ ____
ROOT
ATOM      1  O   HOH    1       11.330  13.673   0.000  0.00  0.00    -0.410 OA
ATOM      2  H   HOH    0       11.889  12.558   0.000  0.00  0.00    +0.205 HD
ATOM      3  H   HOH    0       10.172  14.374   0.000  0.00  0.00    +0.205 HD
ENDROOT
TORSDOF 0
REMARK  Name = molecules/DIDCGVRALANKIU-OTEFFYEFSA-N.pdb
REMARK                            x       y       z     vdW  Elec       q    Type
REMARK                         _______ _______ _______ _____ _____    ______ ____
ROOT
ATOM      1  C   LIG    1       14.924  15.357   0.000  0.00  0.00    +0.000 C 
ENDROOT
TORSDOF 0
REMARK  Name = molecules/DIDCGVRALANKIU-OTEFFYEFSA-N.pdb
REMARK                            x       y       z     vdW  Elec       q    Type
REMARK                         _______ _______ _______ _____ _____    ______ ____
ROOT
ATOM      1  O   HOH    1       14.362  16.748   0.000  0.00  0.00    +0.000 OA
ENDROOT
TORSDOF 0
REMARK  Name = molecules/DIDCGVRALANKIU-OTEFFYEFSA-N.pdb
REMARK                            x       y       z     vdW  Elec       q    Type
REMARK                         _______ _______ _______ _____ _____    ______ ____
ROOT
ATOM      1  C   LIG    1       15.655  17.494   0.000  0.00  0.00    +0.000 C 
ENDROOT
TORSDOF 0
REMARK  Name = molecules/DIDCGVRALANKIU-OTEFFYEFSA-N.pdb
REMARK                            x       y       z     vdW  Elec       q    Type
REMARK                         _______ _______ _______ _____ _____    ______ ____
ROOT
ATOM      1  N   LIG    1       23.877  13.834   0.000  0.00  0.00    -0.163 NA
ATOM      2  H   LIG    1       22.773  13.979   0.000  0.00  0.00    +0.163 HD
ENDROOT
TORSDOF 0
REMARK  Name = molecules/DIDCGVRALANKIU-OTEFFYEFSA-N.pdb
REMARK                            x       y       z     vdW  Elec       q    Type
REMARK                         _______ _______ _______ _____ _____    ______ ____
ROOT
ATOM      1  C   LIG    1       15.959  23.707   0.000  0.00  0.00    +0.000 C 
ENDROOT
TORSDOF 0
REMARK  Name = molecules/DIDCGVRALANKIU-OTEFFYEFSA-N.pdb
REMARK                            x       y       z     vdW  Elec       q    Type
REMARK                         _______ _______ _______ _____ _____    ______ ____
ROOT
ATOM      1  C   LIG    1       15.348  22.337   0.000  0.00  0.00    +0.000 C 
ENDROOT
TORSDOF 0
REMARK  Name = molecules/DIDCGVRALANKIU-OTEFFYEFSA-N.pdb
REMARK                            x       y       z     vdW  Elec       q    Type
REMARK                         _______ _______ _______ _____ _____    ______ ____
ROOT
ATOM      1  N   LIG    1       17.179  26.448   0.000  0.00  0.00    -0.142 NA
ATOM      2  C   LIG    1       16.569  25.078   0.000  0.00  0.00    +0.142 C 
ENDROOT
TORSDOF 0
REMARK  Name = molecules/DIDCGVRALANKIU-OTEFFYEFSA-N.pdb
REMARK                            x       y       z     vdW  Elec       q    Type
REMARK                         _______ _______ _______ _____ _____    ______ ____
ROOT
ATOM      1  H   UNK    1       25.913   6.638   0.000  0.00  0.00    +0.000 HD
ENDROOT
TORSDOF 0
REMARK  Name = molecules/DIDCGVRALANKIU-OTEFFYEFSA-N.pdb
REMARK                            x       y       z     vdW  Elec       q    Type
REMARK                         _______ _______ _______ _____ _____    ______ ____
ROOT
ATOM      1  H   UNK    1       18.959   6.965   0.000  0.00  0.00    +0.000 HD
ENDROOT
TORSDOF 0
REMARK  Name = molecules/DIDCGVRALANKIU-OTEFFYEFSA-N.pdb
REMARK                            x       y       z     vdW  Elec       q    Type
REMARK                         _______ _______ _______ _____ _____    ______ ____
ROOT
ATOM      1  H   UNK    1       15.389  10.480   0.000  0.00  0.00    +0.000 HD
ENDROOT
TORSDOF 0
REMARK  Name = molecules/DIDCGVRALANKIU-OTEFFYEFSA-N.pdb
REMARK                            x       y       z     vdW  Elec       q    Type
REMARK                         _______ _______ _______ _____ _____    ______ ____
ROOT
ATOM      1  H   UNK    1        3.236   2.185   0.000  0.00  0.00    +0.000 HD
ENDROOT
TORSDOF 0
REMARK  Name = molecules/DIDCGVRALANKIU-OTEFFYEFSA-N.pdb
REMARK                            x       y       z     vdW  Elec       q    Type
REMARK                         _______ _______ _______ _____ _____    ______ ____
ROOT
ATOM      1  H   UNK    1        1.757   9.285   0.000  0.00  0.00    +0.000 HD
ENDROOT
TORSDOF 0
REMARK  Name = molecules/DIDCGVRALANKIU-OTEFFYEFSA-N.pdb
REMARK                            x       y       z     vdW  Elec       q    Type
REMARK                         _______ _______ _______ _____ _____    ______ ____
ROOT
ATOM      1  H   UNK    1        9.718  13.109   0.000  0.00  0.00    +0.000 HD
ENDROOT
TORSDOF 0
REMARK  Name = molecules/DIDCGVRALANKIU-OTEFFYEFSA-N.pdb
REMARK                            x       y       z     vdW  Elec       q    Type
REMARK                         _______ _______ _______ _____ _____    ______ ____
ROOT
ATOM      1  H   UNK    1       17.143  14.202   0.000  0.00  0.00    +0.000 HD
ENDROOT
TORSDOF 0
REMARK  Name = molecules/DIDCGVRALANKIU-OTEFFYEFSA-N.pdb
REMARK                            x       y       z     vdW  Elec       q    Type
REMARK                         _______ _______ _______ _____ _____    ______ ____
ROOT
ATOM      1  H   UNK    1       16.811  19.713   0.000  0.00  0.00    +0.000 HD
ENDROOT
TORSDOF 0
REMARK  Name = molecules/DIDCGVRALANKIU-OTEFFYEFSA-N.pdb
REMARK                            x       y       z     vdW  Elec       q    Type
REMARK                         _______ _______ _______ _____ _____    ______ ____
ROOT
ATOM      1  H   UNK    1       11.299  19.381   0.000  0.00  0.00    +0.000 HD
ENDROOT
TORSDOF 0
REMARK  Name = molecules/DIDCGVRALANKIU-OTEFFYEFSA-N.pdb
REMARK                            x       y       z     vdW  Elec       q    Type
REMARK                         _______ _______ _______ _____ _____    ______ ____
ROOT
ATOM      1  H   UNK    1       12.187  19.980   0.000  0.00  0.00    +0.000 HD
ENDROOT
TORSDOF 0
REMARK  Name = molecules/DIDCGVRALANKIU-OTEFFYEFSA-N.pdb
REMARK                            x       y       z     vdW  Elec       q    Type
REMARK                         _______ _______ _______ _____ _____    ______ ____
ROOT
ATOM      1  H   UNK    1       12.038  21.289   0.000  0.00  0.00    +0.000 HD
ENDROOT
TORSDOF 0
REMARK  Name = molecules/DIDCGVRALANKIU-OTEFFYEFSA-N.pdb
REMARK                            x       y       z     vdW  Elec       q    Type
REMARK                         _______ _______ _______ _____ _____    ______ ____
ROOT
ATOM      1  H   UNK    1       11.881  22.781   0.000  0.00  0.00    +0.000 HD
ENDROOT
TORSDOF 0
REMARK  Name = molecules/DIDCGVRALANKIU-OTEFFYEFSA-N.pdb
REMARK                            x       y       z     vdW  Elec       q    Type
REMARK                         _______ _______ _______ _____ _____    ______ ____
ROOT
ATOM      1  H   UNK    1       14.313  25.452   0.000  0.00  0.00    +0.000 HD
ENDROOT
TORSDOF 0
REMARK  Name = molecules/DIDCGVRALANKIU-OTEFFYEFSA-N.pdb
REMARK                            x       y       z     vdW  Elec       q    Type
REMARK                         _______ _______ _______ _____ _____    ______ ____
ROOT
ATOM      1  H   UNK    1       11.846  25.039   0.000  0.00  0.00    +0.000 HD
ENDROOT
TORSDOF 0
REMARK  Name = molecules/DIDCGVRALANKIU-OTEFFYEFSA-N.pdb
REMARK                            x       y       z     vdW  Elec       q    Type
REMARK                         _______ _______ _______ _____ _____    ______ ____
ROOT
ATOM      1  H   UNK    1       32.322   5.344   0.000  0.00  0.00    +0.000 HD
ENDROOT
TORSDOF 0
REMARK  Name = molecules/DIDCGVRALANKIU-OTEFFYEFSA-N.pdb
REMARK                            x       y       z     vdW  Elec       q    Type
REMARK                         _______ _______ _______ _____ _____    ______ ____
ROOT
ATOM      1  H   UNK    1       30.391   3.605   0.000  0.00  0.00    +0.000 HD
ENDROOT
TORSDOF 0
REMARK  Name = molecules/DIDCGVRALANKIU-OTEFFYEFSA-N.pdb
REMARK                            x       y       z     vdW  Elec       q    Type
REMARK                         _______ _______ _______ _____ _____    ______ ____
ROOT
ATOM      1  H   UNK    1       32.373  13.734   0.000  0.00  0.00    +0.000 HD
ENDROOT
TORSDOF 0
REMARK  Name = molecules/DIDCGVRALANKIU-OTEFFYEFSA-N.pdb
REMARK                            x       y       z     vdW  Elec       q    Type
REMARK                         _______ _______ _______ _____ _____    ______ ____
ROOT
ATOM      1  H   UNK    1       21.327  15.530   0.000  0.00  0.00    +0.000 HD
ENDROOT
TORSDOF 0
REMARK  Name = molecules/DIDCGVRALANKIU-OTEFFYEFSA-N.pdb
REMARK                            x       y       z     vdW  Elec       q    Type
REMARK                         _______ _______ _______ _____ _____    ______ ____
ROOT
ATOM      1  H   UNK    1       19.926  13.373   0.000  0.00  0.00    +0.000 HD
ENDROOT
TORSDOF 0
REMARK  Name = molecules/DIDCGVRALANKIU-OTEFFYEFSA-N.pdb
REMARK                            x       y       z     vdW  Elec       q    Type
REMARK                         _______ _______ _______ _____ _____    ______ ____
ROOT
ATOM      1  H   UNK    1       18.137   2.123   0.000  0.00  0.00    +0.000 HD
ENDROOT
TORSDOF 0
REMARK  Name = molecules/DIDCGVRALANKIU-OTEFFYEFSA-N.pdb
REMARK                            x       y       z     vdW  Elec       q    Type
REMARK                         _______ _______ _______ _____ _____    ______ ____
ROOT
ATOM      1  H   UNK    1        7.366  14.027   0.000  0.00  0.00    +0.000 HD
ENDROOT
TORSDOF 0
REMARK  Name = molecules/DIDCGVRALANKIU-OTEFFYEFSA-N.pdb
REMARK                            x       y       z     vdW  Elec       q    Type
REMARK                         _______ _______ _______ _____ _____    ______ ____
ROOT
ATOM      1  H   UNK    1       11.307   0.822   0.000  0.00  0.00    +0.000 HD
ENDROOT
TORSDOF 0
REMARK  Name = molecules/DIDCGVRALANKIU-OTEFFYEFSA-N.pdb
REMARK                            x       y       z     vdW  Elec       q    Type
REMARK                         _______ _______ _______ _____ _____    ______ ____
ROOT
ATOM      1  H   UNK    1       10.372   5.224   0.000  0.00  0.00    +0.000 HD
ENDROOT
TORSDOF 0
REMARK  Name = molecules/DIDCGVRALANKIU-OTEFFYEFSA-N.pdb
REMARK                            x       y       z     vdW  Elec       q    Type
REMARK                         _______ _______ _______ _____ _____    ______ ____
ROOT
ATOM      1  H   UNK    1        0.858  -2.640   0.000  0.00  0.00    +0.000 HD
ENDROOT
TORSDOF 0
REMARK  Name = molecules/DIDCGVRALANKIU-OTEFFYEFSA-N.pdb
REMARK                            x       y       z     vdW  Elec       q    Type
REMARK                         _______ _______ _______ _____ _____    ______ ____
ROOT
ATOM      1  H   UNK    1        2.289   7.695   0.000  0.00  0.00    +0.000 HD
ENDROOT
TORSDOF 0
REMARK  Name = molecules/DIDCGVRALANKIU-OTEFFYEFSA-N.pdb
REMARK                            x       y       z     vdW  Elec       q    Type
REMARK                         _______ _______ _______ _____ _____    ______ ____
ROOT
ATOM      1  H   UNK    1        5.188   6.946   0.000  0.00  0.00    +0.000 HD
ENDROOT
TORSDOF 0
REMARK  Name = molecules/DIDCGVRALANKIU-OTEFFYEFSA-N.pdb
REMARK                            x       y       z     vdW  Elec       q    Type
REMARK                         _______ _______ _______ _____ _____    ______ ____
ROOT
ATOM      1  H   UNK    1       -4.609  12.514   0.000  0.00  0.00    +0.000 HD
ENDROOT
TORSDOF 0
REMARK  Name = molecules/DIDCGVRALANKIU-OTEFFYEFSA-N.pdb
REMARK                            x       y       z     vdW  Elec       q    Type
REMARK                         _______ _______ _______ _____ _____    ______ ____
ROOT
ATOM      1  H   UNK    1       -3.806  14.985   0.000  0.00  0.00    +0.000 HD
ENDROOT
TORSDOF 0
REMARK  Name = molecules/DIDCGVRALANKIU-OTEFFYEFSA-N.pdb
REMARK                            x       y       z     vdW  Elec       q    Type
REMARK                         _______ _______ _______ _____ _____    ______ ____
ROOT
ATOM      1  H   UNK    1        9.700  11.827   0.000  0.00  0.00    +0.000 HD
ENDROOT
TORSDOF 0
REMARK  Name = molecules/DIDCGVRALANKIU-OTEFFYEFSA-N.pdb
REMARK                            x       y       z     vdW  Elec       q    Type
REMARK                         _______ _______ _______ _____ _____    ______ ____
ROOT
ATOM      1  H   UNK    1       24.034  12.342   0.000  0.00  0.00    +0.000 HD
ENDROOT
TORSDOF 0
REMARK  Name = molecules/DIDCGVRALANKIU-OTEFFYEFSA-N.pdb
REMARK                            x       y       z     vdW  Elec       q    Type
REMARK                         _______ _______ _______ _____ _____    ______ ____
ROOT
ATOM      1  H   UNK    1       25.091  14.715   0.000  0.00  0.00    +0.000 HD
ENDROOT
TORSDOF 0
REMARK  Name = molecules/DIDCGVRALANKIU-OTEFFYEFSA-N.pdb
REMARK                            x       y       z     vdW  Elec       q    Type
REMARK                         _______ _______ _______ _____ _____    ______ ____
ROOT
ATOM      1  H   UNK    1       16.719  21.727   0.000  0.00  0.00    +0.000 HD
ENDROOT
TORSDOF 0
REMARK  Name = molecules/DIDCGVRALANKIU-OTEFFYEFSA-N.pdb
REMARK                            x       y       z     vdW  Elec       q    Type
REMARK                         _______ _______ _______ _____ _____    ______ ____
ROOT
ATOM      1  H   UNK    1       16.173  20.528   0.000  0.00  0.00    +0.000 HD
ENDROOT
TORSDOF 0
REMARK  Name = molecules/DIDCGVRALANKIU-OTEFFYEFSA-N.pdb
REMARK                            x       y       z     vdW  Elec       q    Type
REMARK                         _______ _______ _______ _____ _____    ______ ____
ROOT
ATOM      1  H   UNK    1       16.297  27.661   0.000  0.00  0.00    +0.000 HD
ENDROOT
TORSDOF 0
REMARK  Name = molecules/DIDCGVRALANKIU-OTEFFYEFSA-N.pdb
REMARK                            x       y       z     vdW  Elec       q    Type
REMARK                         _______ _______ _______ _____ _____    ______ ____
ROOT
ATOM      1  H   UNK    1       18.671  26.605   0.000  0.00  0.00    +0.000 HD
ENDROOT
TORSDOF 0
REMARK  Name = molecules/DIDCGVRALANKIU-OTEFFYEFSA-N.pdb
REMARK                            x       y       z     vdW  Elec       q    Type
REMARK                         _______ _______ _______ _____ _____    ______ ____
ROOT
ATOM      1  H   UNK    1        4.408  21.241   0.000  0.00  0.00    +0.000 HD
ENDROOT
TORSDOF 0
REMARK  Name = molecules/DIDCGVRALANKIU-OTEFFYEFSA-N.pdb
REMARK                            x       y       z     vdW  Elec       q    Type
REMARK                         _______ _______ _______ _____ _____    ______ ____
ROOT
ATOM      1  H   UNK    1        3.351  18.868   0.000  0.00  0.00    +0.000 HD
ENDROOT
TORSDOF 0
