REMARK  Name = molecules/DIGADQKVPFDJSI-SPYBWZPUSA-N.pdb
REMARK                            x       y       z     vdW  Elec       q    Type
REMARK                         _______ _______ _______ _____ _____    ______ ____
ROOT
ATOM      1  C   LIG    1       -0.309  -0.212   1.258  0.00  0.00    +0.122 C 
ATOM      2  C   LIG    1        0.322   0.750   1.916  0.00  0.00    -0.034 C 
ATOM      3  C   LIG    1       -0.412   1.731   2.745  0.00  0.00    +0.042 C 
ATOM      4  C   LIG    1        1.823   0.847   1.783  0.00  0.00    +0.103 C 
ATOM      5  S   LIG    1        2.566  -0.793   1.878  0.00  0.00    -0.131 S 
ATOM      6  C   LIG    1        1.488  -1.919   0.979  0.00  0.00    +0.169 C 
ATOM      7  C   LIG    1        1.850  -2.150  -0.471  0.00  0.00    +0.191 C 
ATOM      8  C   LIG    1        0.449  -1.830  -0.818  0.00  0.00    +0.244 C 
ATOM      9  O   LIG    1       -0.349  -2.019  -1.766  0.00  0.00    -0.273 OA
ATOM     10  N   LIG    1        0.360  -1.166   0.461  0.00  0.00    -0.249 N 
ENDROOT
BRANCH   7  11
ATOM     11  N   LIG    1        2.854  -1.264  -0.966  0.00  0.00    -0.300 N 
ATOM     12  H   LIG    1        2.724  -0.238  -0.840  0.00  0.00    +0.150 HD
ATOM     13  C   LIG    1        4.014  -1.749  -1.620  0.00  0.00    +0.235 C 
ATOM     14  O   LIG    1        4.160  -2.996  -1.766  0.00  0.00    -0.274 OA
BRANCH  13  15
ATOM     15  C   LIG    1        5.065  -0.807  -2.137  0.00  0.00    +0.168 C 
BRANCH  15  16
ATOM     16  C   LIG    1        5.608   0.009  -1.002  0.00  0.00    -0.022 A 
ATOM     17  C   LIG    1        6.484  -0.529  -0.080  0.00  0.00    +0.005 A 
ATOM     18  C   LIG    1        6.980   0.221   0.956  0.00  0.00    +0.000 A 
ATOM     19  C   LIG    1        6.617   1.552   1.117  0.00  0.00    +0.000 A 
ATOM     20  C   LIG    1        5.741   2.064   0.182  0.00  0.00    +0.000 A 
ATOM     21  C   LIG    1        5.236   1.323  -0.864  0.00  0.00    +0.005 A 
ENDBRANCH  15  16
BRANCH  15  22
ATOM     22  N   LIG    1        6.132  -1.571  -2.755  0.00  0.00    -0.316 NA
ATOM     23  H   LIG    1        6.449  -2.284  -2.070  0.00  0.00    +0.119 HD
ATOM     24  H   LIG    1        5.698  -2.085  -3.559  0.00  0.00    +0.119 HD
ENDBRANCH  15  22
ENDBRANCH  13  15
ENDBRANCH   7  11
BRANCH   1  25
ATOM     25  C   LIG    1       -1.798  -0.305   1.353  0.00  0.00    +0.356 C 
ATOM     26  O   LIG    1       -2.420   0.525   2.060  0.00  0.00    -0.243 OA
BRANCH  25  27
ATOM     27  O   LIG    1       -2.539  -1.232   0.722  0.00  0.00    -0.423 OA
BRANCH  27  28
ATOM     28  C   LIG    1       -3.824  -1.601   0.568  0.00  0.00    +0.473 C 
BRANCH  28  29
ATOM     29  O   LIG    1       -4.791  -0.847  -0.012  0.00  0.00    -0.427 OA
BRANCH  29  30
ATOM     30  C   LIG    1       -5.424   0.319   0.196  0.00  0.00    +0.315 C 
ATOM     31  O   LIG    1       -5.107   0.984   1.204  0.00  0.00    -0.250 OA
BRANCH  30  32
ATOM     32  C   LIG    1       -6.488   0.869  -0.713  0.00  0.00    +0.059 C 
ATOM     33  C   LIG    1       -6.944   2.186  -0.137  0.00  0.00    +0.022 C 
ATOM     34  C   LIG    1       -7.679  -0.067  -0.724  0.00  0.00    +0.022 C 
ATOM     35  C   LIG    1       -5.943   1.092  -2.105  0.00  0.00    +0.022 C 
ENDBRANCH  30  32
ENDBRANCH  29  30
ENDBRANCH  28  29
ENDBRANCH  27  28
ENDBRANCH  25  27
ENDBRANCH   1  25
TORSDOF 10
