REMARK  Name = molecules/DIIBXMIIOQXTHW-UHFFFAOYSA-N.pdb
REMARK                            x       y       z     vdW  Elec       q    Type
REMARK                         _______ _______ _______ _____ _____    ______ ____
ROOT
ATOM      1  C   LIG    1       -0.437   0.974  -0.437  0.00  0.00    +0.079 A 
ATOM      2  C   LIG    1       -0.973   0.897   0.830  0.00  0.00    +0.027 A 
ATOM      3  C   LIG    1       -0.350   1.592   1.846  0.00  0.00    +0.004 A 
ATOM      4  C   LIG    1        0.779   2.329   1.544  0.00  0.00    +0.027 A 
ATOM      5  C   LIG    1        1.297   2.391   0.269  0.00  0.00    +0.079 A 
ATOM      6  N   LIG    1        0.663   1.702  -0.694  0.00  0.00    -0.250 NA
ENDROOT
BRANCH   1   7
ATOM      7  C   LIG    1       -1.115   0.218  -1.526  0.00  0.00    +0.287 C 
BRANCH   7   8
ATOM      8  O   LIG    1       -2.391  -0.238  -1.184  0.00  0.00    -0.455 OA
BRANCH   8   9
ATOM      9  C   LIG    1       -3.400   0.654  -0.831  0.00  0.00    +0.340 C 
ATOM     10  O   LIG    1       -3.107   1.872  -0.837  0.00  0.00    -0.245 OA
BRANCH   9  14
ATOM     11  C   LIG    1       -7.355  -0.491   0.249  0.00  0.00    +0.204 A 
ATOM     12  C   LIG    1       -6.978   0.834   0.226  0.00  0.00    +0.166 A 
ATOM     13  C   LIG    1       -5.689   1.174  -0.128  0.00  0.00    +0.064 A 
ATOM     14  C   LIG    1       -4.731   0.243  -0.469  0.00  0.00    +0.066 A 
ATOM     15  C   LIG    1       -5.118  -1.083  -0.443  0.00  0.00    +0.064 A 
ATOM     16  C   LIG    1       -6.418  -1.462  -0.088  0.00  0.00    +0.166 A 
BRANCH  11  17
ATOM     17  O   LIG    1       -8.645  -0.892   0.600  0.00  0.00    -0.488 OA
ATOM     18  C   LIG    1       -9.681  -1.036  -0.344  0.00  0.00    +0.277 C 
ENDBRANCH  11  17
BRANCH  12  19
ATOM     19  O   LIG    1       -7.932   1.784   0.567  0.00  0.00    -0.491 OA
ATOM     20  C   LIG    1       -7.656   3.172   0.578  0.00  0.00    +0.277 C 
ENDBRANCH  12  19
BRANCH  16  21
ATOM     21  O   LIG    1       -6.791  -2.783  -0.066  0.00  0.00    -0.491 OA
ATOM     22  C   LIG    1       -5.905  -3.827  -0.393  0.00  0.00    +0.277 C 
ENDBRANCH  16  21
ENDBRANCH   9  14
ENDBRANCH   8   9
ENDBRANCH   7   8
ENDBRANCH   1   7
BRANCH   5  23
ATOM     23  C   LIG    1        2.507   3.196  -0.022  0.00  0.00    +0.287 C 
BRANCH  23  24
ATOM     24  O   LIG    1        3.582   2.327  -0.267  0.00  0.00    -0.455 OA
BRANCH  24  25
ATOM     25  C   LIG    1        4.022   1.427   0.671  0.00  0.00    +0.340 C 
ATOM     26  O   LIG    1        3.463   1.364   1.783  0.00  0.00    -0.245 OA
BRANCH  25  27
ATOM     27  C   LIG    1        5.138   0.543   0.381  0.00  0.00    +0.066 A 
ATOM     28  C   LIG    1        5.589  -0.372   1.328  0.00  0.00    +0.064 A 
ATOM     29  C   LIG    1        6.643  -1.229   1.098  0.00  0.00    +0.166 A 
ATOM     30  C   LIG    1        7.265  -1.163  -0.128  0.00  0.00    +0.204 A 
ATOM     31  C   LIG    1        6.870  -0.274  -1.123  0.00  0.00    +0.166 A 
ATOM     32  C   LIG    1        5.809   0.553  -0.823  0.00  0.00    +0.064 A 
BRANCH  29  33
ATOM     33  O   LIG    1        7.056  -2.124   2.073  0.00  0.00    -0.491 OA
ATOM     34  C   LIG    1        6.378  -2.147   3.314  0.00  0.00    +0.277 C 
ENDBRANCH  29  33
BRANCH  30  35
ATOM     35  O   LIG    1        8.326  -1.998  -0.412  0.00  0.00    -0.488 OA
ATOM     36  C   LIG    1        8.090  -3.264  -0.999  0.00  0.00    +0.277 C 
ENDBRANCH  30  35
BRANCH  31  37
ATOM     37  O   LIG    1        7.531  -0.241  -2.354  0.00  0.00    -0.491 OA
ATOM     38  C   LIG    1        7.061   0.695  -3.306  0.00  0.00    +0.277 C 
ENDBRANCH  31  37
ENDBRANCH  25  27
ENDBRANCH  24  25
ENDBRANCH  23  24
ENDBRANCH   5  23
TORSDOF 14
