REMARK  Name = molecules/DIKBFYAXUHHXCS-UHFFFAOYSA-N.pdb
REMARK                            x       y       z     vdW  Elec       q    Type
REMARK                         _______ _______ _______ _____ _____    ______ ____
ROOT
ATOM      1 BR   LIG    1       -1.106  -1.433  -0.464  0.00  0.00    -0.063 Br
ATOM      2  C   LIG    1        0.021   0.004   0.178  0.00  0.00    +0.190 C 
ATOM      3 BR   LIG    1        1.822  -0.283  -0.470  0.00  0.00    -0.063 Br
ATOM      4 BR   LIG    1       -0.710   1.660  -0.522  0.00  0.00    -0.063 Br
ENDROOT
TORSDOF 0
