REMARK  Name = molecules/DIWRORZWFLOCLC-OAHLLOKOSA-N.pdb
REMARK                            x       y       z     vdW  Elec       q    Type
REMARK                         _______ _______ _______ _____ _____    ______ ____
ROOT
ATOM      1  C   LIG    1        0.139   0.569  -0.039  0.00  0.00    +0.079 C 
ATOM      2  C   LIG    1       -0.794  -0.506   0.264  0.00  0.00    +0.023 A 
ATOM      3  C   LIG    1       -0.177  -1.507   0.975  0.00  0.00    +0.032 A 
ATOM      4  C   LIG    1       -0.954  -2.602   1.280  0.00  0.00    +0.042 A 
ATOM      5 CL   LIG    1       -0.178  -3.884   2.176  0.00  0.00    -0.084 Cl
ATOM      6  C   LIG    1       -2.282  -2.724   0.911  0.00  0.00    +0.022 A 
ATOM      7  C   LIG    1       -2.886  -1.706   0.201  0.00  0.00    +0.025 A 
ATOM      8  C   LIG    1       -2.145  -0.600  -0.120  0.00  0.00    +0.043 A 
ATOM      9  N   LIG    1       -2.881   0.441  -0.774  0.00  0.00    -0.281 N 
ATOM     10  C   LIG    1       -2.562   1.824  -0.696  0.00  0.00    +0.269 C 
ATOM     11  C   LIG    1       -1.519   2.441   0.204  0.00  0.00    +0.320 C 
ATOM     12  O   LIG    1       -3.216   2.609  -1.455  0.00  0.00    -0.270 OA
ATOM     13  H   LIG    1       -3.682   0.117  -1.313  0.00  0.00    +0.155 HD
ATOM     14  N   LIG    1       -0.209   1.825  -0.015  0.00  0.00    -0.243 NA
ENDROOT
BRANCH   1  17
ATOM     15 CL   LIG    1        1.730   3.016   0.091  0.00  0.00    -0.083 Cl
ATOM     16  C   LIG    1        2.363   1.410  -0.312  0.00  0.00    +0.050 A 
ATOM     17  C   LIG    1        1.530   0.280  -0.291  0.00  0.00    +0.019 A 
ATOM     18  C   LIG    1        2.087  -0.918  -0.612  0.00  0.00    +0.011 A 
ATOM     19  C   LIG    1        3.427  -0.987  -0.938  0.00  0.00    +0.001 A 
ATOM     20  C   LIG    1        4.242   0.124  -0.957  0.00  0.00    +0.001 A 
ATOM     21  C   LIG    1        3.676   1.351  -0.633  0.00  0.00    +0.020 A 
ENDBRANCH   1  17
BRANCH  11  22
ATOM     22  O   LIG    1       -1.855   2.411   1.523  0.00  0.00    -0.364 OA
ATOM     23  H   LIG    1       -1.468   1.667   2.042  0.00  0.00    +0.212 HD
ENDBRANCH  11  22
TORSDOF 2
