REMARK  Name = molecules/DJBNUMBKLMJRSA-NSHDSACASA-N.pdb
REMARK                            x       y       z     vdW  Elec       q    Type
REMARK                         _______ _______ _______ _____ _____    ______ ____
ROOT
ATOM      1  C   LIG    1       -1.181   0.033   0.138  0.00  0.00    +0.082 A 
ATOM      2  C   LIG    1       -1.884   1.188   0.455  0.00  0.00    +0.133 A 
ATOM      3  C   LIG    1       -3.167   1.069   0.977  0.00  0.00    +0.050 A 
ATOM      4  C   LIG    1       -3.749  -0.153   1.183  0.00  0.00    +0.049 A 
ATOM      5  C   LIG    1       -3.089  -1.322   0.881  0.00  0.00    +0.122 A 
ATOM      6  C   LIG    1       -1.792  -1.178   0.356  0.00  0.00    +0.062 A 
ENDROOT
BRANCH   1   7
ATOM      7  C   LIG    1        0.153   0.049  -0.405  0.00  0.00    +0.248 C 
ATOM      8  O   LIG    1        0.663  -1.113  -0.643  0.00  0.00    -0.270 OA
ATOM      9  N   LIG    1        0.964   1.146  -0.708  0.00  0.00    -0.310 N 
ATOM     10  H   LIG    1        0.625   2.118  -0.556  0.00  0.00    +0.149 HD
BRANCH   9  11
ATOM     11  C   LIG    1        2.304   1.061  -1.244  0.00  0.00    +0.123 C 
BRANCH  11  12
ATOM     12  C   LIG    1        3.323   0.404  -0.393  0.00  0.00    +0.071 C 
ATOM     13  N   LIG    1        3.110  -0.931   0.010  0.00  0.00    -0.312 NA
ATOM     14  H   LIG    1        2.876  -1.108   0.988  0.00  0.00    +0.122 HD
ATOM     15  C   LIG    1        3.926  -1.927  -0.612  0.00  0.00    +0.081 C 
ATOM     16  C   LIG    1        5.358  -1.703  -0.107  0.00  0.00    +0.015 C 
ATOM     17  C   LIG    1        5.736  -0.277  -0.436  0.00  0.00    +0.003 C 
ATOM     18  C   LIG    1        4.635   0.449  -1.170  0.00  0.00    +0.020 C 
ENDBRANCH  11  12
ENDBRANCH   9  11
ENDBRANCH   1   7
BRANCH   5  19
ATOM     19  O   LIG    1       -3.561  -2.560   1.044  0.00  0.00    -0.483 OA
BRANCH  19  20
ATOM     20  C   LIG    1       -4.625  -3.269   1.435  0.00  0.00    +0.342 C 
BRANCH  20  21
ATOM     21  C   LIG    1       -5.849  -3.116   0.604  0.00  0.00    +0.424 C 
ATOM     22  F   LIG    1       -6.824  -3.981   1.089  0.00  0.00    -0.167 F 
ATOM     23  F   LIG    1       -6.330  -1.860   0.541  0.00  0.00    -0.167 F 
ATOM     24  F   LIG    1       -5.575  -3.577  -0.686  0.00  0.00    -0.167 F 
ENDBRANCH  20  21
ENDBRANCH  19  20
ENDBRANCH   5  19
BRANCH   2  25
ATOM     25  O   LIG    1       -1.324   2.381   0.262  0.00  0.00    -0.482 OA
BRANCH  25  26
ATOM     26  C   LIG    1       -1.540   3.702   0.361  0.00  0.00    +0.342 C 
BRANCH  26  27
ATOM     27  C   LIG    1       -2.579   4.277  -0.534  0.00  0.00    +0.424 C 
ATOM     28  F   LIG    1       -2.635   5.658  -0.263  0.00  0.00    -0.167 F 
ATOM     29  F   LIG    1       -3.829   3.764  -0.432  0.00  0.00    -0.167 F 
ATOM     30  F   LIG    1       -2.135   4.229  -1.871  0.00  0.00    -0.167 F 
ENDBRANCH  26  27
ENDBRANCH  25  26
ENDBRANCH   2  25
TORSDOF 9
