REMARK  Name = molecules/DJEIHHYCDCTAAH-UHFFFAOYSA-N.pdb
REMARK                            x       y       z     vdW  Elec       q    Type
REMARK                         _______ _______ _______ _____ _____    ______ ____
ROOT
ATOM      1  C   LIG    1       -1.210   2.718  -0.412  0.00  0.00    +0.156 A 
ATOM      2  C   LIG    1       -0.562   1.496  -0.148  0.00  0.00    +0.052 A 
ATOM      3  C   LIG    1        0.763   1.818  -0.108  0.00  0.00    +0.121 A 
ATOM      4  N   LIG    1        0.840   3.152  -0.337  0.00  0.00    -0.077 NA
ATOM      5  O   LIG    1       -0.325   3.669  -0.515  0.00  0.00    -0.358 OA
ENDROOT
BRANCH   2   6
ATOM      6  C   LIG    1       -1.237   0.229   0.043  0.00  0.00    -0.012 A 
ATOM      7  C   LIG    1       -1.383  -0.390   1.263  0.00  0.00    +0.012 A 
ATOM      8  C   LIG    1       -2.054  -1.604   1.426  0.00  0.00    +0.046 A 
ATOM      9  C   LIG    1       -2.596  -2.213   0.307  0.00  0.00    +0.120 A 
ATOM     10  C   LIG    1       -2.451  -1.598  -0.910  0.00  0.00    +0.046 A 
ATOM     11  C   LIG    1       -1.784  -0.388  -1.077  0.00  0.00    +0.012 A 
BRANCH   9  12
ATOM     12  O   LIG    1       -3.281  -3.427   0.395  0.00  0.00    -0.495 OA
ATOM     13  C   LIG    1       -3.838  -4.053  -0.731  0.00  0.00    +0.277 C 
ENDBRANCH   9  12
ENDBRANCH   2   6
BRANCH   3  14
ATOM     14  C   LIG    1        1.944   1.011   0.087  0.00  0.00    +0.004 A 
ATOM     15  C   LIG    1        2.120   0.187   1.165  0.00  0.00    +0.014 A 
ATOM     16  C   LIG    1        3.265  -0.572   1.319  0.00  0.00    +0.046 A 
ATOM     17  C   LIG    1        4.269  -0.515   0.376  0.00  0.00    +0.120 A 
ATOM     18  C   LIG    1        4.102   0.316  -0.720  0.00  0.00    +0.046 A 
ATOM     19  C   LIG    1        2.964   1.070  -0.872  0.00  0.00    +0.014 A 
BRANCH  17  20
ATOM     20  O   LIG    1        5.409  -1.274   0.536  0.00  0.00    -0.495 OA
ATOM     21  C   LIG    1        6.423  -1.177  -0.460  0.00  0.00    +0.277 C 
ENDBRANCH  17  20
ENDBRANCH   3  14
BRANCH   1  22
ATOM     22  C   LIG    1       -2.682   2.837  -0.543  0.00  0.00    +0.198 C 
BRANCH  22  23
ATOM     23  C   LIG    1       -3.290   2.812   0.798  0.00  0.00    +0.312 C 
ATOM     24  O   LIG    1       -2.586   2.721   1.831  0.00  0.00    -0.251 OA
BRANCH  23  25
ATOM     25  O   LIG    1       -4.663   2.885   0.996  0.00  0.00    -0.480 OA
ATOM     26  H   LIG    1       -5.130   3.776   1.046  0.00  0.00    +0.295 HD
ENDBRANCH  23  25
ENDBRANCH  22  23
ENDBRANCH   1  22
TORSDOF 7
