REMARK  Name = molecules/DJHCCTTVDRAMEH-DUUJBDRPSA-N.pdb
REMARK                            x       y       z     vdW  Elec       q    Type
REMARK                         _______ _______ _______ _____ _____    ______ ____
ROOT
ATOM      1  C   LIG    1       -1.413  -0.804  -0.082  0.00  0.00    +0.182 C 
ATOM      2  C   LIG    1       -0.208   0.095   0.059  0.00  0.00    +0.021 C 
ATOM      3  C   LIG    1        0.543  -0.052   1.354  0.00  0.00    +0.043 C 
ATOM      4  C   LIG    1        1.958  -0.560   1.204  0.00  0.00    +0.120 C 
ATOM      5  C   LIG    1        2.751  -0.038   0.119  0.00  0.00    +0.036 C 
ATOM      6  C   LIG    1        3.877   0.948   0.320  0.00  0.00    +0.013 C 
ATOM      7  C   LIG    1        4.695   0.735   1.495  0.00  0.00    -0.012 C 
ATOM      8  C   LIG    1        5.992   0.532   1.466  0.00  0.00    +0.047 C 
ATOM      9  C   LIG    1        6.750   0.506   0.231  0.00  0.00    +0.179 C 
ATOM     10  O   LIG    1        7.972   0.312   0.218  0.00  0.00    -0.288 OA
ATOM     11  C   LIG    1        5.944   0.728  -0.966  0.00  0.00    +0.051 C 
ATOM     12  C   LIG    1        3.321   2.374   0.461  0.00  0.00    +0.020 C 
ATOM     13  C   LIG    1        4.663   0.927  -0.930  0.00  0.00    -0.055 C 
ATOM     14  C   LIG    1        3.961   1.140  -2.267  0.00  0.00    +0.051 C 
ATOM     15  C   LIG    1        2.688   0.371  -2.338  0.00  0.00    +0.088 C 
ATOM     16 CL   LIG    1        3.068  -1.332  -2.767  0.00  0.00    -0.121 Cl
ATOM     17  C   LIG    1        1.878   0.441  -1.084  0.00  0.00    +0.017 C 
ATOM     18  C   LIG    1       -0.658   1.511  -0.162  0.00  0.00    +0.016 C 
ATOM     19  C   LIG    1        0.707  -0.439  -1.011  0.00  0.00    +0.005 C 
ATOM     20  C   LIG    1       -0.212  -0.566  -2.165  0.00  0.00    +0.012 C 
ATOM     21  C   LIG    1       -1.267  -1.465  -1.460  0.00  0.00    +0.038 C 
ATOM     22  C   LIG    1       -0.603  -2.807  -1.279  0.00  0.00    +0.012 C 
ENDROOT
BRANCH   1  23
ATOM     23  C   LIG    1       -2.677  -0.003  -0.191  0.00  0.00    +0.214 C 
ATOM     24  O   LIG    1       -2.886   0.658  -1.220  0.00  0.00    -0.289 OA
BRANCH  23  25
ATOM     25  C   LIG    1       -3.736   0.088   0.835  0.00  0.00    +0.310 C 
BRANCH  25  26
ATOM     26  O   LIG    1       -4.884   0.782   0.397  0.00  0.00    -0.457 OA
BRANCH  26  27
ATOM     27  C   LIG    1       -4.980   2.070  -0.030  0.00  0.00    +0.307 C 
ATOM     28  O   LIG    1       -3.947   2.777  -0.056  0.00  0.00    -0.251 OA
BRANCH  27  29
ATOM     29  C   LIG    1       -6.310   2.639  -0.464  0.00  0.00    +0.117 C 
ATOM     30  C   LIG    1       -6.114   4.071  -0.880  0.00  0.00    +0.015 C 
ENDBRANCH  27  29
ENDBRANCH  26  27
ENDBRANCH  25  26
ENDBRANCH  23  25
ENDBRANCH   1  23
BRANCH   4  31
ATOM     31  O   LIG    1        2.546  -0.452   2.446  0.00  0.00    -0.391 OA
ATOM     32  H   LIG    1        1.896  -0.363   3.188  0.00  0.00    +0.210 HD
ENDBRANCH   4  31
BRANCH   1  33
ATOM     33  O   LIG    1       -1.397  -1.703   0.973  0.00  0.00    -0.449 OA
BRANCH  33  34
ATOM     34  C   LIG    1       -2.199  -2.789   1.193  0.00  0.00    +0.308 C 
ATOM     35  O   LIG    1       -3.079  -3.065   0.347  0.00  0.00    -0.251 OA
BRANCH  34  36
ATOM     36  C   LIG    1       -2.070  -3.660   2.397  0.00  0.00    +0.117 C 
ATOM     37  C   LIG    1       -3.101  -4.763   2.332  0.00  0.00    +0.015 C 
ENDBRANCH  34  36
ENDBRANCH  33  34
ENDBRANCH   1  33
TORSDOF 9
