REMARK  Name = molecules/DJXRIQMCROIRCZ-XOEOCAAJSA-N.pdb
REMARK                            x       y       z     vdW  Elec       q    Type
REMARK                         _______ _______ _______ _____ _____    ______ ____
ROOT
ATOM      1  C   LIG    1       -0.279   1.341  -2.578  0.00  0.00    -0.046 A 
ATOM      2  C   LIG    1        0.588   1.981  -1.725  0.00  0.00    +0.005 A 
ATOM      3  C   LIG    1        1.767   1.362  -1.277  0.00  0.00    +0.023 A 
ATOM      4  C   LIG    1        2.115   0.097  -1.662  0.00  0.00    +0.033 A 
ATOM      5  C   LIG    1        1.222  -0.549  -2.534  0.00  0.00    +0.023 A 
ATOM      6  C   LIG    1        0.072   0.066  -2.966  0.00  0.00    +0.005 A 
ENDROOT
BRANCH   4   7
ATOM      7  N   LIG    1        3.291  -0.597  -1.252  0.00  0.00    -0.284 N 
ATOM      8  C   LIG    1        4.294  -0.138  -0.400  0.00  0.00    +0.238 C 
ATOM      9  O   LIG    1        4.269   0.989   0.123  0.00  0.00    -0.273 OA
ATOM     10  H   LIG    1        3.442  -1.594  -1.634  0.00  0.00    +0.155 HD
BRANCH   8  11
ATOM     11  C   LIG    1        5.455  -1.032  -0.095  0.00  0.00    +0.165 C 
ATOM     12  N   LIG    1        6.273  -0.472   0.948  0.00  0.00    -0.261 N 
ATOM     13  C   LIG    1        5.894  -0.917   2.155  0.00  0.00    +0.171 C 
ATOM     14  N   LIG    1        6.511  -0.533   3.296  0.00  0.00    -0.265 NA
ATOM     15  C   LIG    1        7.541   0.318   3.277  0.00  0.00    +0.094 C 
ATOM     16  C   LIG    1        7.962   0.799   2.062  0.00  0.00    +0.133 C 
ATOM     17  C   LIG    1        4.751  -1.843   1.996  0.00  0.00    +0.057 C 
ATOM     18  C   LIG    1        7.320   0.394   0.933  0.00  0.00    +0.227 C 
ATOM     19  O   LIG    1        7.689   0.822  -0.187  0.00  0.00    -0.275 OA
ATOM     20  C   LIG    1        4.892  -2.276   0.552  0.00  0.00    +0.036 C 
ENDBRANCH   8  11
ENDBRANCH   4   7
BRANCH   1  21
ATOM     21  C   LIG    1       -1.516   2.006  -3.041  0.00  0.00    +0.053 C 
BRANCH  21  25
ATOM     22  C   LIG    1       -4.042   0.358  -1.000  0.00  0.00    +0.087 C 
ATOM     23  C   LIG    1       -3.528   1.332   0.008  0.00  0.00    +0.023 C 
ATOM     24  C   LIG    1       -2.468   2.168  -0.719  0.00  0.00    +0.020 C 
ATOM     25  C   LIG    1       -2.689   1.751  -2.140  0.00  0.00    +0.058 C 
ATOM     26  N   LIG    1       -3.017   0.353  -2.025  0.00  0.00    -0.307 NA
ATOM     27  H   LIG    1       -2.168  -0.159  -1.770  0.00  0.00    +0.123 HD
BRANCH  22  28
ATOM     28  C   LIG    1       -4.251  -1.025  -0.415  0.00  0.00    +0.161 C 
BRANCH  28  34
ATOM     29  C   LIG    1       -6.603  -0.814   0.335  0.00  0.00    +0.006 A 
ATOM     30  C   LIG    1       -7.572  -0.713   1.324  0.00  0.00    +0.000 A 
ATOM     31  C   LIG    1       -7.234  -0.714   2.650  0.00  0.00    +0.000 A 
ATOM     32  C   LIG    1       -5.893  -0.819   2.983  0.00  0.00    +0.000 A 
ATOM     33  C   LIG    1       -4.913  -0.921   1.994  0.00  0.00    +0.006 A 
ATOM     34  C   LIG    1       -5.268  -0.918   0.664  0.00  0.00    -0.018 A 
ENDBRANCH  28  34
BRANCH  28  35
ATOM     35  O   LIG    1       -4.641  -1.928  -1.391  0.00  0.00    -0.386 OA
ATOM     36  H   LIG    1       -4.411  -2.854  -1.095  0.00  0.00    +0.210 HD
ENDBRANCH  28  35
ENDBRANCH  22  28
ENDBRANCH  21  25
ENDBRANCH   1  21
TORSDOF 7
