REMARK  Name = molecules/DKLKMKYDWHYZTD-ZDUSSCGKSA-N.pdb
REMARK                            x       y       z     vdW  Elec       q    Type
REMARK                         _______ _______ _______ _____ _____    ______ ____
ROOT
ATOM      1  C   LIG    1        0.556  -1.794   0.293  0.00  0.00    +0.187 C 
ATOM      2  C   LIG    1        0.493  -2.907   1.270  0.00  0.00    +0.053 C 
ENDROOT
BRANCH   1   3
ATOM      3  O   LIG    1        1.660  -0.957   0.360  0.00  0.00    -0.457 OA
BRANCH   3   4
ATOM      4  C   LIG    1        2.513  -0.751  -0.728  0.00  0.00    +0.339 C 
ATOM      5  O   LIG    1        2.211  -1.371  -1.777  0.00  0.00    -0.245 OA
BRANCH   4   6
ATOM      6  C   LIG    1        3.681   0.129  -0.654  0.00  0.00    +0.059 A 
ATOM      7  C   LIG    1        4.008   0.774   0.524  0.00  0.00    +0.015 A 
ATOM      8  C   LIG    1        5.123   1.599   0.579  0.00  0.00    +0.001 A 
ATOM      9  C   LIG    1        5.927   1.794  -0.536  0.00  0.00    +0.000 A 
ATOM     10  C   LIG    1        5.607   1.149  -1.728  0.00  0.00    +0.001 A 
ATOM     11  C   LIG    1        4.495   0.337  -1.750  0.00  0.00    +0.015 A 
ENDBRANCH   4   6
ENDBRANCH   3   4
ENDBRANCH   1   3
BRANCH   1  12
ATOM     12  C   LIG    1       -0.778  -1.051   0.376  0.00  0.00    +0.125 C 
BRANCH  12  13
ATOM     13  N   LIG    1       -0.838  -0.146  -0.718  0.00  0.00    -0.310 NA
ATOM     14  H   LIG    1       -0.437  -0.502  -1.605  0.00  0.00    +0.122 HD
BRANCH  13  15
ATOM     15  C   LIG    1       -2.048   0.590  -0.875  0.00  0.00    +0.054 C 
ATOM     16  C   LIG    1       -2.319   1.469   0.321  0.00  0.00    +0.019 C 
ATOM     17  C   LIG    1       -3.411   0.822   1.165  0.00  0.00    +0.002 C 
ATOM     18  C   LIG    1       -4.702   0.947   0.365  0.00  0.00    +0.000 C 
ATOM     19  C   LIG    1       -4.526   0.369  -1.024  0.00  0.00    +0.002 C 
ATOM     20  C   LIG    1       -3.202  -0.346  -1.160  0.00  0.00    +0.019 C 
ENDBRANCH  13  15
ENDBRANCH  12  13
ENDBRANCH   1  12
TORSDOF 6
