REMARK  Name = molecules/DKMFBWQBDIGMHM-UHFFFAOYSA-N.pdb
REMARK                            x       y       z     vdW  Elec       q    Type
REMARK                         _______ _______ _______ _____ _____    ______ ____
ROOT
ATOM      1  C   LIG    1        1.370  -0.445   0.725  0.00  0.00    +0.081 C 
ENDROOT
BRANCH   1   2
ATOM      2  C   LIG    1        2.799  -0.841   0.812  0.00  0.00    +0.163 C 
ATOM      3  O   LIG    1        3.096  -1.962   1.271  0.00  0.00    -0.292 OA
BRANCH   2   4
ATOM      4  C   LIG    1        3.823   0.080   0.363  0.00  0.00    +0.018 A 
ATOM      5  C   LIG    1        5.180  -0.263   0.439  0.00  0.00    +0.014 A 
ATOM      6  C   LIG    1        6.169   0.586   0.025  0.00  0.00    +0.039 A 
ATOM      7  C   LIG    1        5.872   1.823  -0.488  0.00  0.00    +0.123 A 
ATOM      8  C   LIG    1        4.539   2.181  -0.572  0.00  0.00    +0.039 A 
ATOM      9  F   LIG    1        6.895   2.615  -0.878  0.00  0.00    -0.205 F 
ATOM     10  C   LIG    1        3.532   1.325  -0.154  0.00  0.00    +0.014 A 
ENDBRANCH   2   4
ENDBRANCH   1   2
BRANCH   1  11
ATOM     11  C   LIG    1        0.496  -1.533   1.239  0.00  0.00    +0.023 C 
BRANCH  11  12
ATOM     12  C   LIG    1       -0.963  -1.295   1.260  0.00  0.00    +0.085 C 
BRANCH  12  13
ATOM     13  N   LIG    1       -1.635  -1.013   0.060  0.00  0.00    -0.302 NA
ATOM     14  C   LIG    1       -2.826  -1.730  -0.230  0.00  0.00    +0.084 C 
ATOM     15  C   LIG    1       -4.061  -0.868  -0.118  0.00  0.00    +0.018 C 
ATOM     16  C   LIG    1       -3.914   0.210  -1.170  0.00  0.00    -0.012 C 
ATOM     17  C   LIG    1       -2.691   0.994  -0.894  0.00  0.00    +0.018 C 
ATOM     18  C   LIG    1       -5.099   1.176  -1.042  0.00  0.00    +0.007 C 
ATOM     19  C   LIG    1       -1.444   0.211  -0.590  0.00  0.00    +0.084 C 
ENDBRANCH  12  13
ENDBRANCH  11  12
ENDBRANCH   1  11
TORSDOF 5
