REMARK  Name = molecules/DKRSEIPLAZTSFD-LSDHHAIUSA-N.pdb
REMARK                            x       y       z     vdW  Elec       q    Type
REMARK                         _______ _______ _______ _____ _____    ______ ____
ROOT
ATOM      1  C   LIG    1        0.712   1.253  -1.189  0.00  0.00    +0.164 C 
ATOM      2  O   LIG    1        0.528   1.334  -2.425  0.00  0.00    -0.292 OA
ENDROOT
BRANCH   1   3
ATOM      3  C   LIG    1        1.876   1.872  -0.577  0.00  0.00    +0.028 A 
ATOM      4  C   LIG    1        2.931   1.097  -0.178  0.00  0.00    +0.014 A 
ATOM      5  C   LIG    1        4.020   1.676   0.444  0.00  0.00    +0.072 A 
ATOM      6  C   LIG    1        5.133   0.944   0.865  0.00  0.00    +0.032 A 
ATOM      7  C   LIG    1        5.151  -0.419   0.652  0.00  0.00    +0.048 A 
ATOM      8  C   LIG    1        4.091  -1.030   0.037  0.00  0.00    +0.121 A 
ATOM      9  N   LIG    1        4.023   3.006   0.646  0.00  0.00    -0.255 NA
ATOM     10  C   LIG    1        2.999   3.773   0.260  0.00  0.00    +0.112 A 
ATOM     11  C   LIG    1        2.999  -0.275  -0.370  0.00  0.00    +0.056 A 
ATOM     12  C   LIG    1        1.910   3.242  -0.354  0.00  0.00    +0.031 A 
BRANCH   8  13
ATOM     13  O   LIG    1        4.049  -2.400  -0.207  0.00  0.00    -0.495 OA
ATOM     14  C   LIG    1        5.166  -3.169   0.209  0.00  0.00    +0.277 C 
ENDBRANCH   8  13
ENDBRANCH   1   3
BRANCH   1  15
ATOM     15  C   LIG    1       -0.248   0.535  -0.339  0.00  0.00    +0.080 C 
BRANCH  15  16
ATOM     16  C   LIG    1       -1.343  -0.063  -1.209  0.00  0.00    +0.012 C 
BRANCH  16  17
ATOM     17  C   LIG    1       -2.305  -0.784  -0.354  0.00  0.00    -0.001 C 
ATOM     18  C   LIG    1       -3.001   0.073   0.680  0.00  0.00    +0.028 C 
ATOM     19  C   LIG    1       -4.022  -0.682   1.435  0.00  0.00    +0.088 C 
ATOM     20  N   LIG    1       -4.905  -1.488   0.641  0.00  0.00    -0.315 NA
ATOM     21  H   LIG    1       -5.475  -0.927  -0.020  0.00  0.00    +0.122 HD
ATOM     22  C   LIG    1       -4.066  -2.420  -0.108  0.00  0.00    +0.081 C 
ATOM     23  C   LIG    1       -3.343  -1.548  -1.149  0.00  0.00    +0.019 C 
BRANCH  18  24
ATOM     24  C   LIG    1       -3.479   1.344   0.152  0.00  0.00    -0.030 C 
ATOM     25  C   LIG    1       -4.704   1.778   0.345  0.00  0.00    +0.004 C 
ENDBRANCH  18  24
ENDBRANCH  16  17
ENDBRANCH  15  16
ENDBRANCH   1  15
TORSDOF 6
