REMARK  Name = molecules/DKVNAGXPRSYHLB-UHFFFAOYSA-N.pdb
REMARK                            x       y       z     vdW  Elec       q    Type
REMARK                         _______ _______ _______ _____ _____    ______ ____
ROOT
ATOM      1  N   LIG    1       -0.108   0.016   0.970  0.00  0.00    -0.314 N 
ATOM      2  H   LIG    1       -0.184   0.147   2.023  0.00  0.00    +0.152 HD
ENDROOT
BRANCH   1   6
ATOM      3  C   LIG    1       -3.877   0.301  -0.980  0.00  0.00    +0.126 A 
ATOM      4  C   LIG    1       -3.638   0.876   0.242  0.00  0.00    +0.034 A 
ATOM      5  C   LIG    1       -2.417   0.766   0.860  0.00  0.00    +0.025 A 
ATOM      6  C   LIG    1       -1.346   0.065   0.287  0.00  0.00    +0.031 A 
ATOM      7  C   LIG    1       -1.607  -0.504  -0.936  0.00  0.00    +0.025 A 
ATOM      8  C   LIG    1       -2.849  -0.396  -1.573  0.00  0.00    +0.034 A 
BRANCH   3  10
ATOM      9  O   LIG    1       -6.133   1.105  -1.016  0.00  0.00    -0.126 OA
ATOM     10  N   LIG    1       -5.134   0.405  -1.636  0.00  0.00    +0.056 N 
ATOM     11  O   LIG    1       -5.362  -0.111  -2.741  0.00  0.00    -0.126 OA
ENDBRANCH   3  10
ENDBRANCH   1   6
BRANCH   1  12
ATOM     12  C   LIG    1        1.164  -0.181   0.415  0.00  0.00    +0.031 A 
ATOM     13  C   LIG    1        2.160  -0.664   1.248  0.00  0.00    +0.025 A 
ATOM     14  C   LIG    1        3.455  -0.882   0.852  0.00  0.00    +0.030 A 
ATOM     15  C   LIG    1        3.807  -0.609  -0.449  0.00  0.00    +0.074 A 
ATOM     16  C   LIG    1        2.844  -0.125  -1.313  0.00  0.00    +0.030 A 
ATOM     17  C   LIG    1        1.533   0.084  -0.870  0.00  0.00    +0.025 A 
BRANCH  15  18
ATOM     18  N   LIG    1        5.122  -0.818  -0.896  0.00  0.00    -0.197 NA
ATOM     19  C   LIG    1        5.965   0.130  -0.987  0.00  0.00    +0.041 C 
ATOM     20  S   LIG    1        7.039   1.278  -0.565  0.00  0.00    +0.021 S 
ENDBRANCH  15  18
ENDBRANCH   1  12
TORSDOF 4
