REMARK  Name = molecules/DKYWVDODHFEZIM-NSHDSACASA-N.pdb
REMARK                            x       y       z     vdW  Elec       q    Type
REMARK                         _______ _______ _______ _____ _____    ______ ____
ROOT
ATOM      1  C   LIG    1       -0.279   0.063   0.284  0.00  0.00    +0.023 A 
ATOM      2  C   LIG    1       -0.396  -1.300   0.420  0.00  0.00    +0.012 A 
ATOM      3  C   LIG    1        0.668  -2.170   0.151  0.00  0.00    +0.001 A 
ATOM      4  C   LIG    1        1.883  -1.627  -0.266  0.00  0.00    +0.004 A 
ATOM      5  C   LIG    1        2.038  -0.254  -0.413  0.00  0.00    -0.033 A 
ATOM      6  C   LIG    1        0.962   0.532  -0.135  0.00  0.00    +0.016 A 
ENDROOT
BRANCH   1   7
ATOM      7  C   LIG    1       -1.374   0.950   0.583  0.00  0.00    +0.193 C 
ATOM      8  O   LIG    1       -1.097   2.110   1.021  0.00  0.00    -0.287 OA
BRANCH   7   9
ATOM      9  C   LIG    1       -2.764   0.607   0.418  0.00  0.00    +0.022 A 
ATOM     10  C   LIG    1       -3.754   1.259   1.176  0.00  0.00    +0.012 A 
ATOM     11  C   LIG    1       -5.085   0.928   1.035  0.00  0.00    +0.001 A 
ATOM     12  C   LIG    1       -5.514  -0.046   0.158  0.00  0.00    +0.000 A 
ATOM     13  C   LIG    1       -4.549  -0.691  -0.589  0.00  0.00    +0.001 A 
ATOM     14  C   LIG    1       -3.201  -0.358  -0.450  0.00  0.00    +0.012 A 
ENDBRANCH   7   9
ENDBRANCH   1   7
BRANCH   5  15
ATOM     15  C   LIG    1        3.318   0.303  -0.851  0.00  0.00    +0.124 C 
ATOM     16  C   LIG    1        4.400  -0.713  -0.448  0.00  0.00    +0.024 C 
BRANCH  15  17
ATOM     17  C   LIG    1        3.719   1.572  -0.256  0.00  0.00    +0.312 C 
ATOM     18  O   LIG    1        3.107   2.235   0.614  0.00  0.00    -0.250 OA
BRANCH  17  19
ATOM     19  O   LIG    1        4.922   2.124  -0.696  0.00  0.00    -0.480 OA
ATOM     20  H   LIG    1        5.834   1.781  -0.434  0.00  0.00    +0.295 HD
ENDBRANCH  17  19
ENDBRANCH  15  17
ENDBRANCH   5  15
TORSDOF 5
