REMARK  Name = molecules/DLDKCSIJFIPYRK-UHFFFAOYSA-N.pdb
REMARK                            x       y       z     vdW  Elec       q    Type
REMARK                         _______ _______ _______ _____ _____    ______ ____
ROOT
ATOM      1  C   LIG    1        0.811  -0.215  -0.329  0.00  0.00    +0.100 C 
ENDROOT
BRANCH   1   2
ATOM      2  N   LIG    1        2.078  -0.024   0.272  0.00  0.00    -0.295 NA
BRANCH   2   3
ATOM      3  C   LIG    1        3.205   0.051  -0.585  0.00  0.00    +0.128 C 
BRANCH   3   4
ATOM      4  C   LIG    1        3.180   1.321  -1.390  0.00  0.00    +0.282 C 
BRANCH   4   5
ATOM      5  O   LIG    1        3.194   2.428  -0.474  0.00  0.00    -0.350 OA
BRANCH   5   6
ATOM      6  N   LIG    1        3.176   3.704  -0.978  0.00  0.00    +0.217 N 
ATOM      7  O   LIG    1        3.473   4.777  -0.173  0.00  0.00    -0.090 OA
ATOM      8  O   LIG    1        2.894   3.931  -2.166  0.00  0.00    -0.090 OA
ENDBRANCH   5   6
ENDBRANCH   4   5
ENDBRANCH   3   4
ENDBRANCH   2   3
BRANCH   2   9
ATOM      9  C   LIG    1        2.302  -0.814   1.458  0.00  0.00    +0.128 C 
BRANCH   9  10
ATOM     10  C   LIG    1        2.406  -2.280   1.194  0.00  0.00    +0.282 C 
BRANCH  10  11
ATOM     11  O   LIG    1        3.475  -2.589   0.315  0.00  0.00    -0.350 OA
BRANCH  11  12
ATOM     12  N   LIG    1        3.752  -3.870  -0.064  0.00  0.00    +0.217 N 
ATOM     13  O   LIG    1        3.906  -4.761   0.777  0.00  0.00    -0.090 OA
ATOM     14  O   LIG    1        3.857  -4.159  -1.395  0.00  0.00    -0.090 OA
ENDBRANCH  11  12
ENDBRANCH  10  11
ENDBRANCH   9  10
ENDBRANCH   2   9
ENDBRANCH   1   2
BRANCH   1  15
ATOM     15  C   LIG    1       -0.294   0.321   0.554  0.00  0.00    +0.100 C 
BRANCH  15  16
ATOM     16  N   LIG    1       -1.608   0.159  -0.011  0.00  0.00    -0.295 NA
BRANCH  16  17
ATOM     17  C   LIG    1       -1.998  -1.209  -0.070  0.00  0.00    +0.128 C 
BRANCH  17  18
ATOM     18  C   LIG    1       -3.368  -1.478  -0.616  0.00  0.00    +0.282 C 
BRANCH  18  19
ATOM     19  O   LIG    1       -3.523  -2.908  -0.580  0.00  0.00    -0.350 OA
BRANCH  19  20
ATOM     20  N   LIG    1       -4.643  -3.538  -0.995  0.00  0.00    +0.217 N 
ATOM     21  O   LIG    1       -4.851  -4.688  -0.521  0.00  0.00    -0.090 OA
ATOM     22  O   LIG    1       -5.568  -3.046  -1.879  0.00  0.00    -0.090 OA
ENDBRANCH  19  20
ENDBRANCH  18  19
ENDBRANCH  17  18
ENDBRANCH  16  17
BRANCH  16  23
ATOM     23  C   LIG    1       -2.546   1.018   0.617  0.00  0.00    +0.128 C 
BRANCH  23  24
ATOM     24  C   LIG    1       -2.343   2.485   0.323  0.00  0.00    +0.282 C 
BRANCH  24  25
ATOM     25  O   LIG    1       -3.385   3.170   1.044  0.00  0.00    -0.350 OA
BRANCH  25  26
ATOM     26  N   LIG    1       -3.492   4.525   0.996  0.00  0.00    +0.217 N 
ATOM     27  O   LIG    1       -3.368   5.215   2.019  0.00  0.00    -0.090 OA
ATOM     28  O   LIG    1       -3.745   5.142  -0.205  0.00  0.00    -0.090 OA
ENDBRANCH  25  26
ENDBRANCH  24  25
ENDBRANCH  23  24
ENDBRANCH  16  23
ENDBRANCH  15  16
ENDBRANCH   1  15
TORSDOF 19
