REMARK  Name = molecules/DLGIIZAHQPTVCJ-ZDUSSCGKSA-N.pdb
REMARK                            x       y       z     vdW  Elec       q    Type
REMARK                         _______ _______ _______ _____ _____    ______ ____
ROOT
ATOM      1  C   LIG    1       -0.204  -0.472  -0.416  0.00  0.00    +0.058 C 
ATOM      2  C   LIG    1       -0.744  -1.886  -0.482  0.00  0.00    +0.024 C 
ENDROOT
BRANCH   1   3
ATOM      3  N   LIG    1        1.185  -0.497  -0.122  0.00  0.00    -0.295 NA
ATOM      4  C   LIG    1        1.582  -1.288   0.997  0.00  0.00    +0.105 C 
BRANCH   3   5
ATOM      5  C   LIG    1        1.848   0.767  -0.216  0.00  0.00    +0.158 C 
BRANCH   5   6
ATOM      6  C   LIG    1        3.286   0.607   0.103  0.00  0.00    +0.119 A 
ATOM      7  O   LIG    1        3.985  -0.445   0.428  0.00  0.00    -0.467 OA
ATOM      8  C   LIG    1        5.240  -0.178   0.635  0.00  0.00    +0.195 A 
ATOM      9  C   LIG    1        5.406   1.173   0.433  0.00  0.00    +0.041 A 
ATOM     10  C   LIG    1        4.168   1.670   0.095  0.00  0.00    +0.046 A 
ENDBRANCH   5   6
ENDBRANCH   3   5
ENDBRANCH   1   3
BRANCH   1  11
ATOM     11  C   LIG    1       -1.029   0.371   0.521  0.00  0.00    +0.053 C 
BRANCH  11  12
ATOM     12  C   LIG    1       -2.469   0.359   0.162  0.00  0.00    -0.046 A 
ATOM     13  C   LIG    1       -3.355  -0.567   0.673  0.00  0.00    +0.004 A 
ATOM     14  C   LIG    1       -4.698  -0.564   0.324  0.00  0.00    +0.000 A 
ATOM     15  C   LIG    1       -5.188   0.394  -0.569  0.00  0.00    +0.000 A 
ATOM     16  C   LIG    1       -4.319   1.323  -1.086  0.00  0.00    +0.000 A 
ATOM     17  C   LIG    1       -3.007   1.293  -0.724  0.00  0.00    +0.004 A 
ENDBRANCH  11  12
ENDBRANCH   1  11
TORSDOF 5
