REMARK  Name = molecules/DLGOEMSEDOSKAD-UHFFFAOYSA-N.pdb
REMARK                            x       y       z     vdW  Elec       q    Type
REMARK                         _______ _______ _______ _____ _____    ______ ____
ROOT
ATOM      1  N   LIG    1        1.013   0.942   0.665  0.00  0.00    -0.140 N 
ATOM      2  C   LIG    1       -0.266   0.746   0.096  0.00  0.00    +0.324 C 
ATOM      3  O   LIG    1       -0.983   1.796  -0.043  0.00  0.00    -0.251 OA
ATOM      4  N   LIG    1       -0.778  -0.503  -0.313  0.00  0.00    -0.297 N 
ATOM      5  H   LIG    1       -0.148  -1.358  -0.189  0.00  0.00    +0.150 HD
ENDROOT
BRANCH   1   6
ATOM      6  N   LIG    1        1.472   2.195   1.038  0.00  0.00    +0.053 NA
ATOM      7  O   LIG    1        1.660   3.145   0.264  0.00  0.00    -0.126 OA
ENDBRANCH   1   6
BRANCH   1   8
ATOM      8  C   LIG    1        1.883  -0.187   0.869  0.00  0.00    +0.155 C 
BRANCH   8   9
ATOM      9  C   LIG    1        2.760  -0.449  -0.332  0.00  0.00    +0.130 C 
ATOM     10 CL   LIG    1        3.804  -1.846  -0.016  0.00  0.00    -0.124 Cl
ENDBRANCH   8   9
ENDBRANCH   1   8
BRANCH   4  11
ATOM     11  C   LIG    1       -2.093  -0.639  -0.880  0.00  0.00    +0.121 C 
BRANCH  11  12
ATOM     12  C   LIG    1       -3.108  -0.193   0.141  0.00  0.00    +0.127 C 
ATOM     13 CL   LIG    1       -2.886  -1.266   1.566  0.00  0.00    -0.124 Cl
ENDBRANCH  11  12
ENDBRANCH   4  11
TORSDOF 5
