REMARK  Name = molecules/DLGSOJOOYHWROO-UHFFFAOYSA-N.pdb
REMARK                            x       y       z     vdW  Elec       q    Type
REMARK                         _______ _______ _______ _____ _____    ______ ____
ROOT
ATOM      1  N   LIG    1        1.759  -0.120   0.803  0.00  0.00    -0.175 NA
ATOM      2  C   LIG    1        0.575  -0.274   0.290  0.00  0.00    +0.153 C 
ATOM      3  C   LIG    1       -0.633   0.485   0.635  0.00  0.00    +0.028 A 
ATOM      4  C   LIG    1       -0.819   1.511   1.552  0.00  0.00    +0.012 A 
ATOM      5  C   LIG    1       -2.072   2.062   1.685  0.00  0.00    +0.001 A 
ATOM      6  C   LIG    1       -3.106   1.582   0.909  0.00  0.00    +0.002 A 
ATOM      7  C   LIG    1       -2.924   0.563  -0.003  0.00  0.00    +0.024 A 
ATOM      8  C   LIG    1       -1.657  -0.005  -0.148  0.00  0.00    +0.046 A 
ATOM      9  N   LIG    1       -1.217  -1.041  -0.995  0.00  0.00    -0.269 N 
ATOM     10  C   LIG    1       -2.034  -1.783  -1.953  0.00  0.00    +0.138 C 
ATOM     11  C   LIG    1        0.169  -1.222  -0.736  0.00  0.00    +0.271 C 
ATOM     12  O   LIG    1        0.900  -2.079  -1.323  0.00  0.00    -0.268 OA
ENDROOT
BRANCH   1  13
ATOM     13  N   LIG    1        2.795  -0.935   0.351  0.00  0.00    -0.218 N 
ATOM     14  H   LIG    1        2.671  -1.976   0.200  0.00  0.00    +0.176 HD
BRANCH  13  15
ATOM     15  C   LIG    1        4.083  -0.417   0.064  0.00  0.00    +0.147 C 
ATOM     16  S   LIG    1        5.319  -1.330  -0.465  0.00  0.00    -0.017 S 
BRANCH  15  17
ATOM     17  N   LIG    1        4.301   0.971   0.249  0.00  0.00    -0.339 N 
ATOM     18  H   LIG    1        3.994   1.410   1.120  0.00  0.00    +0.144 HD
ATOM     19  H   LIG    1        4.766   1.539  -0.487  0.00  0.00    +0.144 HD
ENDBRANCH  15  17
ENDBRANCH  13  15
ENDBRANCH   1  13
TORSDOF 3
