REMARK  Name = molecules/DLNKOYKMWOXYQA-APPZFPTMSA-N.pdb
REMARK                            x       y       z     vdW  Elec       q    Type
REMARK                         _______ _______ _______ _____ _____    ______ ____
ROOT
ATOM      1  C   LIG    1        0.766  -0.099  -0.748  0.00  0.00    +0.161 C 
ENDROOT
BRANCH   1   2
ATOM      2  C   LIG    1       -0.626  -0.128  -0.321  0.00  0.00    -0.018 A 
ATOM      3  C   LIG    1       -1.229   0.991   0.195  0.00  0.00    +0.006 A 
ATOM      4  C   LIG    1       -2.554   0.970   0.605  0.00  0.00    +0.000 A 
ATOM      5  C   LIG    1       -3.263  -0.199   0.485  0.00  0.00    +0.000 A 
ATOM      6  C   LIG    1       -2.677  -1.332  -0.030  0.00  0.00    +0.000 A 
ATOM      7  C   LIG    1       -1.351  -1.293  -0.435  0.00  0.00    +0.006 A 
ENDBRANCH   1   2
BRANCH   1   9
ATOM      8  C   LIG    1        3.114  -0.406  -0.198  0.00  0.00    +0.026 C 
ATOM      9  C   LIG    1        1.736  -0.164   0.408  0.00  0.00    +0.081 C 
BRANCH   9  10
ATOM     10  N   LIG    1        1.702   0.967   1.271  0.00  0.00    -0.325 NA
ATOM     11  H   LIG    1        0.845   0.911   1.866  0.00  0.00    +0.119 HD
ATOM     12  H   LIG    1        1.683   1.886   0.784  0.00  0.00    +0.119 HD
ENDBRANCH   9  10
ENDBRANCH   1   9
BRANCH   1  13
ATOM     13  O   LIG    1        1.095   1.030  -1.496  0.00  0.00    -0.386 OA
ATOM     14  H   LIG    1        0.311   1.351  -1.997  0.00  0.00    +0.210 HD
ENDBRANCH   1  13
TORSDOF 4
