REMARK  Name = molecules/DMIMZHGXWWCGBD-UHFFFAOYSA-N.pdb
REMARK                            x       y       z     vdW  Elec       q    Type
REMARK                         _______ _______ _______ _____ _____    ______ ____
ROOT
ATOM      1  C   LIG    1       -0.768  -0.002  -0.169  0.00  0.00    +0.119 A 
ATOM      2  C   LIG    1        0.002  -1.095   0.150  0.00  0.00    +0.048 A 
ATOM      3  C   LIG    1        1.394  -0.988   0.179  0.00  0.00    +0.062 A 
ATOM      4 BR   LIG    1        2.448  -2.506   0.622  0.00  0.00    -0.046 Br
ATOM      5  C   LIG    1        2.020   0.201  -0.108  0.00  0.00    +0.145 A 
ATOM      6  C   LIG    1        1.209   1.280  -0.425  0.00  0.00    +0.062 A 
ATOM      7 BR   LIG    1        2.024   2.936  -0.827  0.00  0.00    -0.046 Br
ATOM      8  C   LIG    1       -0.174   1.205  -0.462  0.00  0.00    +0.048 A 
ENDROOT
BRANCH   1   9
ATOM      9  S   LIG    1       -2.501  -0.173  -0.195  0.00  0.00    +0.110 S 
ATOM     10  O   LIG    1       -2.919  -1.544  -0.619  0.00  0.00    -0.142 OA
ATOM     11  O   LIG    1       -3.036   0.836  -1.176  0.00  0.00    -0.142 OA
BRANCH   9  12
ATOM     12  O   LIG    1       -3.164   0.171   1.327  0.00  0.00    -0.250 OA
ATOM     13  H   LIG    1       -2.682  -0.381   2.016  0.00  0.00    +0.245 HD
ENDBRANCH   9  12
ENDBRANCH   1   9
BRANCH   5  14
ATOM     14  O   LIG    1        3.400   0.371  -0.096  0.00  0.00    -0.505 OA
ATOM     15  H   LIG    1        4.056  -0.339   0.118  0.00  0.00    +0.292 HD
ENDBRANCH   5  14
TORSDOF 3
