REMARK  Name = molecules/DMJNNHOOLUXYBV-PQTSNVLCSA-N.pdb
REMARK                            x       y       z     vdW  Elec       q    Type
REMARK                         _______ _______ _______ _____ _____    ______ ____
ROOT
ATOM      1  C   LIG    1        3.254   0.209   0.020  0.00  0.00    +0.104 C 
ATOM      2  C   LIG    1        4.444  -0.087   0.895  0.00  0.00    +0.125 C 
ATOM      3  C   LIG    1        4.771   1.365   0.636  0.00  0.00    +0.228 C 
ATOM      4  O   LIG    1        5.848   1.985   0.744  0.00  0.00    -0.275 OA
ATOM      5  C   LIG    1        1.889   0.072   0.612  0.00  0.00    +0.046 C 
ATOM      6  C   LIG    1        1.920   0.221   2.134  0.00  0.00    +0.015 C 
ATOM      7  C   LIG    1        1.225   1.317   0.117  0.00  0.00    +0.019 C 
ATOM      8  C   LIG    1        2.187   2.210  -0.068  0.00  0.00    +0.131 C 
ATOM      9  N   LIG    1        3.446   1.666   0.258  0.00  0.00    -0.260 N 
ENDROOT
BRANCH   2  10
ATOM     10  C   LIG    1        5.421  -1.054   0.305  0.00  0.00    +0.125 C 
ATOM     11  C   LIG    1        4.705  -2.365   0.054  0.00  0.00    +0.038 C 
BRANCH  10  12
ATOM     12  O   LIG    1        5.935  -0.620  -0.915  0.00  0.00    -0.391 OA
ATOM     13  H   LIG    1        6.293  -1.435  -1.388  0.00  0.00    +0.210 HD
ENDBRANCH  10  12
ENDBRANCH   2  10
BRANCH   8  14
ATOM     14  C   LIG    1        2.022   3.584  -0.539  0.00  0.00    +0.352 C 
ATOM     15  O   LIG    1        0.874   4.001  -0.806  0.00  0.00    -0.244 OA
BRANCH  14  16
ATOM     16  O   LIG    1        3.076   4.454  -0.705  0.00  0.00    -0.476 OA
ATOM     17  H   LIG    1        3.484   4.862   0.120  0.00  0.00    +0.295 HD
ENDBRANCH  14  16
ENDBRANCH   8  14
BRANCH   7  18
ATOM     18  S   LIG    1       -0.520   1.545  -0.160  0.00  0.00    -0.122 S 
BRANCH  18  19
ATOM     19  C   LIG    1       -1.447   0.055   0.191  0.00  0.00    +0.067 C 
ATOM     20  C   LIG    1       -2.931   0.270   0.201  0.00  0.00    +0.044 C 
ATOM     21  C   LIG    1       -3.429  -0.937  -0.598  0.00  0.00    +0.142 C 
ATOM     22  N   LIG    1       -2.370  -1.008  -1.624  0.00  0.00    -0.305 NA
ATOM     23  H   LIG    1       -2.338  -0.041  -2.043  0.00  0.00    +0.123 HD
ATOM     24  C   LIG    1       -1.179  -1.079  -0.761  0.00  0.00    +0.096 C 
BRANCH  21  25
ATOM     25  C   LIG    1       -4.734  -0.641  -1.232  0.00  0.00    +0.232 C 
ATOM     26  N   LIG    1       -5.890  -0.560  -0.445  0.00  0.00    -0.306 N 
ATOM     27  C   LIG    1       -5.840  -0.778   0.973  0.00  0.00    +0.131 C 
ATOM     28  C   LIG    1       -7.157  -0.261  -1.067  0.00  0.00    +0.131 C 
ATOM     29  O   LIG    1       -4.756  -0.466  -2.498  0.00  0.00    -0.274 OA
ENDBRANCH  21  25
ENDBRANCH  18  19
ENDBRANCH   7  18
TORSDOF 7
