REMARK  Name = molecules/DMKSVUSAATWOCU-HROMYWEYSA-N.pdb
REMARK                            x       y       z     vdW  Elec       q    Type
REMARK                         _______ _______ _______ _____ _____    ______ ____
ROOT
ATOM      1  C   LIG    1        2.030  -0.557  -0.301  0.00  0.00    +0.218 C 
ATOM      2  C   LIG    1        0.583  -0.792   0.060  0.00  0.00    +0.024 C 
ATOM      3  C   LIG    1        0.197  -0.267   1.391  0.00  0.00    +0.043 C 
ATOM      4  C   LIG    1       -1.290  -0.316   1.544  0.00  0.00    +0.120 C 
ATOM      5  C   LIG    1       -2.037   0.315   0.427  0.00  0.00    +0.035 C 
ATOM      6  C   LIG    1       -3.526   0.058   0.511  0.00  0.00    +0.013 C 
ATOM      7  C   LIG    1       -4.045   0.107   1.863  0.00  0.00    -0.012 C 
ATOM      8  C   LIG    1       -4.959   0.934   2.273  0.00  0.00    +0.047 C 
ATOM      9  C   LIG    1       -5.536   1.902   1.351  0.00  0.00    +0.179 C 
ATOM     10  O   LIG    1       -6.423   2.701   1.753  0.00  0.00    -0.288 OA
ATOM     11  C   LIG    1       -5.035   1.879  -0.010  0.00  0.00    +0.051 C 
ATOM     12  C   LIG    1       -3.870  -1.301  -0.113  0.00  0.00    +0.020 C 
ATOM     13  C   LIG    1       -4.124   1.049  -0.403  0.00  0.00    -0.056 C 
ATOM     14  C   LIG    1       -3.658   1.107  -1.819  0.00  0.00    +0.032 C 
ATOM     15  C   LIG    1       -2.159   0.957  -1.912  0.00  0.00    +0.008 C 
ATOM     16  C   LIG    1       -1.585  -0.053  -0.942  0.00  0.00    -0.000 C 
ATOM     17  C   LIG    1        0.250  -2.227  -0.112  0.00  0.00    +0.016 C 
ATOM     18  C   LIG    1       -0.094   0.092  -0.988  0.00  0.00    +0.003 C 
ATOM     19  C   LIG    1        0.581  -0.320  -2.233  0.00  0.00    +0.009 C 
ATOM     20  C   LIG    1        2.027  -0.441  -1.810  0.00  0.00    +0.061 C 
ENDROOT
BRANCH   1  21
ATOM     21  C   LIG    1        2.881  -1.702   0.074  0.00  0.00    +0.353 C 
ATOM     22  O   LIG    1        3.850  -1.491   0.877  0.00  0.00    -0.246 OA
BRANCH  21  23
ATOM     23  O   LIG    1        2.741  -2.997  -0.356  0.00  0.00    -0.446 OA
BRANCH  23  24
ATOM     24  C   LIG    1        3.544  -4.077  -0.002  0.00  0.00    +0.340 C 
ATOM     25 CL   LIG    1        2.896  -5.519  -0.862  0.00  0.00    -0.081 Cl
ENDBRANCH  23  24
ENDBRANCH  21  23
ENDBRANCH   1  21
BRANCH   4  26
ATOM     26  O   LIG    1       -1.714  -1.590   1.900  0.00  0.00    -0.391 OA
ATOM     27  H   LIG    1       -1.587  -1.788   2.855  0.00  0.00    +0.210 HD
ENDBRANCH   4  26
BRANCH   1  28
ATOM     28  O   LIG    1        2.521   0.632   0.305  0.00  0.00    -0.415 OA
BRANCH  28  29
ATOM     29  C   LIG    1        3.810   1.022  -0.023  0.00  0.00    +0.511 C 
ATOM     30  O   LIG    1        4.547   0.367  -0.832  0.00  0.00    -0.203 OA
BRANCH  29  31
ATOM     31  O   LIG    1        4.402   2.164   0.506  0.00  0.00    -0.434 OA
BRANCH  31  32
ATOM     32  C   LIG    1        5.726   2.547   0.156  0.00  0.00    +0.232 C 
ATOM     33  C   LIG    1        6.144   3.804   0.847  0.00  0.00    +0.048 C 
ENDBRANCH  31  32
ENDBRANCH  29  31
ENDBRANCH  28  29
ENDBRANCH   1  28
TORSDOF 8
