REMARK  Name = molecules/DMUAPQTXSSNEDD-XTVPXTAISA-N.pdb
REMARK                            x       y       z     vdW  Elec       q    Type
REMARK                         _______ _______ _______ _____ _____    ______ ____
ROOT
ATOM      1  C   LIG    1       -2.079  -0.326   1.637  0.00  0.00    +0.157 C 
ATOM      2  C   LIG    1       -2.467  -1.752   1.956  0.00  0.00    +0.188 C 
ATOM      3  C   LIG    1       -3.058  -2.523   0.829  0.00  0.00    +0.218 C 
ATOM      4  C   LIG    1       -4.508  -2.959   1.034  0.00  0.00    +0.167 C 
ATOM      5  C   LIG    1       -5.199  -3.163  -0.256  0.00  0.00    +0.311 C 
ATOM      6  O   LIG    1       -6.309  -2.489  -0.601  0.00  0.00    -0.461 OA
ATOM      7  C   LIG    1       -7.622  -2.490  -0.142  0.00  0.00    +0.177 C 
ATOM      8  C   LIG    1       -8.326  -3.831  -0.349  0.00  0.00    +0.052 C 
ATOM      9  C   LIG    1       -8.393  -1.426  -0.885  0.00  0.00    +0.071 C 
ATOM     10  C   LIG    1       -8.909  -0.379   0.016  0.00  0.00    -0.023 C 
ATOM     11  C   LIG    1       -8.707   0.916  -0.132  0.00  0.00    -0.004 C 
ATOM     12  C   LIG    1       -7.972   1.600  -1.151  0.00  0.00    -0.002 C 
ATOM     13  C   LIG    1       -6.675   1.682  -1.341  0.00  0.00    +0.004 C 
ATOM     14  C   LIG    1       -5.611   1.060  -0.504  0.00  0.00    +0.140 C 
ATOM     15  C   LIG    1       -4.532   2.030  -0.160  0.00  0.00    +0.019 C 
ATOM     16  C   LIG    1       -3.198   1.445   0.190  0.00  0.00    +0.012 C 
ATOM     17  C   LIG    1       -4.393   3.049  -1.292  0.00  0.00    +0.010 C 
ATOM     18  O   LIG    1       -4.685  -4.018  -1.028  0.00  0.00    -0.251 OA
ATOM     19  C   LIG    1       -3.266   0.567   1.374  0.00  0.00    +0.028 C 
ENDROOT
BRANCH  14  20
ATOM     20  O   LIG    1       -6.248   0.729   0.716  0.00  0.00    -0.387 OA
ATOM     21  H   LIG    1       -6.299  -0.212   0.904  0.00  0.00    +0.210 HD
ENDBRANCH  14  20
BRANCH   2  22
ATOM     22  O   LIG    1       -3.349  -1.836   3.026  0.00  0.00    -0.374 OA
ATOM     23  C   LIG    1       -2.745  -2.499   4.120  0.00  0.00    +0.194 C 
ENDBRANCH   2  22
BRANCH   3  24
ATOM     24  O   LIG    1       -2.918  -1.901  -0.432  0.00  0.00    -0.458 OA
BRANCH  24  25
ATOM     25  C   LIG    1       -2.234  -2.426  -1.471  0.00  0.00    +0.307 C 
ATOM     26  O   LIG    1       -1.662  -3.538  -1.350  0.00  0.00    -0.251 OA
BRANCH  25  27
ATOM     27  C   LIG    1       -2.202  -1.637  -2.736  0.00  0.00    +0.117 C 
ATOM     28  C   LIG    1       -3.421  -2.116  -3.534  0.00  0.00    +0.015 C 
ENDBRANCH  25  27
ENDBRANCH  24  25
ENDBRANCH   3  24
BRANCH  19  29
ATOM     29  C   LIG    1       -3.582   1.468   2.561  0.00  0.00    +0.076 C 
BRANCH  29  30
ATOM     30  C   LIG    1       -2.491   2.384   2.928  0.00  0.00    +0.223 C 
ATOM     31  O   LIG    1       -1.610   2.130   3.732  0.00  0.00    -0.301 OA
ENDBRANCH  29  30
ENDBRANCH  19  29
BRANCH   1  32
ATOM     32  O   LIG    1       -1.156  -0.229   0.658  0.00  0.00    -0.343 OA
BRANCH  32  33
ATOM     33  C   LIG    1        0.043   0.368   0.915  0.00  0.00    +0.281 C 
ATOM     34  C   LIG    1        1.156  -0.637   1.213  0.00  0.00    +0.190 C 
ATOM     35  C   LIG    1        2.449   0.174   1.182  0.00  0.00    +0.121 C 
ATOM     36  C   LIG    1        2.688   0.704  -0.215  0.00  0.00    +0.169 C 
ATOM     37  C   LIG    1        1.400   1.133  -0.858  0.00  0.00    +0.149 C 
ATOM     38  C   LIG    1        0.968   0.175  -1.948  0.00  0.00    +0.041 C 
ATOM     39  O   LIG    1        0.343   1.287  -0.001  0.00  0.00    -0.343 OA
BRANCH  35  40
ATOM     40  N   LIG    1        3.461  -0.532   1.809  0.00  0.00    -0.301 NA
ATOM     41  C   LIG    1        3.301  -0.777   3.220  0.00  0.00    +0.105 C 
ATOM     42  C   LIG    1        4.037  -1.647   1.117  0.00  0.00    +0.105 C 
ENDBRANCH  35  40
BRANCH  34  43
ATOM     43  O   LIG    1        1.020  -1.085   2.515  0.00  0.00    -0.385 OA
ATOM     44  H   LIG    1        0.830  -2.031   2.619  0.00  0.00    +0.210 HD
ENDBRANCH  34  43
BRANCH  36  45
ATOM     45  O   LIG    1        3.669   1.653  -0.304  0.00  0.00    -0.344 OA
BRANCH  45  46
ATOM     46  C   LIG    1        4.819   1.252  -0.952  0.00  0.00    +0.254 C 
ATOM     47  O   LIG    1        5.805   1.243   0.035  0.00  0.00    -0.345 OA
ATOM     48  C   LIG    1        6.902   2.044  -0.256  0.00  0.00    +0.162 C 
ATOM     49  C   LIG    1        7.883   1.882   0.891  0.00  0.00    +0.042 C 
ATOM     50  C   LIG    1        7.607   1.561  -1.512  0.00  0.00    +0.236 C 
ATOM     51  C   LIG    1        6.599   1.410  -2.600  0.00  0.00    +0.107 C 
ATOM     52  C   LIG    1        6.375  -0.083  -2.828  0.00  0.00    +0.045 C 
ATOM     53  C   LIG    1        5.288   2.049  -2.102  0.00  0.00    +0.099 C 
BRANCH  51  54
ATOM     54  O   LIG    1        6.983   1.947  -3.824  0.00  0.00    -0.385 OA
ATOM     55  H   LIG    1        7.129   1.256  -4.519  0.00  0.00    +0.210 HD
ENDBRANCH  51  54
BRANCH  50  56
ATOM     56  O   LIG    1        8.711   2.351  -1.790  0.00  0.00    -0.456 OA
BRANCH  56  57
ATOM     57  C   LIG    1       10.014   1.887  -1.637  0.00  0.00    +0.307 C 
ATOM     58  O   LIG    1       10.158   0.711  -1.231  0.00  0.00    -0.251 OA
BRANCH  57  59
ATOM     59  C   LIG    1       11.191   2.712  -1.929  0.00  0.00    +0.117 C 
ATOM     60  C   LIG    1       12.451   1.940  -1.550  0.00  0.00    +0.015 C 
ENDBRANCH  57  59
ENDBRANCH  56  57
ENDBRANCH  50  56
ENDBRANCH  45  46
ENDBRANCH  36  45
ENDBRANCH  32  33
ENDBRANCH   1  32
TORSDOF 17
