REMARK  Name = molecules/DNHPDWGIXIMXSA-CXNSMIOJSA-N.pdb
REMARK                            x       y       z     vdW  Elec       q    Type
REMARK                         _______ _______ _______ _____ _____    ______ ____
ROOT
ATOM      1  C   LIG    1      -12.871  18.698   0.000  0.00  0.00    +0.132 C 
ENDROOT
BRANCH   1   4
ATOM      2  N   LIG    1       -9.791  16.195   0.000  0.00  0.00    -0.197 NA
ATOM      3  C   LIG    1      -11.201  16.708   0.000  0.00  0.00    +0.338 C 
ATOM      4  N   LIG    1      -11.461  18.185   0.000  0.00  0.00    -0.199 NA
ATOM      5  O   LIG    1      -12.350  15.744   0.000  0.00  0.00    -0.249 OA
BRANCH   2   6
ATOM      6  C   LIG    1       -9.530  14.718   0.000  0.00  0.00    +0.160 C 
BRANCH   6   7
ATOM      7  C   LIG    1       -9.270  13.241   0.000  0.00  0.00    +0.180 C 
BRANCH   7   8
ATOM      8  O   LIG    1       -9.010  11.763   0.000  0.00  0.00    -0.376 OA
BRANCH   8   9
ATOM      9  C   LIG    1       -7.600  11.250   0.000  0.00  0.00    +0.188 C 
BRANCH   9  10
ATOM     10  C   LIG    1       -6.191  10.737   0.000  0.00  0.00    +0.188 C 
BRANCH  10  11
ATOM     11  O   LIG    1       -4.781  10.224   0.000  0.00  0.00    -0.372 OA
BRANCH  11  12
ATOM     12  C   LIG    1       -4.521   8.747   0.000  0.00  0.00    +0.208 C 
BRANCH  12  14
ATOM     13  N   LIG    1       -4.000   5.793   0.000  0.00  0.00    -0.152 NA
ATOM     14  C   LIG    1       -4.260   7.270   0.000  0.00  0.00    +0.134 C 
BRANCH  13  15
ATOM     15  S   LIG    1       -2.590   5.279   0.000  0.00  0.00    +0.017 S 
ATOM     16  O   LIG    1       -3.103   3.870   0.000  0.00  0.00    -0.160 OA
BRANCH  15  18
ATOM     17  C   LIG    1       -0.920   3.289   0.000  0.00  0.00    +0.013 C 
ATOM     18  C   LIG    1       -1.181   4.766   0.000  0.00  0.00    +0.095 C 
BRANCH  17  21
ATOM     19  C   LIG    1        0.489  -0.178   0.000  0.00  0.00    +0.093 C 
ATOM     20  C   LIG    1        0.750   1.299   0.000  0.00  0.00    +0.045 C 
ATOM     21  C   LIG    1        0.489   2.776   0.000  0.00  0.00    +0.028 C 
ATOM     22  C   LIG    1        1.639   3.740   0.000  0.00  0.00    +0.008 C 
ATOM     23  C   LIG    1        2.159   1.812   0.000  0.00  0.00    -0.047 C 
ATOM     24  C   LIG    1        3.309   0.848   0.000  0.00  0.00    -0.015 C 
ATOM     25  C   LIG    1        3.048  -0.629   0.000  0.00  0.00    +0.120 C 
ATOM     26  N   LIG    1        1.639  -1.142   0.000  0.00  0.00    -0.301 NA
ATOM     27  C   LIG    1        1.378  -2.620   0.000  0.00  0.00    +0.105 C 
BRANCH  24  28
ATOM     28  C   LIG    1        4.718   1.361   0.000  0.00  0.00    +0.043 C 
ATOM     29  C   LIG    1        4.979   2.838   0.000  0.00  0.00    +0.014 C 
ATOM     30 CL   LIG    1        5.867   0.397   0.000  0.00  0.00    -0.083 Cl
BRANCH  29  31
ATOM     31  C   LIG    1        3.830   3.802   0.000  0.00  0.00    +0.126 C 
ATOM     32 CL   LIG    1        4.090   5.279   0.000  0.00  0.00    -0.115 Cl
ENDBRANCH  29  31
ENDBRANCH  24  28
ENDBRANCH  17  21
BRANCH  18  33
ATOM     33  C   LIG    1       -0.031   5.731   0.000  0.00  0.00    +0.027 C 
ATOM     34  C   LIG    1        1.378   5.218   0.000  0.00  0.00    +0.002 C 
ENDBRANCH  18  33
ENDBRANCH  15  18
BRANCH  15  35
ATOM     35  O   LIG    1       -2.077   6.689   0.000  0.00  0.00    -0.264 OA
ATOM     36  H   LIG    1       -2.783   7.530   0.000  0.00  0.00    +0.243 HD
ENDBRANCH  15  35
ENDBRANCH  13  15
ENDBRANCH  12  14
ENDBRANCH  11  12
ENDBRANCH  10  11
ENDBRANCH   9  10
ENDBRANCH   8   9
ENDBRANCH   7   8
ENDBRANCH   6   7
ENDBRANCH   2   6
ENDBRANCH   1   4
BRANCH   1  37
ATOM     37  C   LIG    1      -14.280  19.211   0.000  0.00  0.00    +0.022 C 
BRANCH  37  38
ATOM     38  C   LIG    1      -15.690  19.724   0.000  0.00  0.00    +0.022 C 
BRANCH  38  39
ATOM     39  C   LIG    1      -17.099  20.237   0.000  0.00  0.00    +0.132 C 
BRANCH  39  40
ATOM     40  N   LIG    1      -18.509  20.750   0.000  0.00  0.00    -0.199 NA
ATOM     41  C   LIG    1      -18.769  22.227   0.000  0.00  0.00    +0.338 C 
ATOM     42  O   LIG    1      -17.620  23.192   0.000  0.00  0.00    -0.249 OA
ATOM     43  N   LIG    1      -20.179  22.741   0.000  0.00  0.00    -0.197 NA
BRANCH  43  44
ATOM     44  C   LIG    1      -20.439  24.218   0.000  0.00  0.00    +0.160 C 
BRANCH  44  45
ATOM     45  C   LIG    1      -20.700  25.695   0.000  0.00  0.00    +0.180 C 
BRANCH  45  46
ATOM     46  O   LIG    1      -20.960  27.172   0.000  0.00  0.00    -0.376 OA
BRANCH  46  47
ATOM     47  C   LIG    1      -22.370  27.685   0.000  0.00  0.00    +0.188 C 
BRANCH  47  48
ATOM     48  C   LIG    1      -23.779  28.198   0.000  0.00  0.00    +0.188 C 
BRANCH  48  49
ATOM     49  O   LIG    1      -25.189  28.711   0.000  0.00  0.00    -0.372 OA
BRANCH  49  50
ATOM     50  C   LIG    1      -25.449  30.189   0.000  0.00  0.00    +0.208 C 
BRANCH  50  51
ATOM     51  C   LIG    1      -25.710  31.666   0.000  0.00  0.00    +0.134 C 
ATOM     52  N   LIG    1      -25.970  33.143   0.000  0.00  0.00    -0.152 NA
BRANCH  52  53
ATOM     53  S   LIG    1      -27.380  33.656   0.000  0.00  0.00    +0.013 S 
ATOM     54  O   LIG    1      -26.867  35.066   0.000  0.00  0.00    -0.160 OA
BRANCH  53  55
ATOM     55  C   LIG    1      -28.789  34.169   0.000  0.00  0.00    +0.076 C 
ATOM     56  C   LIG    1      -29.938  33.205   0.000  0.00  0.00    +0.056 C 
ATOM     57  C   LIG    1      -29.050  35.646   0.000  0.00  0.00    +0.009 C 
BRANCH  57  58
ATOM     58  C   LIG    1      -30.459  36.159   0.000  0.00  0.00    +0.027 C 
ATOM     59  C   LIG    1      -30.720  37.636   0.000  0.00  0.00    +0.045 C 
ATOM     60  C   LIG    1      -30.459  39.114   0.000  0.00  0.00    +0.093 C 
ATOM     61  N   LIG    1      -31.608  40.078   0.000  0.00  0.00    -0.301 NA
ATOM     62  C   LIG    1      -33.018  39.565   0.000  0.00  0.00    +0.120 C 
ATOM     63  C   LIG    1      -33.278  38.088   0.000  0.00  0.00    -0.015 C 
ATOM     64  C   LIG    1      -31.348  41.555   0.000  0.00  0.00    +0.105 C 
ATOM     65  C   LIG    1      -32.129  37.123   0.000  0.00  0.00    -0.047 C 
BRANCH  63  66
ATOM     66  C   LIG    1      -34.688  37.575   0.000  0.00  0.00    +0.045 C 
ATOM     67  C   LIG    1      -34.948  36.097   0.000  0.00  0.00    +0.022 C 
ATOM     68 CL   LIG    1      -35.837  38.539   0.000  0.00  0.00    -0.083 Cl
ENDBRANCH  63  66
BRANCH  58  69
ATOM     69  C   LIG    1      -31.608  35.195   0.000  0.00  0.00    +0.007 C 
ATOM     70  C   LIG    1      -32.390  35.646   0.000  0.00  0.00    +0.001 C 
ENDBRANCH  58  69
ENDBRANCH  57  58
ENDBRANCH  53  55
BRANCH  53  71
ATOM     71  O   LIG    1      -27.893  32.246   0.000  0.00  0.00    -0.264 OA
ATOM     72  H   LIG    1      -27.187  31.405   0.000  0.00  0.00    +0.243 HD
ENDBRANCH  53  71
ENDBRANCH  52  53
ENDBRANCH  50  51
ENDBRANCH  49  50
ENDBRANCH  48  49
ENDBRANCH  47  48
ENDBRANCH  46  47
ENDBRANCH  45  46
ENDBRANCH  44  45
ENDBRANCH  43  44
ENDBRANCH  39  40
ENDBRANCH  38  39
ENDBRANCH  37  38
ENDBRANCH   1  37
TORSDOF 34
REMARK  Name = molecules/DNHPDWGIXIMXSA-CXNSMIOJSA-N.pdb
REMARK                            x       y       z     vdW  Elec       q    Type
REMARK                         _______ _______ _______ _____ _____    ______ ____
ROOT
ATOM      1  C   LIG    1        2.420   3.289   0.000  0.00  0.00    +0.000 C 
ENDROOT
TORSDOF 0
REMARK  Name = molecules/DNHPDWGIXIMXSA-CXNSMIOJSA-N.pdb
REMARK                            x       y       z     vdW  Elec       q    Type
REMARK                         _______ _______ _______ _____ _____    ______ ____
ROOT
ATOM      1  C   LIG    1      -33.799  35.133   0.000  0.00  0.00    +0.000 C 
ENDROOT
TORSDOF 0
REMARK  Name = molecules/DNHPDWGIXIMXSA-CXNSMIOJSA-N.pdb
REMARK                            x       y       z     vdW  Elec       q    Type
REMARK                         _______ _______ _______ _____ _____    ______ ____
ROOT
ATOM      1  C   LIG    1      -31.348  33.718   0.000  0.00  0.00    +0.000 C 
ENDROOT
TORSDOF 0
REMARK  Name = molecules/DNHPDWGIXIMXSA-CXNSMIOJSA-N.pdb
REMARK                            x       y       z     vdW  Elec       q    Type
REMARK                         _______ _______ _______ _____ _____    ______ ____
ROOT
ATOM      1 CL   LIG    1      -34.060  33.656   0.000  0.00  0.00    +0.000 Cl
ENDROOT
TORSDOF 0
REMARK  Name = molecules/DNHPDWGIXIMXSA-CXNSMIOJSA-N.pdb
REMARK                            x       y       z     vdW  Elec       q    Type
REMARK                         _______ _______ _______ _____ _____    ______ ____
ROOT
ATOM      1  H   UNK    1       -5.149   4.828   0.000  0.00  0.00    +0.000 HD
ENDROOT
TORSDOF 0
REMARK  Name = molecules/DNHPDWGIXIMXSA-CXNSMIOJSA-N.pdb
REMARK                            x       y       z     vdW  Elec       q    Type
REMARK                         _______ _______ _______ _____ _____    ______ ____
ROOT
ATOM      1  H   UNK    1       -8.642  17.159   0.000  0.00  0.00    +0.000 HD
ENDROOT
TORSDOF 0
REMARK  Name = molecules/DNHPDWGIXIMXSA-CXNSMIOJSA-N.pdb
REMARK                            x       y       z     vdW  Elec       q    Type
REMARK                         _______ _______ _______ _____ _____    ______ ____
ROOT
ATOM      1  H   UNK    1      -10.312  19.149   0.000  0.00  0.00    +0.000 HD
ENDROOT
TORSDOF 0
REMARK  Name = molecules/DNHPDWGIXIMXSA-CXNSMIOJSA-N.pdb
REMARK                            x       y       z     vdW  Elec       q    Type
REMARK                         _______ _______ _______ _____ _____    ______ ____
ROOT
ATOM      1  H   UNK    1      -19.658  19.786   0.000  0.00  0.00    +0.000 HD
ENDROOT
TORSDOF 0
REMARK  Name = molecules/DNHPDWGIXIMXSA-CXNSMIOJSA-N.pdb
REMARK                            x       y       z     vdW  Elec       q    Type
REMARK                         _______ _______ _______ _____ _____    ______ ____
ROOT
ATOM      1  H   UNK    1      -21.328  21.776   0.000  0.00  0.00    +0.000 HD
ENDROOT
TORSDOF 0
REMARK  Name = molecules/DNHPDWGIXIMXSA-CXNSMIOJSA-N.pdb
REMARK                            x       y       z     vdW  Elec       q    Type
REMARK                         _______ _______ _______ _____ _____    ______ ____
ROOT
ATOM      1  H   UNK    1      -32.497  32.754   0.000  0.00  0.00    +0.000 HD
ENDROOT
TORSDOF 0
REMARK  Name = molecules/DNHPDWGIXIMXSA-CXNSMIOJSA-N.pdb
REMARK                            x       y       z     vdW  Elec       q    Type
REMARK                         _______ _______ _______ _____ _____    ______ ____
ROOT
ATOM      1  H   UNK    1      -24.821  34.107   0.000  0.00  0.00    +0.000 HD
ENDROOT
TORSDOF 0
