REMARK  Name = molecules/DNXHEGUUPJUMQT-CBZIJGRNSA-N.pdb
REMARK                            x       y       z     vdW  Elec       q    Type
REMARK                         _______ _______ _______ _____ _____    ______ ____
ROOT
ATOM      1  C   LIG    1       -1.927   1.905   0.917  0.00  0.00    +0.019 C 
ATOM      2  C   LIG    1       -2.137   0.417   1.065  0.00  0.00    +0.029 C 
ATOM      3  C   LIG    1       -1.348  -0.175   2.182  0.00  0.00    +0.015 C 
ATOM      4  C   LIG    1        0.114  -0.165   1.871  0.00  0.00    +0.009 C 
ATOM      5  C   LIG    1        0.476  -0.736   0.544  0.00  0.00    +0.023 C 
ATOM      6  C   LIG    1        1.878  -0.484   0.223  0.00  0.00    -0.041 A 
ATOM      7  C   LIG    1        2.840  -0.108   1.150  0.00  0.00    +0.008 A 
ATOM      8  C   LIG    1        4.146   0.121   0.814  0.00  0.00    +0.046 A 
ATOM      9  C   LIG    1        4.563  -0.017  -0.489  0.00  0.00    +0.117 A 
ATOM     10  C   LIG    1        3.612  -0.394  -1.434  0.00  0.00    +0.049 A 
ATOM     11  C   LIG    1        2.297  -0.622  -1.083  0.00  0.00    -0.040 A 
ATOM     12  C   LIG    1        1.355  -1.018  -2.147  0.00  0.00    +0.036 C 
ATOM     13  C   LIG    1       -0.061  -0.648  -1.901  0.00  0.00    +0.009 C 
ATOM     14  C   LIG    1       -0.362  -0.081  -0.559  0.00  0.00    +0.001 C 
ATOM     15  C   LIG    1       -3.585   0.168   1.124  0.00  0.00    +0.139 C 
ATOM     16  O   LIG    1       -4.322  -0.016   2.056  0.00  0.00    -0.297 OA
ATOM     17  C   LIG    1       -4.053   0.179  -0.306  0.00  0.00    +0.075 C 
ATOM     18  C   LIG    1       -2.800   0.134  -1.156  0.00  0.00    +0.012 C 
ATOM     19  C   LIG    1       -1.774  -0.338  -0.203  0.00  0.00    +0.006 C 
ENDROOT
BRANCH   9  20
ATOM     20  O   LIG    1        5.864   0.196  -0.910  0.00  0.00    -0.507 OA
ATOM     21  H   LIG    1        6.222   1.082  -1.225  0.00  0.00    +0.292 HD
ENDBRANCH   9  20
TORSDOF 1
