REMARK  Name = molecules/DOIRQSBPFJWKBE-UHFFFAOYSA-N.pdb
REMARK                            x       y       z     vdW  Elec       q    Type
REMARK                         _______ _______ _______ _____ _____    ______ ____
ROOT
ATOM      1  C   LIG    1       -0.315  -1.855  -0.036  0.00  0.00    +0.073 A 
ATOM      2  C   LIG    1       -0.680  -3.220   0.054  0.00  0.00    +0.016 A 
ATOM      3  C   LIG    1        0.200  -4.247   0.004  0.00  0.00    +0.001 A 
ATOM      4  C   LIG    1        1.524  -3.961  -0.144  0.00  0.00    +0.001 A 
ATOM      5  C   LIG    1        1.927  -2.653  -0.236  0.00  0.00    +0.016 A 
ATOM      6  C   LIG    1        1.002  -1.583  -0.182  0.00  0.00    +0.073 A 
ENDROOT
BRANCH   1   7
ATOM      7  C   LIG    1       -1.343  -0.857   0.026  0.00  0.00    +0.340 C 
ATOM      8  O   LIG    1       -1.190   0.353  -0.044  0.00  0.00    -0.245 OA
BRANCH   7   9
ATOM      9  O   LIG    1       -2.702  -1.239   0.184  0.00  0.00    -0.461 OA
BRANCH   9  10
ATOM     10  C   LIG    1       -3.760  -0.336   0.251  0.00  0.00    +0.232 C 
BRANCH  10  11
ATOM     11  C   LIG    1       -3.950   0.522  -0.971  0.00  0.00    +0.041 C 
BRANCH  11  12
ATOM     12  C   LIG    1       -5.161   1.418  -0.665  0.00  0.00    -0.000 C 
ATOM     13  C   LIG    1       -5.479   2.338  -1.797  0.00  0.00    +0.004 C 
ENDBRANCH  11  12
ENDBRANCH  10  11
ENDBRANCH   9  10
ENDBRANCH   7   9
ENDBRANCH   1   7
BRANCH   6  14
ATOM     14  C   LIG    1        1.512  -0.244  -0.281  0.00  0.00    +0.340 C 
ATOM     15  O   LIG    1        0.935   0.842  -0.252  0.00  0.00    -0.245 OA
BRANCH  14  16
ATOM     16  O   LIG    1        2.922  -0.094  -0.441  0.00  0.00    -0.461 OA
BRANCH  16  17
ATOM     17  C   LIG    1        3.519   1.173  -0.546  0.00  0.00    +0.232 C 
BRANCH  17  18
ATOM     18  C   LIG    1        3.330   2.054   0.648  0.00  0.00    +0.041 C 
BRANCH  18  19
ATOM     19  C   LIG    1        3.928   1.386   1.883  0.00  0.00    -0.000 C 
ATOM     20  C   LIG    1        5.398   1.140   1.696  0.00  0.00    +0.004 C 
ENDBRANCH  18  19
ENDBRANCH  17  18
ENDBRANCH  16  17
ENDBRANCH  14  16
ENDBRANCH   6  14
TORSDOF 10
