REMARK  Name = molecules/DOMHWKQEPDYUQX-QDMRMOHQSA-N.pdb
REMARK                            x       y       z     vdW  Elec       q    Type
REMARK                         _______ _______ _______ _____ _____    ______ ____
ROOT
ATOM      1  C   LIG    1       -0.682   0.857   1.755  0.00  0.00    +0.254 C 
ATOM      2  C   LIG    1       -1.364   2.019   2.303  0.00  0.00    +0.108 C 
ATOM      3  C   LIG    1       -1.927   3.033   1.340  0.00  0.00    +0.212 C 
ATOM      4  C   LIG    1       -2.443   2.469   0.083  0.00  0.00    +0.190 C 
ATOM      5  C   LIG    1       -1.405   1.415  -0.400  0.00  0.00    +0.151 C 
ATOM      6  C   LIG    1       -0.158   2.203  -0.694  0.00  0.00    +0.041 C 
ATOM      7  O   LIG    1       -1.211   0.444   0.488  0.00  0.00    -0.346 OA
ENDROOT
BRANCH   3   8
ATOM      8  O   LIG    1       -2.923   3.786   2.006  0.00  0.00    -0.461 OA
BRANCH   8   9
ATOM      9  C   LIG    1       -2.760   5.135   2.302  0.00  0.00    +0.446 C 
ATOM     10  O   LIG    1       -1.659   5.661   1.944  0.00  0.00    -0.255 OA
ENDBRANCH   8   9
ENDBRANCH   3   8
BRANCH   4  11
ATOM     11  O   LIG    1       -3.694   1.957   0.041  0.00  0.00    -0.342 OA
BRANCH  11  12
ATOM     12  C   LIG    1       -4.433   2.213  -1.094  0.00  0.00    +0.255 C 
ATOM     13  C   LIG    1       -5.693   2.915  -0.804  0.00  0.00    +0.108 C 
ATOM     14  C   LIG    1       -6.885   2.108  -0.557  0.00  0.00    +0.212 C 
ATOM     15  C   LIG    1       -6.843   0.669  -0.911  0.00  0.00    +0.190 C 
ATOM     16  C   LIG    1       -5.447   0.149  -1.007  0.00  0.00    +0.151 C 
ATOM     17  C   LIG    1       -4.913  -0.095   0.374  0.00  0.00    +0.041 C 
ATOM     18  O   LIG    1       -4.620   0.987  -1.711  0.00  0.00    -0.346 OA
BRANCH  15  19
ATOM     19  O   LIG    1       -7.436   0.401  -2.165  0.00  0.00    -0.342 OA
BRANCH  19  20
ATOM     20  C   LIG    1       -8.524  -0.439  -2.001  0.00  0.00    +0.255 C 
ATOM     21  O   LIG    1       -8.134  -1.797  -2.279  0.00  0.00    -0.344 OA
ATOM     22  C   LIG    1       -8.942  -2.582  -1.464  0.00  0.00    +0.162 C 
ATOM     23  C   LIG    1       -8.598  -4.051  -1.617  0.00  0.00    +0.042 C 
ATOM     24  C   LIG    1      -10.385  -2.285  -1.720  0.00  0.00    +0.245 C 
ATOM     25  C   LIG    1      -10.522  -1.464  -2.970  0.00  0.00    +0.224 C 
ATOM     26  C   LIG    1       -9.748  -0.132  -2.788  0.00  0.00    +0.109 C 
BRANCH  24  27
ATOM     27  O   LIG    1      -10.956  -1.622  -0.602  0.00  0.00    -0.457 OA
BRANCH  27  28
ATOM     28  C   LIG    1      -11.995  -2.199   0.101  0.00  0.00    +0.446 C 
ATOM     29  O   LIG    1      -12.449  -3.322  -0.240  0.00  0.00    -0.255 OA
ENDBRANCH  27  28
ENDBRANCH  24  27
BRANCH  25  30
ATOM     30  O   LIG    1      -11.862  -1.102  -3.149  0.00  0.00    -0.460 OA
BRANCH  30  31
ATOM     31  C   LIG    1      -12.570  -1.391  -4.303  0.00  0.00    +0.446 C 
ATOM     32  O   LIG    1      -11.934  -2.007  -5.197  0.00  0.00    -0.255 OA
ENDBRANCH  30  31
ENDBRANCH  25  30
ENDBRANCH  19  20
ENDBRANCH  15  19
BRANCH  14  33
ATOM     33  O   LIG    1       -8.050   2.689  -1.198  0.00  0.00    -0.461 OA
BRANCH  33  34
ATOM     34  C   LIG    1       -9.110   3.051  -0.386  0.00  0.00    +0.446 C 
ATOM     35  O   LIG    1       -9.038   2.880   0.835  0.00  0.00    -0.255 OA
ENDBRANCH  33  34
ENDBRANCH  14  33
ENDBRANCH  11  12
ENDBRANCH   4  11
BRANCH   1  36
ATOM     36  O   LIG    1        0.659   0.869   1.543  0.00  0.00    -0.348 OA
BRANCH  36  43
ATOM     37  C   LIG    1        7.837  -0.504   1.436  0.00  0.00    +0.079 C 
ATOM     38  C   LIG    1        6.457   0.042   1.746  0.00  0.00    +0.025 C 
ATOM     39  C   LIG    1        5.969  -0.502   3.072  0.00  0.00    +0.007 C 
ATOM     40  C   LIG    1        4.776   0.346   3.429  0.00  0.00    +0.004 C 
ATOM     41  C   LIG    1        3.733   0.440   2.341  0.00  0.00    -0.002 C 
ATOM     42  C   LIG    1        2.416  -0.094   2.848  0.00  0.00    +0.035 C 
ATOM     43  C   LIG    1        1.374  -0.269   1.846  0.00  0.00    +0.122 C 
ATOM     44  C   LIG    1        1.833  -0.968   0.591  0.00  0.00    +0.032 C 
ATOM     45  C   LIG    1        3.275  -1.278   0.687  0.00  0.00    +0.010 C 
ATOM     46  C   LIG    1        4.082   0.010   0.991  0.00  0.00    -0.026 C 
ATOM     47  C   LIG    1        3.622   1.128   0.035  0.00  0.00    +0.012 C 
ATOM     48  C   LIG    1        5.484  -0.359   0.705  0.00  0.00    +0.001 C 
ATOM     49  C   LIG    1        5.969   0.036  -0.684  0.00  0.00    +0.005 C 
ATOM     50  C   LIG    1        7.240   0.857  -0.580  0.00  0.00    +0.010 C 
ATOM     51  C   LIG    1        7.918  -1.991   1.386  0.00  0.00    +0.080 C 
ATOM     52  C   LIG    1        8.124  -2.351  -0.063  0.00  0.00    +0.187 C 
ATOM     53  C   LIG    1        8.727  -1.108  -0.694  0.00  0.00    +0.068 C 
ATOM     54  C   LIG    1        8.327   0.064   0.129  0.00  0.00    +0.007 C 
ATOM     55  C   LIG    1        9.455   1.030   0.386  0.00  0.00    +0.015 C 
BRANCH  53  56
ATOM     56  C   LIG    1       10.157  -1.246  -0.999  0.00  0.00    -0.019 C 
ATOM     57  C   LIG    1       11.302  -1.560  -0.152  0.00  0.00    +0.264 C 
ATOM     58  O   LIG    1       12.462  -1.574  -0.956  0.00  0.00    -0.457 OA
ATOM     59  C   LIG    1       12.081  -1.278  -2.245  0.00  0.00    +0.332 C 
ATOM     60  O   LIG    1       12.811  -1.186  -3.262  0.00  0.00    -0.246 OA
ATOM     61  C   LIG    1       10.664  -1.084  -2.241  0.00  0.00    +0.094 C 
ENDBRANCH  53  56
BRANCH  37  62
ATOM     62  O   LIG    1        8.664  -0.051   2.464  0.00  0.00    -0.388 OA
ATOM     63  H   LIG    1        8.338   0.748   2.927  0.00  0.00    +0.210 HD
ENDBRANCH  37  62
BRANCH  52  64
ATOM     64  O   LIG    1        9.052  -3.432  -0.127  0.00  0.00    -0.463 OA
BRANCH  64  65
ATOM     65  C   LIG    1        8.722  -4.638  -0.739  0.00  0.00    +0.446 C 
ATOM     66  O   LIG    1        7.566  -4.711  -1.223  0.00  0.00    -0.255 OA
ENDBRANCH  64  65
ENDBRANCH  52  64
ENDBRANCH  36  43
ENDBRANCH   1  36
TORSDOF 18
