REMARK  Name = molecules/DOMWKUIIPQCAJU-LJHIYBGHSA-N.pdb
REMARK                            x       y       z     vdW  Elec       q    Type
REMARK                         _______ _______ _______ _____ _____    ______ ____
ROOT
ATOM      1  C   LIG    1       -4.360   1.284  -1.742  0.00  0.00    +0.019 C 
ATOM      2  C   LIG    1       -4.033   0.680  -0.362  0.00  0.00    -0.007 C 
ATOM      3  C   LIG    1       -4.104   1.853   0.596  0.00  0.00    +0.016 C 
ATOM      4  C   LIG    1       -5.010  -0.354  -0.029  0.00  0.00    -0.060 C 
ATOM      5  C   LIG    1       -4.683  -1.680   0.546  0.00  0.00    +0.032 C 
ATOM      6  C   LIG    1       -3.292  -2.128   0.193  0.00  0.00    +0.008 C 
ATOM      7  C   LIG    1       -2.344  -0.986   0.482  0.00  0.00    -0.003 C 
ATOM      8  C   LIG    1       -0.914  -1.360   0.242  0.00  0.00    +0.003 C 
ATOM      9  C   LIG    1       -0.394  -2.562   0.910  0.00  0.00    +0.009 C 
ATOM     10  C   LIG    1        1.118  -2.346   0.701  0.00  0.00    +0.057 C 
ATOM     11  C   LIG    1        1.303  -0.848   0.786  0.00  0.00    +0.176 C 
ATOM     12  C   LIG    1       -0.089  -0.243   0.829  0.00  0.00    +0.018 C 
ATOM     13  C   LIG    1       -0.505   0.156   2.211  0.00  0.00    +0.016 C 
ATOM     14  C   LIG    1       -0.256   0.936  -0.077  0.00  0.00    +0.011 C 
ATOM     15  C   LIG    1       -1.593   1.165  -0.632  0.00  0.00    +0.005 C 
ATOM     16  C   LIG    1       -6.292  -0.110  -0.247  0.00  0.00    +0.046 C 
ATOM     17  C   LIG    1       -6.660   1.182  -0.812  0.00  0.00    +0.156 C 
ATOM     18  O   LIG    1       -7.733   1.755  -0.463  0.00  0.00    -0.293 OA
ATOM     19  C   LIG    1       -2.640   0.114  -0.506  0.00  0.00    +0.002 C 
ATOM     20  C   LIG    1       -5.755   1.802  -1.796  0.00  0.00    +0.080 C 
ENDROOT
BRANCH  11  21
ATOM     21  C   LIG    1        2.004  -0.597   2.098  0.00  0.00    +0.174 C 
ATOM     22  O   LIG    1        1.563  -1.075   3.129  0.00  0.00    -0.293 OA
ATOM     23  C   LIG    1        3.236   0.224   2.219  0.00  0.00    +0.090 C 
ENDBRANCH  11  21
BRANCH  11  24
ATOM     24  O   LIG    1        2.008  -0.290  -0.286  0.00  0.00    -0.450 OA
BRANCH  24  25
ATOM     25  C   LIG    1        3.309  -0.647  -0.621  0.00  0.00    +0.308 C 
ATOM     26  O   LIG    1        3.836  -1.522   0.100  0.00  0.00    -0.251 OA
BRANCH  25  27
ATOM     27  C   LIG    1        4.008  -0.017  -1.766  0.00  0.00    +0.120 C 
BRANCH  27  28
ATOM     28  C   LIG    1        5.401  -0.507  -1.947  0.00  0.00    +0.011 C 
BRANCH  28  29
ATOM     29  C   LIG    1        6.300  -0.239  -0.762  0.00  0.00    +0.000 C 
BRANCH  29  30
ATOM     30  C   LIG    1        6.384   1.267  -0.494  0.00  0.00    -0.003 C 
ATOM     31  C   LIG    1        7.300   1.426   0.702  0.00  0.00    +0.004 C 
ENDBRANCH  29  30
ENDBRANCH  28  29
ENDBRANCH  27  28
ENDBRANCH  25  27
ENDBRANCH  24  25
ENDBRANCH  11  24
TORSDOF 7
