REMARK  Name = molecules/DOMXUEMWDBAQBQ-WEVVVXLNSA-N.pdb
REMARK                            x       y       z     vdW  Elec       q    Type
REMARK                         _______ _______ _______ _____ _____    ______ ____
ROOT
ATOM      1  C   LIG    1       -2.404  -0.641   0.111  0.00  0.00    +0.120 C 
ENDROOT
BRANCH   1  11
ATOM      2  C   LIG    1       -4.684   0.239   0.095  0.00  0.00    -0.013 A 
ATOM      3  C   LIG    1       -5.117  -0.954   0.601  0.00  0.00    +0.009 A 
ATOM      4  C   LIG    1       -6.461  -1.194   0.868  0.00  0.00    +0.001 A 
ATOM      5  C   LIG    1       -7.390  -0.211   0.621  0.00  0.00    +0.001 A 
ATOM      6  C   LIG    1       -6.957   0.989   0.112  0.00  0.00    +0.008 A 
ATOM      7  C   LIG    1       -5.611   1.229  -0.156  0.00  0.00    -0.018 A 
ATOM      8  C   LIG    1       -5.176   2.433  -0.667  0.00  0.00    +0.008 A 
ATOM      9  C   LIG    1       -3.843   2.627  -0.917  0.00  0.00    +0.001 A 
ATOM     10  C   LIG    1       -2.884   1.648  -0.675  0.00  0.00    +0.005 A 
ATOM     11  C   LIG    1       -3.336   0.452  -0.164  0.00  0.00    -0.026 A 
ENDBRANCH   1  11
BRANCH   1  12
ATOM     12  N   LIG    1       -1.006  -0.309  -0.170  0.00  0.00    -0.298 NA
ATOM     13  C   LIG    1       -0.501   0.651   0.801  0.00  0.00    +0.105 C 
BRANCH  12  14
ATOM     14  C   LIG    1       -0.174  -1.509   0.044  0.00  0.00    +0.112 C 
BRANCH  14  15
ATOM     15  C   LIG    1        1.229  -1.162  -0.242  0.00  0.00    -0.003 C 
ATOM     16  C   LIG    1        2.192  -1.262   0.657  0.00  0.00    +0.057 C 
BRANCH  16  17
ATOM     17  C   LIG    1        3.561  -0.931   0.403  0.00  0.00    -0.074 C 
ATOM     18  C   LIG    1        4.707  -0.637   0.177  0.00  0.00    -0.092 C 
BRANCH  18  19
ATOM     19  C   LIG    1        6.096  -0.254  -0.102  0.00  0.00    +0.024 C 
ATOM     20  C   LIG    1        6.977  -0.950   0.884  0.00  0.00    +0.024 C 
ATOM     21  C   LIG    1        6.233   1.247   0.149  0.00  0.00    +0.024 C 
ATOM     22  C   LIG    1        6.508  -0.626  -1.500  0.00  0.00    +0.024 C 
ENDBRANCH  18  19
ENDBRANCH  16  17
ENDBRANCH  14  15
ENDBRANCH  12  14
ENDBRANCH   1  12
TORSDOF 6
