REMARK  Name = molecules/DOTIMEKVTCOGED-UHFFFAOYSA-N.pdb
REMARK                            x       y       z     vdW  Elec       q    Type
REMARK                         _______ _______ _______ _____ _____    ______ ____
ROOT
ATOM      1  N   LIG    1        2.195   0.258  -0.135  0.00  0.00    -0.327 N 
ATOM      2  C   LIG    1        1.425  -0.882   0.274  0.00  0.00    +0.120 C 
ATOM      3  C   LIG    1        0.006  -0.375   0.576  0.00  0.00    +0.103 C 
ATOM      4  N   LIG    1       -0.611   0.093  -0.612  0.00  0.00    -0.299 NA
ATOM      5  C   LIG    1        0.236   0.932  -1.427  0.00  0.00    +0.103 C 
ATOM      6  C   LIG    1        1.526   1.345  -0.776  0.00  0.00    +0.120 C 
ENDROOT
BRANCH   1   8
ATOM      7  C   LIG    1        4.272   1.509  -0.150  0.00  0.00    +0.023 A 
ATOM      8  C   LIG    1        3.588   0.310   0.073  0.00  0.00    +0.031 A 
ATOM      9  C   LIG    1        4.264  -0.834   0.484  0.00  0.00    +0.043 A 
ATOM     10  C   LIG    1        5.627  -0.773   0.669  0.00  0.00    +0.043 A 
ATOM     11 CL   LIG    1        6.510  -2.202   1.181  0.00  0.00    -0.083 Cl
ATOM     12  C   LIG    1        6.326   0.405   0.452  0.00  0.00    +0.020 A 
ATOM     13  C   LIG    1        5.632   1.540   0.042  0.00  0.00    +0.003 A 
ENDBRANCH   1   8
BRANCH   4  14
ATOM     14  C   LIG    1       -1.264  -0.885  -1.426  0.00  0.00    +0.090 C 
BRANCH  14  15
ATOM     15  C   LIG    1       -2.290  -1.723  -0.734  0.00  0.00    +0.072 C 
BRANCH  15  16
ATOM     16  C   LIG    1       -3.376  -0.854  -0.166  0.00  0.00    +0.064 A 
ATOM     17  C   LIG    1       -4.526  -1.230   0.489  0.00  0.00    +0.047 A 
ATOM     18  C   LIG    1       -5.258  -0.097   0.827  0.00  0.00    +0.033 A 
ATOM     19  C   LIG    1       -6.559   0.016   1.530  0.00  0.00    +0.065 C 
ATOM     20  N   LIG    1       -4.516   0.945   0.359  0.00  0.00    -0.282 N 
ATOM     21  H   LIG    1       -4.842   1.942   0.480  0.00  0.00    +0.189 HD
ATOM     22  N   LIG    1       -3.418   0.505  -0.221  0.00  0.00    -0.179 NA
ENDBRANCH  15  16
ENDBRANCH  14  15
ENDBRANCH   4  14
TORSDOF 4
