REMARK  Name = molecules/DOUYETYNHWVLEO-UHFFFAOYSA-N.pdb
REMARK                            x       y       z     vdW  Elec       q    Type
REMARK                         _______ _______ _______ _____ _____    ______ ____
ROOT
ATOM      1  N   LIG    1       -0.451   0.658  -0.840  0.00  0.00    -0.329 N 
ATOM      2  C   LIG    1        0.773   0.480  -0.379  0.00  0.00    +0.081 A 
ATOM      3  C   LIG    1        1.402  -0.623   0.186  0.00  0.00    +0.026 A 
ATOM      4  C   LIG    1        2.739  -0.504   0.580  0.00  0.00    +0.075 A 
ATOM      5  C   LIG    1        3.347  -1.626   1.150  0.00  0.00    +0.028 A 
ATOM      6  C   LIG    1        2.635  -2.789   1.306  0.00  0.00    +0.002 A 
ATOM      7  C   LIG    1        1.341  -2.920   0.931  0.00  0.00    +0.001 A 
ATOM      8  N   LIG    1        3.444   0.636   0.438  0.00  0.00    -0.230 NA
ATOM      9  C   LIG    1        2.821   1.683  -0.103  0.00  0.00    +0.145 A 
ATOM     10  C   LIG    1        0.714  -1.799   0.355  0.00  0.00    +0.012 A 
ATOM     11  C   LIG    1        1.502   1.637  -0.516  0.00  0.00    +0.129 A 
ATOM     12  N   LIG    1        0.696   2.561  -1.082  0.00  0.00    -0.232 NA
ATOM     13  C   LIG    1       -0.464   1.966  -1.270  0.00  0.00    +0.200 A 
ENDROOT
BRANCH   9  14
ATOM     14  N   LIG    1        3.538   2.897  -0.264  0.00  0.00    -0.341 N 
ATOM     15  H   LIG    1        3.914   3.355   0.589  0.00  0.00    +0.144 HD
ATOM     16  H   LIG    1        3.707   3.349  -1.175  0.00  0.00    +0.144 HD
ENDBRANCH   9  14
BRANCH   1  17
ATOM     17  C   LIG    1       -1.600  -0.164  -0.989  0.00  0.00    +0.126 C 
BRANCH  17  18
ATOM     18  C   LIG    1       -2.499  -0.185   0.229  0.00  0.00    +0.003 C 
ATOM     19  C   LIG    1       -2.989   1.219   0.523  0.00  0.00    +0.009 C 
ATOM     20  C   LIG    1       -3.743  -0.982  -0.182  0.00  0.00    +0.009 C 
ENDBRANCH  17  18
ENDBRANCH   1  17
TORSDOF 3
