REMARK  Name = molecules/DPNGIIPSQYKWQA-AVGNSLFASA-N.pdb
REMARK                            x       y       z     vdW  Elec       q    Type
REMARK                         _______ _______ _______ _____ _____    ______ ____
ROOT
ATOM      1  C   LIG    1       -0.575   0.322   0.625  0.00  0.00    +0.159 C 
ENDROOT
BRANCH   1   2
ATOM      2  C   LIG    1       -1.375  -0.909   0.477  0.00  0.00    +0.237 C 
ATOM      3  O   LIG    1       -0.725  -1.990   0.436  0.00  0.00    -0.274 OA
ATOM      4  N   LIG    1       -2.769  -0.888   0.387  0.00  0.00    -0.288 N 
ATOM      5  C   LIG    1       -3.528   0.366   0.654  0.00  0.00    +0.109 C 
ATOM      6  C   LIG    1       -4.748   0.286  -0.191  0.00  0.00    +0.021 C 
ATOM      7  C   LIG    1       -4.636  -1.043  -0.891  0.00  0.00    +0.033 C 
ATOM      8  C   LIG    1       -3.810  -1.827   0.160  0.00  0.00    +0.162 C 
BRANCH   8   9
ATOM      9  C   LIG    1       -3.508  -3.157  -0.304  0.00  0.00    +0.231 C 
ATOM     10  N   LIG    1       -4.531  -4.129  -0.411  0.00  0.00    -0.328 N 
ATOM     11  H   LIG    1       -5.221  -4.226   0.343  0.00  0.00    +0.145 HD
ATOM     12  H   LIG    1       -4.574  -4.730  -1.244  0.00  0.00    +0.145 HD
ATOM     13  O   LIG    1       -2.364  -3.520  -0.629  0.00  0.00    -0.274 OA
ENDBRANCH   8   9
ENDBRANCH   1   2
BRANCH   1  14
ATOM     14  N   LIG    1        0.813   0.014   0.962  0.00  0.00    -0.302 N 
ATOM     15  H   LIG    1        1.179   0.415   1.878  0.00  0.00    +0.150 HD
ATOM     16  C   LIG    1        1.690  -0.751   0.194  0.00  0.00    +0.234 C 
ATOM     17  O   LIG    1        1.401  -1.282  -0.898  0.00  0.00    -0.274 OA
BRANCH  16  18
ATOM     18  C   LIG    1        3.085  -0.975   0.685  0.00  0.00    +0.159 C 
ATOM     19  C   LIG    1        3.808   0.288   1.016  0.00  0.00    +0.032 C 
ATOM     20  C   LIG    1        4.753   0.740  -0.101  0.00  0.00    +0.011 C 
ATOM     21  C   LIG    1        5.872  -0.290  -0.252  0.00  0.00    +0.096 C 
ATOM     22  C   LIG    1        5.250  -1.631  -0.325  0.00  0.00    +0.214 C 
ATOM     23  O   LIG    1        6.023  -2.621  -0.497  0.00  0.00    -0.276 OA
ATOM     24  N   LIG    1        3.855  -1.774  -0.205  0.00  0.00    -0.304 N 
ATOM     25  H   LIG    1        3.353  -2.501  -0.792  0.00  0.00    +0.149 HD
ENDBRANCH  16  18
ENDBRANCH   1  14
BRANCH   1  26
ATOM     26  C   LIG    1       -0.472   1.113  -0.667  0.00  0.00    +0.034 C 
BRANCH  26  27
ATOM     27  C   LIG    1        0.368   2.352  -0.350  0.00  0.00    -0.015 C 
ATOM     28  C   LIG    1       -0.256   3.195   0.717  0.00  0.00    +0.007 C 
ATOM     29  C   LIG    1        0.520   3.206  -1.599  0.00  0.00    +0.007 C 
ENDBRANCH  26  27
ENDBRANCH   1  26
TORSDOF 6
