REMARK  Name = molecules/DPSPPJIUMHPXMA-ZETCQYMHSA-N.pdb
REMARK                            x       y       z     vdW  Elec       q    Type
REMARK                         _______ _______ _______ _____ _____    ______ ____
ROOT
ATOM      1  O   LIG    1        3.429  -0.331  -1.185  0.00  0.00    -0.286 OA
ATOM      2  C   LIG    1        2.288  -0.063  -0.745  0.00  0.00    +0.203 A 
ATOM      3  C   LIG    1        1.417  -1.076  -0.394  0.00  0.00    +0.049 A 
ATOM      4  C   LIG    1        0.134  -0.813   0.101  0.00  0.00    +0.056 A 
ATOM      5  C   LIG    1       -0.730  -1.823   0.450  0.00  0.00    -0.020 A 
ATOM      6  C   LIG    1       -2.068  -1.476   0.978  0.00  0.00    +0.039 C 
ATOM      7  C   LIG    1       -2.511  -0.181   0.387  0.00  0.00    +0.029 C 
ATOM      8  C   LIG    1       -1.483   0.887   0.692  0.00  0.00    +0.085 C 
ATOM      9  C   LIG    1       -1.958   2.191   0.109  0.00  0.00    +0.031 C 
ATOM     10  C   LIG    1       -0.356  -3.173   0.322  0.00  0.00    +0.044 A 
ATOM     11  C   LIG    1        0.906  -3.436  -0.165  0.00  0.00    +0.124 A 
ATOM     12  F   LIG    1        1.269  -4.754  -0.289  0.00  0.00    -0.205 F 
ATOM     13  N   LIG    1       -0.173   0.495   0.202  0.00  0.00    -0.343 N 
ATOM     14  C   LIG    1        0.663   1.494  -0.136  0.00  0.00    +0.105 A 
ATOM     15  C   LIG    1        1.758  -2.407  -0.509  0.00  0.00    +0.052 A 
ATOM     16  C   LIG    1        1.927   1.258  -0.623  0.00  0.00    +0.122 A 
ENDROOT
BRANCH  16  17
ATOM     17  C   LIG    1        2.813   2.357  -0.981  0.00  0.00    +0.342 C 
ATOM     18  O   LIG    1        3.977   2.166  -1.430  0.00  0.00    -0.245 OA
BRANCH  17  19
ATOM     19  O   LIG    1        2.425   3.683  -0.848  0.00  0.00    -0.477 OA
ATOM     20  H   LIG    1        2.884   4.324  -0.210  0.00  0.00    +0.295 HD
ENDBRANCH  17  19
ENDBRANCH  16  17
TORSDOF 2
