REMARK  Name = molecules/DPYMFVXJLLWWEU-PVQJCKRUSA-N.pdb
REMARK                            x       y       z     vdW  Elec       q    Type
REMARK                         _______ _______ _______ _____ _____    ______ ____
ROOT
ATOM      1  C   LIG    1        0.347   0.546  -0.301  0.00  0.00    +0.406 C 
ATOM      2  F   LIG    1        0.584   1.915  -0.296  0.00  0.00    -0.205 F 
ENDROOT
BRANCH   1   3
ATOM      3  C   LIG    1        1.638  -0.239  -0.311  0.00  0.00    +0.446 C 
ATOM      4  F   LIG    1        2.411  -0.013   0.797  0.00  0.00    -0.165 F 
ATOM      5  F   LIG    1        1.315  -1.576  -0.353  0.00  0.00    -0.165 F 
ATOM      6  F   LIG    1        2.292   0.098  -1.494  0.00  0.00    -0.165 F 
ENDBRANCH   1   3
BRANCH   1   7
ATOM      7  O   LIG    1       -0.458   0.260   0.768  0.00  0.00    -0.280 OA
BRANCH   7   8
ATOM      8  C   LIG    1       -1.681  -0.217   0.307  0.00  0.00    +0.485 C 
ATOM      9  F   LIG    1       -1.866  -1.494   0.758  0.00  0.00    -0.178 F 
ATOM     10  F   LIG    1       -2.673   0.651   0.728  0.00  0.00    -0.178 F 
ENDBRANCH   7   8
ENDBRANCH   1   7
TORSDOF 3
