REMARK  Name = molecules/DQCKKXVULJGBQN-XFWGSAIBSA-N.pdb
REMARK                            x       y       z     vdW  Elec       q    Type
REMARK                         _______ _______ _______ _____ _____    ______ ____
ROOT
ATOM      1  C   LIG    1       -0.151  -1.124  -0.226  0.00  0.00    +0.096 C 
ATOM      2  C   LIG    1       -1.109  -0.606   0.781  0.00  0.00    +0.075 C 
ATOM      3  C   LIG    1       -0.447  -0.288   2.069  0.00  0.00    +0.034 C 
ATOM      4  C   LIG    1        1.020  -0.420   2.096  0.00  0.00    +0.086 C 
ATOM      5  N   LIG    1        1.725  -0.029   0.903  0.00  0.00    -0.296 NA
ATOM      6  C   LIG    1       -2.392  -1.391   0.919  0.00  0.00    +0.252 C 
ATOM      7  O   LIG    1       -3.323  -0.348   1.320  0.00  0.00    -0.476 OA
ATOM      8  C   LIG    1       -2.982   0.790   0.588  0.00  0.00    +0.167 A 
ATOM      9  C   LIG    1       -3.606   1.940   0.152  0.00  0.00    +0.159 A 
ATOM     10  C   LIG    1       -2.901   2.880  -0.592  0.00  0.00    +0.049 A 
ATOM     11  C   LIG    1       -1.571   2.690  -0.910  0.00  0.00    +0.008 A 
ATOM     12  C   LIG    1       -0.925   1.546  -0.483  0.00  0.00    -0.038 A 
ATOM     13  C   LIG    1        0.479   1.251  -0.778  0.00  0.00    +0.057 C 
ATOM     14  C   LIG    1       -2.816  -1.980  -0.372  0.00  0.00    +0.175 C 
ATOM     15  O   LIG    1       -3.878  -2.578  -0.385  0.00  0.00    -0.293 OA
ATOM     16  C   LIG    1       -2.072  -1.907  -1.641  0.00  0.00    +0.081 C 
ATOM     17  C   LIG    1       -1.663   0.665   0.238  0.00  0.00    +0.014 A 
ATOM     18  C   LIG    1        0.978  -0.079  -0.305  0.00  0.00    +0.094 C 
ATOM     19  C   LIG    1       -0.725  -1.291  -1.588  0.00  0.00    +0.045 C 
ENDROOT
BRANCH   1  20
ATOM     20  O   LIG    1        0.403  -2.303   0.230  0.00  0.00    -0.386 OA
ATOM     21  H   LIG    1       -0.283  -2.917   0.632  0.00  0.00    +0.210 HD
ENDBRANCH   1  20
BRANCH   9  22
ATOM     22  O   LIG    1       -4.939   2.125   0.477  0.00  0.00    -0.503 OA
ATOM     23  H   LIG    1       -5.480   2.929   0.186  0.00  0.00    +0.292 HD
ENDBRANCH   9  22
BRANCH   5  24
ATOM     24  C   LIG    1        2.909  -0.825   0.846  0.00  0.00    +0.088 C 
BRANCH  24  25
ATOM     25  C   LIG    1        4.022  -0.384  -0.018  0.00  0.00    +0.003 C 
ATOM     26  C   LIG    1        4.702   0.927   0.184  0.00  0.00    +0.005 C 
ATOM     27  C   LIG    1        3.997   0.569  -1.116  0.00  0.00    +0.005 C 
ENDBRANCH  24  25
ENDBRANCH   5  24
TORSDOF 4
