REMARK  Name = molecules/DQKXQSGTHWVTAD-UHFFFAOYSA-N.pdb
REMARK                            x       y       z     vdW  Elec       q    Type
REMARK                         _______ _______ _______ _____ _____    ______ ____
ROOT
ATOM      1  C   LIG    1        0.493   0.552  -0.404  0.00  0.00    +0.121 A 
ATOM      2  C   LIG    1        1.400  -0.369   0.056  0.00  0.00    +0.049 A 
ATOM      3  C   LIG    1        2.668   0.024   0.500  0.00  0.00    +0.049 A 
ATOM      4  C   LIG    1        3.074   1.335   0.500  0.00  0.00    +0.121 A 
ATOM      5  C   LIG    1        2.128   2.268   0.025  0.00  0.00    +0.049 A 
ATOM      6  C   LIG    1        0.897   1.869  -0.404  0.00  0.00    +0.049 A 
ENDROOT
BRANCH   1   7
ATOM      7  O   LIG    1       -0.775   0.176  -0.850  0.00  0.00    -0.492 OA
BRANCH   7   8
ATOM      8  C   LIG    1       -1.674   1.163  -1.314  0.00  0.00    +0.230 C 
BRANCH   8   9
ATOM      9  C   LIG    1       -2.960   0.439  -1.726  0.00  0.00    +0.056 C 
BRANCH   9  10
ATOM     10  C   LIG    1       -3.460  -0.255  -0.475  0.00  0.00    +0.088 C 
BRANCH  10  11
ATOM     11  N   LIG    1       -4.685  -0.985  -0.734  0.00  0.00    -0.298 NA
ATOM     12  C   LIG    1       -5.066  -1.605   0.521  0.00  0.00    +0.112 C 
ATOM     13  C   LIG    1       -6.286  -2.441   0.292  0.00  0.00    +0.175 C 
ATOM     14  O   LIG    1       -7.346  -1.730  -0.247  0.00  0.00    -0.377 OA
ATOM     15  C   LIG    1       -7.017  -0.943  -1.312  0.00  0.00    +0.175 C 
ATOM     16  C   LIG    1       -5.759  -0.144  -1.156  0.00  0.00    +0.112 C 
ENDBRANCH  10  11
ENDBRANCH   9  10
ENDBRANCH   8   9
ENDBRANCH   7   8
ENDBRANCH   1   7
BRANCH   4  17
ATOM     17  O   LIG    1        4.305   1.795   0.913  0.00  0.00    -0.492 OA
BRANCH  17  18
ATOM     18  C   LIG    1        5.331   0.976   1.343  0.00  0.00    +0.229 C 
BRANCH  18  19
ATOM     19  C   LIG    1        5.849   0.134   0.207  0.00  0.00    +0.041 C 
BRANCH  19  20
ATOM     20  C   LIG    1        6.947  -0.747   0.805  0.00  0.00    -0.000 C 
ATOM     21  C   LIG    1        8.005   0.174   1.363  0.00  0.00    +0.004 C 
ENDBRANCH  19  20
ENDBRANCH  18  19
ENDBRANCH  17  18
ENDBRANCH   4  17
TORSDOF 9
