REMARK  Name = molecules/DQNIWUUHJSXGHW-UHFFFAOYSA-N.pdb
REMARK                            x       y       z     vdW  Elec       q    Type
REMARK                         _______ _______ _______ _____ _____    ______ ____
ROOT
ATOM      1  C   LIG    1       -3.185   0.404   0.170  0.00  0.00    +0.009 A 
ATOM      2  C   LIG    1       -1.967  -0.158   0.089  0.00  0.00    +0.017 A 
ATOM      3  C   LIG    1       -0.776   0.478  -0.298  0.00  0.00    -0.017 A 
ATOM      4  C   LIG    1       -0.918   1.819  -0.641  0.00  0.00    +0.016 A 
ATOM      5  C   LIG    1       -2.157   2.453  -0.570  0.00  0.00    -0.001 A 
ATOM      6  C   LIG    1       -3.271   1.788  -0.172  0.00  0.00    +0.125 A 
ENDROOT
BRANCH   3   7
ATOM      7  C   LIG    1        0.545  -0.061   0.103  0.00  0.00    -0.017 A 
ATOM      8  C   LIG    1        0.641  -0.212   1.527  0.00  0.00    +0.016 A 
ATOM      9  C   LIG    1        1.829  -0.499   2.096  0.00  0.00    -0.001 A 
ATOM     10  C   LIG    1        2.913  -0.658   1.306  0.00  0.00    +0.125 A 
ATOM     11  C   LIG    1        2.880  -0.524  -0.102  0.00  0.00    +0.009 A 
ATOM     12  C   LIG    1        1.660  -0.215  -0.641  0.00  0.00    +0.017 A 
BRANCH  10  13
ATOM     13  O   LIG    1        4.204  -0.980   1.833  0.00  0.00    -0.506 OA
ATOM     14  H   LIG    1        4.439  -1.090   2.756  0.00  0.00    +0.292 HD
ENDBRANCH  10  13
BRANCH   9  15
ATOM     15  C   LIG    1        2.138  -0.497   3.558  0.00  0.00    +0.065 C 
BRANCH  15  16
ATOM     16  C   LIG    1        1.102  -0.397   4.508  0.00  0.00    -0.030 C 
ATOM     17  C   LIG    1        1.032  -1.299   5.524  0.00  0.00    +0.004 C 
ENDBRANCH  15  16
ENDBRANCH   9  15
BRANCH  11  18
ATOM     18  C   LIG    1        4.062  -1.058  -0.740  0.00  0.00    +0.123 C 
BRANCH  18  19
ATOM     19  N   LIG    1        4.998  -0.338  -1.437  0.00  0.00    -0.299 NA
BRANCH  19  20
ATOM     20  C   LIG    1        6.256  -1.179  -1.517  0.00  0.00    +0.081 C 
ATOM     21  C   LIG    1        6.107  -2.365  -2.390  0.00  0.00    +0.020 C 
ENDBRANCH  19  20
BRANCH  19  22
ATOM     22  C   LIG    1        4.875   0.447  -2.563  0.00  0.00    +0.081 C 
ATOM     23  C   LIG    1        6.246   1.120  -2.754  0.00  0.00    +0.020 C 
ENDBRANCH  19  22
ENDBRANCH  18  19
ENDBRANCH  11  18
ENDBRANCH   3   7
BRANCH   6  24
ATOM     24  O   LIG    1       -4.484   2.357  -0.086  0.00  0.00    -0.506 OA
ATOM     25  H   LIG    1       -4.766   3.245  -0.300  0.00  0.00    +0.292 HD
ENDBRANCH   6  24
BRANCH   1  26
ATOM     26  C   LIG    1       -4.471  -0.230   0.623  0.00  0.00    +0.123 C 
BRANCH  26  27
ATOM     27  N   LIG    1       -5.074  -0.839  -0.459  0.00  0.00    -0.299 NA
BRANCH  27  28
ATOM     28  C   LIG    1       -6.558  -0.815  -0.338  0.00  0.00    +0.081 C 
ATOM     29  C   LIG    1       -7.071  -1.794   0.697  0.00  0.00    +0.020 C 
ENDBRANCH  27  28
BRANCH  27  30
ATOM     30  C   LIG    1       -4.654  -1.750  -1.374  0.00  0.00    +0.081 C 
ATOM     31  C   LIG    1       -4.460  -3.194  -1.133  0.00  0.00    +0.020 C 
ENDBRANCH  27  30
ENDBRANCH  26  27
ENDBRANCH   1  26
BRANCH   5  32
ATOM     32  C   LIG    1       -2.211   3.979  -0.751  0.00  0.00    +0.065 C 
BRANCH  32  33
ATOM     33  C   LIG    1       -1.097   4.583   0.067  0.00  0.00    -0.030 C 
ATOM     34  C   LIG    1       -0.554   5.708   0.114  0.00  0.00    +0.004 C 
ENDBRANCH  32  33
ENDBRANCH   5  32
TORSDOF 15
