REMARK  Name = molecules/DRHKJLXJIQTDTD-OAHLLOKOSA-N.pdb
REMARK                            x       y       z     vdW  Elec       q    Type
REMARK                         _______ _______ _______ _____ _____    ______ ____
ROOT
ATOM      1  C   LIG    1       -0.958  -1.065  -0.209  0.00  0.00    +0.055 C 
ATOM      2  C   LIG    1       -1.269  -1.279   1.214  0.00  0.00    +0.024 C 
ENDROOT
BRANCH   1   3
ATOM      3  N   LIG    1        0.194  -1.860  -0.753  0.00  0.00    -0.310 NA
ATOM      4  H   LIG    1        0.241  -1.552  -1.819  0.00  0.00    +0.122 HD
BRANCH   3   5
ATOM      5  C   LIG    1        1.390  -1.529  -0.111  0.00  0.00    +0.122 C 
BRANCH   5   6
ATOM      6  C   LIG    1        2.594  -1.196   0.538  0.00  0.00    +0.244 C 
BRANCH   6   7
ATOM      7  O   LIG    1        3.387  -0.360  -0.362  0.00  0.00    -0.487 OA
BRANCH   7   8
ATOM      8  C   LIG    1        4.774  -0.100   0.053  0.00  0.00    +0.162 A 
ATOM      9  C   LIG    1        5.134  -1.219   0.790  0.00  0.00    +0.049 A 
ATOM     10  C   LIG    1        6.352  -1.461   1.468  0.00  0.00    +0.004 A 
ATOM     11  C   LIG    1        7.217  -0.624   1.453  0.00  0.00    +0.004 A 
ATOM     12  C   LIG    1        6.899   0.696   0.611  0.00  0.00    +0.049 A 
ATOM     13  C   LIG    1        5.672   0.747   0.002  0.00  0.00    +0.162 A 
BRANCH  13  14
ATOM     14  O   LIG    1        5.437   1.912  -0.868  0.00  0.00    -0.489 OA
BRANCH  14  15
ATOM     15  C   LIG    1        6.446   2.832  -1.028  0.00  0.00    +0.226 C 
ATOM     16  C   LIG    1        5.968   4.040  -1.808  0.00  0.00    +0.048 C 
ENDBRANCH  14  15
ENDBRANCH  13  14
ENDBRANCH   7   8
ENDBRANCH   6   7
ENDBRANCH   5   6
ENDBRANCH   3   5
ENDBRANCH   1   3
BRANCH   1  17
ATOM     17  C   LIG    1       -2.112  -1.239  -1.125  0.00  0.00    +0.053 C 
BRANCH  17  22
ATOM     18  C   LIG    1       -5.725  -0.542  -0.196  0.00  0.00    +0.147 A 
ATOM     19  C   LIG    1       -5.472   0.507   0.688  0.00  0.00    +0.146 A 
ATOM     20  C   LIG    1       -4.167   1.010   0.902  0.00  0.00    +0.048 A 
ATOM     21  C   LIG    1       -3.129   0.500   0.259  0.00  0.00    +0.007 A 
ATOM     22  C   LIG    1       -3.309  -0.570  -0.645  0.00  0.00    -0.044 A 
ATOM     23  C   LIG    1       -4.566  -1.028  -0.825  0.00  0.00    +0.036 A 
BRANCH  18  24
ATOM     24  S   LIG    1       -7.337  -1.005  -0.566  0.00  0.00    +0.059 S 
ATOM     25  O   LIG    1       -8.040  -1.330   0.715  0.00  0.00    -0.153 OA
ATOM     26  O   LIG    1       -8.018   0.224  -1.144  0.00  0.00    -0.153 OA
BRANCH  24  27
ATOM     27  N   LIG    1       -7.530  -2.283  -1.681  0.00  0.00    -0.203 NA
ATOM     28  H   LIG    1       -6.805  -2.978  -1.552  0.00  0.00    +0.144 HD
ATOM     29  H   LIG    1       -7.493  -1.835  -2.661  0.00  0.00    +0.144 HD
ENDBRANCH  24  27
ENDBRANCH  18  24
BRANCH  19  30
ATOM     30  O   LIG    1       -6.450   1.126   1.431  0.00  0.00    -0.493 OA
ATOM     31  C   LIG    1       -6.784   2.139   2.246  0.00  0.00    +0.277 C 
ENDBRANCH  19  30
ENDBRANCH  17  22
ENDBRANCH   1  17
TORSDOF 12
