REMARK  Name = molecules/drugCentral.pdb
REMARK                            x       y       z     vdW  Elec       q    Type
REMARK                         _______ _______ _______ _____ _____    ______ ____
ROOT
ATOM      1  C   LIG    1       -0.002  -3.212   0.000  0.00  0.00    +0.231 C 
ATOM      2  N   LIG    1       -0.002  -2.387   0.000  0.00  0.00    -0.179 NA
ATOM      3  C   LIG    1       -0.714  -1.973   0.000  0.00  0.00    +0.069 A 
ATOM      4  C   LIG    1       -0.714  -1.148   0.000  0.00  0.00    -0.007 A 
ATOM      5  C   LIG    1       -0.002  -0.737   0.000  0.00  0.00    +0.032 C 
ATOM      6  C   LIG    1       -1.431  -0.737   0.000  0.00  0.00    -0.003 A 
ATOM      7  C   LIG    1       -2.143  -1.148   0.000  0.00  0.00    -0.000 A 
ATOM      8  C   LIG    1       -2.143  -1.973   0.000  0.00  0.00    +0.000 A 
ATOM      9  C   LIG    1       -1.431  -2.387   0.000  0.00  0.00    +0.032 A 
ATOM     10  C   LIG    1       -1.431  -3.212   0.000  0.00  0.00    +0.191 C 
ATOM     11  C   LIG    1       -2.145  -4.448   0.000  0.00  0.00    +0.053 C 
ATOM     12  C   LIG    1       -1.431  -4.862   0.000  0.00  0.00    +0.032 C 
ATOM     13  C   LIG    1       -0.717  -4.448   0.000  0.00  0.00    -0.007 C 
ATOM     14  C   LIG    1       -0.002  -4.862   0.000  0.00  0.00    +0.076 C 
ATOM     15  N   LIG    1        0.712  -4.448   0.000  0.00  0.00    -0.300 N 
ATOM     16  C   LIG    1        1.427  -4.862   0.000  0.00  0.00    +0.080 A 
ATOM     17  C   LIG    1        2.143  -4.448   0.000  0.00  0.00    +0.019 A 
ATOM     18  C   LIG    1        2.143  -3.623   0.000  0.00  0.00    +0.003 A 
ATOM     19  C   LIG    1        1.427  -3.212   0.000  0.00  0.00    +0.022 A 
ATOM     20  O   LIG    1       -0.717  -3.623   0.000  0.00  0.00    -0.460 OA
ATOM     21  C   LIG    1        0.712  -3.623   0.000  0.00  0.00    +0.115 A 
ENDROOT
TORSDOF 0
