REMARK  Name = molecules/DSSYKIVIOFKYAU-XCBNKYQSSA-N.pdb
REMARK                            x       y       z     vdW  Elec       q    Type
REMARK                         _______ _______ _______ _____ _____    ______ ____
ROOT
ATOM      1  C   LIG    1        1.804  -0.170  -0.779  0.00  0.00    +0.012 C 
ATOM      2  C   LIG    1        0.526  -0.556  -0.132  0.00  0.00    -0.020 C 
ATOM      3  C   LIG    1        0.629  -1.732   0.784  0.00  0.00    +0.012 C 
ATOM      4  C   LIG    1       -0.126   0.613   0.625  0.00  0.00    +0.032 C 
ATOM      5  C   LIG    1        0.665   1.151   1.716  0.00  0.00    +0.019 C 
ATOM      6  C   LIG    1       -1.419  -0.031   1.002  0.00  0.00    +0.140 C 
ATOM      7  O   LIG    1       -1.985   0.080   2.050  0.00  0.00    -0.297 OA
ATOM      8  C   LIG    1       -1.799  -0.818  -0.230  0.00  0.00    +0.079 C 
ATOM      9  C   LIG    1       -0.427   1.537  -0.523  0.00  0.00    +0.015 C 
ATOM     10  C   LIG    1       -0.626   0.667  -1.755  0.00  0.00    +0.005 C 
ATOM     11  C   LIG    1       -0.619  -0.721  -1.146  0.00  0.00    +0.003 C 
ENDROOT
TORSDOF 0
