REMARK  Name = molecules/DTVJXCOMJLLMAK-UHFFFAOYSA-N.pdb
REMARK                            x       y       z     vdW  Elec       q    Type
REMARK                         _______ _______ _______ _____ _____    ______ ____
ROOT
ATOM      1  C   LIG    1       -2.624   0.125  -0.807  0.00  0.00    +0.413 C 
ATOM      2  N   LIG    1       -3.939   0.139  -0.279  0.00  0.00    -0.188 N 
ATOM      3  C   LIG    1       -4.549   1.341   0.137  0.00  0.00    +0.060 A 
ATOM      4  C   LIG    1       -5.823   1.440   0.667  0.00  0.00    +0.035 A 
ATOM      5  C   LIG    1       -6.370   2.641   1.054  0.00  0.00    +0.017 A 
ATOM      6  C   LIG    1       -5.711   3.837   0.950  0.00  0.00    +0.001 A 
ATOM      7  C   LIG    1       -4.448   3.776   0.429  0.00  0.00    +0.002 A 
ATOM      8  S   LIG    1       -6.801  -0.039   0.862  0.00  0.00    -0.084 S 
ATOM      9  C   LIG    1       -5.829  -1.387   0.272  0.00  0.00    +0.053 A 
ATOM     10  C   LIG    1       -6.353  -2.649   0.303  0.00  0.00    +0.020 A 
ATOM     11  C   LIG    1       -5.649  -3.755  -0.142  0.00  0.00    +0.021 A 
ATOM     12  C   LIG    1       -4.383  -3.488  -0.617  0.00  0.00    +0.113 A 
ATOM     13  N   LIG    1       -3.901  -2.247  -0.634  0.00  0.00    -0.238 NA
ATOM     14  C   LIG    1       -3.882   2.565   0.034  0.00  0.00    +0.025 A 
ATOM     15  C   LIG    1       -4.578  -1.151  -0.202  0.00  0.00    +0.148 A 
ATOM     16  O   LIG    1       -1.875   1.098  -0.966  0.00  0.00    -0.225 OA
ENDROOT
BRANCH   1  17
ATOM     17  O   LIG    1       -2.030  -1.100  -1.223  0.00  0.00    -0.447 OA
BRANCH  17  18
ATOM     18  C   LIG    1       -0.731  -1.172  -1.749  0.00  0.00    +0.262 C 
BRANCH  18  19
ATOM     19  C   LIG    1        0.344  -0.708  -0.797  0.00  0.00    +0.201 C 
BRANCH  19  20
ATOM     20  O   LIG    1        1.556  -0.847  -1.474  0.00  0.00    -0.375 OA
BRANCH  20  21
ATOM     21  C   LIG    1        2.647  -0.456  -0.697  0.00  0.00    +0.175 C 
BRANCH  21  22
ATOM     22  C   LIG    1        3.880  -0.659  -1.547  0.00  0.00    +0.112 C 
BRANCH  22  23
ATOM     23  N   LIG    1        5.090  -0.315  -0.914  0.00  0.00    -0.300 NA
ATOM     24  C   LIG    1        5.527  -1.100   0.157  0.00  0.00    +0.084 C 
ATOM     25  C   LIG    1        5.978  -0.347   1.379  0.00  0.00    +0.015 C 
ATOM     26  C   LIG    1        6.894   0.803   0.988  0.00  0.00    +0.002 C 
ATOM     27  C   LIG    1        6.102   1.700   0.079  0.00  0.00    +0.015 C 
ATOM     28  C   LIG    1        5.657   0.943  -1.141  0.00  0.00    +0.084 C 
ENDBRANCH  22  23
ENDBRANCH  21  22
ENDBRANCH  20  21
ENDBRANCH  19  20
ENDBRANCH  18  19
ENDBRANCH  17  18
ENDBRANCH   1  17
TORSDOF 7
