REMARK  Name = molecules/DTXXSJZBSTYZKE-ZDQKKZTESA-N.pdb
REMARK                            x       y       z     vdW  Elec       q    Type
REMARK                         _______ _______ _______ _____ _____    ______ ____
ROOT
ATOM      1  C   LIG    1        0.759  -0.520  -0.519  0.00  0.00    +0.012 C 
ATOM      2  C   LIG    1        0.911   0.954  -0.433  0.00  0.00    -0.020 C 
ATOM      3  C   LIG    1        1.309   1.480   0.887  0.00  0.00    +0.008 C 
ATOM      4  C   LIG    1        0.291   2.344   1.578  0.00  0.00    +0.005 C 
ATOM      5  C   LIG    1       -1.095   1.685   1.610  0.00  0.00    +0.031 C 
ATOM      6  C   LIG    1       -1.377   1.225   0.224  0.00  0.00    -0.066 C 
ATOM      7  C   LIG    1       -2.457   0.461   0.058  0.00  0.00    -0.000 C 
ATOM      8  C   LIG    1       -0.440   1.643  -0.796  0.00  0.00    +0.021 C 
ATOM      9  C   LIG    1       -0.643   1.148  -2.165  0.00  0.00    +0.009 C 
ATOM     10  C   LIG    1        0.776   1.028  -2.738  0.00  0.00    +0.007 C 
ATOM     11  C   LIG    1        1.679   1.494  -1.599  0.00  0.00    +0.024 C 
ENDROOT
BRANCH   7  12
ATOM     12  C   LIG    1       -3.288   0.141   1.194  0.00  0.00    +0.004 C 
ATOM     13  C   LIG    1       -4.331  -0.644   1.087  0.00  0.00    -0.040 C 
ATOM     14  C   LIG    1       -5.295  -0.937   2.204  0.00  0.00    +0.067 C 
ATOM     15  C   LIG    1       -6.662  -0.565   1.615  0.00  0.00    +0.122 C 
ATOM     16  C   LIG    1       -6.973  -1.505   0.499  0.00  0.00    +0.067 C 
ATOM     17  C   LIG    1       -6.089  -1.218  -0.704  0.00  0.00    +0.147 C 
ATOM     18  C   LIG    1       -4.656  -1.230  -0.211  0.00  0.00    -0.023 C 
ATOM     19  C   LIG    1       -3.685  -1.815  -0.884  0.00  0.00    +0.015 C 
BRANCH  15  20
ATOM     20  O   LIG    1       -6.499   0.716   1.042  0.00  0.00    -0.391 OA
ATOM     21  H   LIG    1       -7.418   1.082   0.954  0.00  0.00    +0.210 HD
ENDBRANCH  15  20
BRANCH  17  22
ATOM     22  O   LIG    1       -6.250  -2.201  -1.656  0.00  0.00    -0.387 OA
ATOM     23  H   LIG    1       -6.707  -1.810  -2.429  0.00  0.00    +0.210 HD
ENDBRANCH  17  22
ENDBRANCH   7  12
BRANCH  11  24
ATOM     24  C   LIG    1        3.104   1.135  -1.745  0.00  0.00    +0.119 C 
ATOM     25  C   LIG    1        3.652   1.968  -2.939  0.00  0.00    +0.038 C 
BRANCH  24  26
ATOM     26  O   LIG    1        3.427  -0.162  -1.860  0.00  0.00    -0.376 OA
BRANCH  26  27
ATOM     27  C   LIG    1        4.424  -0.706  -1.132  0.00  0.00    +0.163 C 
BRANCH  27  28
ATOM     28  C   LIG    1        4.198  -0.587   0.327  0.00  0.00    +0.062 C 
BRANCH  28  29
ATOM     29  C   LIG    1        5.322  -1.174   1.157  0.00  0.00    +0.063 C 
ATOM     30  C   LIG    1        4.990  -1.027   2.626  0.00  0.00    +0.041 C 
ATOM     31  C   LIG    1        6.640  -0.517   0.899  0.00  0.00    +0.041 C 
BRANCH  29  32
ATOM     32  O   LIG    1        5.472  -2.538   0.900  0.00  0.00    -0.389 OA
ATOM     33  H   LIG    1        5.855  -3.030   1.665  0.00  0.00    +0.210 HD
ENDBRANCH  29  32
ENDBRANCH  28  29
ENDBRANCH  27  28
ENDBRANCH  26  27
ENDBRANCH  24  26
ENDBRANCH  11  24
TORSDOF 9
