REMARK  Name = molecules/DUDKAZCAISNGQN-FQEVSTJZSA-N.pdb
REMARK                            x       y       z     vdW  Elec       q    Type
REMARK                         _______ _______ _______ _____ _____    ______ ____
ROOT
ATOM      1  C   LIG    1        1.354   0.488   0.742  0.00  0.00    +0.190 C 
ENDROOT
BRANCH   1   2
ATOM      2  C   LIG    1        1.789   1.866   0.944  0.00  0.00    -0.005 A 
ATOM      3  C   LIG    1        1.866   2.372   2.225  0.00  0.00    +0.007 A 
ATOM      4  C   LIG    1        2.265   3.653   2.536  0.00  0.00    +0.000 A 
ATOM      5  C   LIG    1        2.601   4.446   1.460  0.00  0.00    +0.000 A 
ATOM      6  C   LIG    1        2.537   3.975   0.170  0.00  0.00    +0.000 A 
ATOM      7  C   LIG    1        2.131   2.686  -0.098  0.00  0.00    +0.007 A 
ENDBRANCH   1   2
BRANCH   1   8
ATOM      8  C   LIG    1        2.463  -0.505   0.559  0.00  0.00    +0.036 C 
ATOM      9  C   LIG    1        1.863  -1.909   0.531  0.00  0.00    +0.007 C 
ATOM     10  C   LIG    1        2.990  -2.882   0.702  0.00  0.00    +0.000 C 
ATOM     11  C   LIG    1        3.962  -2.684  -0.438  0.00  0.00    +0.000 C 
ATOM     12  C   LIG    1        4.484  -1.288  -0.523  0.00  0.00    +0.000 C 
ATOM     13  C   LIG    1        3.284  -0.337  -0.666  0.00  0.00    +0.007 C 
ENDBRANCH   1   8
BRANCH   1  14
ATOM     14  O   LIG    1        0.674   0.077   1.918  0.00  0.00    -0.373 OA
ATOM     15  H   LIG    1       -0.154   0.598   2.052  0.00  0.00    +0.211 HD
ENDBRANCH   1  14
BRANCH   1  16
ATOM     16  C   LIG    1        0.362   0.420  -0.354  0.00  0.00    +0.345 C 
ATOM     17  O   LIG    1        0.609   0.679  -1.563  0.00  0.00    -0.247 OA
BRANCH  16  18
ATOM     18  O   LIG    1       -0.978   0.050  -0.117  0.00  0.00    -0.450 OA
BRANCH  18  19
ATOM     19  C   LIG    1       -1.929  -0.016  -1.162  0.00  0.00    +0.359 C 
BRANCH  19  20
ATOM     20  C   LIG    1       -3.234  -0.427  -0.628  0.00  0.00    +0.320 C 
ATOM     21  N   LIG    1       -3.374  -0.667   0.633  0.00  0.00    -0.084 NA
ATOM     22  C   LIG    1       -4.633  -1.075   1.224  0.00  0.00    +0.294 C 
ATOM     23  C   LIG    1       -5.748  -0.508   0.376  0.00  0.00    +0.093 C 
ATOM     24  C   LIG    1       -5.563  -1.111  -1.022  0.00  0.00    +0.229 C 
ATOM     25  N   LIG    1       -4.333  -0.551  -1.538  0.00  0.00    -0.224 N 
ATOM     26  C   LIG    1       -4.161  -0.118  -2.900  0.00  0.00    +0.276 C 
ENDBRANCH  19  20
ENDBRANCH  18  19
ENDBRANCH  16  18
ENDBRANCH   1  16
TORSDOF 7
