REMARK  Name = molecules/DUGOZIWVEXMGBE-OLZOCXBDSA-N.pdb
REMARK                            x       y       z     vdW  Elec       q    Type
REMARK                         _______ _______ _______ _____ _____    ______ ____
ROOT
ATOM      1  C   LIG    1       -0.347  -0.503  -0.382  0.00  0.00    +0.144 C 
ENDROOT
BRANCH   1   2
ATOM      2  C   LIG    1        0.962  -0.017   0.175  0.00  0.00    +0.072 C 
ATOM      3  C   LIG    1        2.080  -0.979  -0.215  0.00  0.00    +0.020 C 
ATOM      4  C   LIG    1        3.305  -0.546   0.547  0.00  0.00    +0.003 C 
ATOM      5  C   LIG    1        3.606   0.885   0.112  0.00  0.00    +0.015 C 
ATOM      6  C   LIG    1        2.421   1.794   0.325  0.00  0.00    +0.081 C 
ATOM      7  N   LIG    1        1.321   1.249  -0.483  0.00  0.00    -0.312 NA
ATOM      8  H   LIG    1        1.701   0.999  -1.419  0.00  0.00    +0.122 HD
ENDBRANCH   1   2
BRANCH   1   9
ATOM      9  C   LIG    1       -1.411   0.514  -0.315  0.00  0.00    -0.032 A 
ATOM     10  C   LIG    1       -1.889   1.023   0.873  0.00  0.00    +0.004 A 
ATOM     11  C   LIG    1       -2.880   1.969   0.916  0.00  0.00    +0.000 A 
ATOM     12  C   LIG    1       -3.425   2.435  -0.260  0.00  0.00    +0.000 A 
ATOM     13  C   LIG    1       -2.967   1.944  -1.463  0.00  0.00    +0.000 A 
ATOM     14  C   LIG    1       -1.974   0.998  -1.475  0.00  0.00    +0.004 A 
ENDBRANCH   1   9
BRANCH   1  15
ATOM     15  C   LIG    1       -0.719  -1.771   0.275  0.00  0.00    +0.316 C 
ATOM     16  O   LIG    1       -0.098  -2.264   1.251  0.00  0.00    -0.250 OA
BRANCH  15  17
ATOM     17  O   LIG    1       -1.816  -2.495  -0.179  0.00  0.00    -0.467 OA
ATOM     18  C   LIG    1       -2.243  -3.708   0.383  0.00  0.00    +0.280 C 
ENDBRANCH  15  17
ENDBRANCH   1  15
TORSDOF 4
