REMARK  Name = molecules/DUPWHXBITIZIKZ-UHFFFAOYSA-N.pdb
REMARK                            x       y       z     vdW  Elec       q    Type
REMARK                         _______ _______ _______ _____ _____    ______ ____
ROOT
ATOM      1  C   LIG    1        2.000  -1.017  -0.925  0.00  0.00    +0.037 A 
ATOM      2  C   LIG    1        1.485  -1.418   0.252  0.00  0.00    -0.029 A 
ATOM      3  C   LIG    1        0.492  -0.759   0.905  0.00  0.00    +0.006 A 
ATOM      4  C   LIG    1       -0.117   0.370   0.293  0.00  0.00    +0.013 A 
ATOM      5  C   LIG    1        0.337   0.736  -0.937  0.00  0.00    +0.039 A 
ATOM      6  C   LIG    1        2.068  -2.724   0.751  0.00  0.00    +0.045 C 
ATOM      7  C   LIG    1        1.359   0.169  -1.649  0.00  0.00    +0.036 A 
ENDROOT
BRANCH   5   8
ATOM      8  C   LIG    1       -0.602   1.718  -1.793  0.00  0.00    +0.248 C 
ATOM      9  N   LIG    1       -1.822   1.366  -1.381  0.00  0.00    -0.281 N 
ATOM     10  H   LIG    1       -2.397   2.639  -1.793  0.00  0.00    +0.155 HD
ATOM     11  O   LIG    1       -0.173   2.492  -2.591  0.00  0.00    -0.270 OA
BRANCH   9  12
ATOM     12  C   LIG    1       -3.099   1.017  -0.967  0.00  0.00    +0.036 A 
ATOM     13  C   LIG    1       -2.779  -0.313  -0.447  0.00  0.00    +0.035 A 
ATOM     14  C   LIG    1       -3.464  -1.026   0.340  0.00  0.00    +0.059 A 
ATOM     15  C   LIG    1       -4.756  -0.504   0.746  0.00  0.00    +0.038 A 
ATOM     16  C   LIG    1       -5.100   0.732   0.259  0.00  0.00    +0.050 A 
ATOM     17  C   LIG    1       -4.241   1.495  -0.602  0.00  0.00    +0.049 A 
BRANCH  16  18
ATOM     18  N   LIG    1       -6.449   1.117   0.385  0.00  0.00    -0.306 N 
ATOM     19  C   LIG    1       -7.077   2.149   0.756  0.00  0.00    +0.204 A 
ATOM     20  N   LIG    1       -8.422   1.988   0.517  0.00  0.00    -0.241 NA
ATOM     21  C   LIG    1       -8.678   0.890   0.008  0.00  0.00    +0.056 A 
ATOM     22  C   LIG    1       -9.886   0.160  -0.557  0.00  0.00    +0.067 C 
ATOM     23  C   LIG    1       -7.414   0.143  -0.168  0.00  0.00    +0.115 A 
ENDBRANCH  16  18
BRANCH  14  24
ATOM     24  C   LIG    1       -2.962  -2.335   0.979  0.00  0.00    +0.418 C 
ATOM     25  F   LIG    1       -2.171  -1.800   2.060  0.00  0.00    -0.166 F 
ATOM     26  F   LIG    1       -3.865  -3.054   1.547  0.00  0.00    -0.166 F 
ATOM     27  F   LIG    1       -2.097  -2.930   0.123  0.00  0.00    -0.166 F 
ENDBRANCH  14  24
ENDBRANCH   9  12
ENDBRANCH   5   8
BRANCH   1  28
ATOM     28  N   LIG    1        3.254  -1.343  -1.357  0.00  0.00    -0.283 N 
ATOM     29  H   LIG    1        3.603  -2.116  -1.903  0.00  0.00    +0.155 HD
BRANCH  28  34
ATOM     30  C   LIG    1        6.208   0.687  -0.244  0.00  0.00    +0.096 A 
ATOM     31  C   LIG    1        5.604   1.320   0.826  0.00  0.00    +0.050 A 
ATOM     32  C   LIG    1        4.238   1.112   1.096  0.00  0.00    +0.116 A 
ATOM     33  N   LIG    1        3.604   0.297   0.283  0.00  0.00    -0.223 NA
ATOM     34  C   LIG    1        4.181  -0.349  -0.798  0.00  0.00    +0.220 A 
ATOM     35  N   LIG    1        5.408  -0.145  -1.023  0.00  0.00    -0.213 NA
BRANCH  30  37
ATOM     36  N   LIG    1        8.177  -0.362  -1.089  0.00  0.00    -0.250 NA
ATOM     37  C   LIG    1        7.654   0.616  -0.295  0.00  0.00    +0.107 A 
ATOM     38  C   LIG    1        8.381   1.252   0.661  0.00  0.00    +0.140 A 
ATOM     39  N   LIG    1        9.688   0.923   0.831  0.00  0.00    -0.260 NA
ATOM     40  C   LIG    1       10.245  -0.069   0.050  0.00  0.00    +0.130 A 
ATOM     41  C   LIG    1        9.393  -0.693  -0.920  0.00  0.00    +0.131 A 
ENDBRANCH  30  37
ENDBRANCH  28  34
ENDBRANCH   1  28
TORSDOF 7
