REMARK  Name = molecules/DURULFYMVIFBIR-CYBMUJFWSA-N.pdb
REMARK                            x       y       z     vdW  Elec       q    Type
REMARK                         _______ _______ _______ _____ _____    ______ ____
ROOT
ATOM      1  O   LIG    1        0.139  -2.181   0.825  0.00  0.00    -0.489 OA
ENDROOT
BRANCH   1   2
ATOM      2  C   LIG    1        1.262  -1.500   0.459  0.00  0.00    +0.121 A 
ATOM      3  C   LIG    1        2.529  -2.005   0.788  0.00  0.00    +0.047 A 
ATOM      4  C   LIG    1        3.662  -1.312   0.423  0.00  0.00    +0.027 A 
ATOM      5  C   LIG    1        3.639  -0.127  -0.260  0.00  0.00    +0.034 A 
ATOM      6  C   LIG    1        2.379   0.384  -0.593  0.00  0.00    +0.027 A 
ATOM      7  C   LIG    1        1.229  -0.315  -0.227  0.00  0.00    +0.047 A 
BRANCH   5   8
ATOM      8  N   LIG    1        4.777   0.603  -0.638  0.00  0.00    -0.286 N 
ATOM      9  C   LIG    1        6.132   0.255  -0.504  0.00  0.00    +0.214 C 
ATOM     10  O   LIG    1        6.493  -0.820   0.000  0.00  0.00    -0.276 OA
ATOM     11  C   LIG    1        7.222   1.169  -0.967  0.00  0.00    +0.109 C 
ATOM     12  H   LIG    1        4.601   1.563  -1.091  0.00  0.00    +0.155 HD
ENDBRANCH   5   8
ENDBRANCH   1   2
BRANCH   1  13
ATOM     13  C   LIG    1       -1.170  -1.770   0.614  0.00  0.00    +0.261 C 
BRANCH  13  14
ATOM     14  C   LIG    1       -1.592  -0.539   1.379  0.00  0.00    +0.166 C 
BRANCH  14  15
ATOM     15  O   LIG    1       -1.413  -0.820   2.772  0.00  0.00    -0.387 OA
ATOM     16  H   LIG    1       -1.460   0.031   3.231  0.00  0.00    +0.210 HD
ENDBRANCH  14  15
BRANCH  14  17
ATOM     17  C   LIG    1       -3.055  -0.265   1.132  0.00  0.00    +0.115 C 
BRANCH  17  18
ATOM     18  N   LIG    1       -3.278   0.052  -0.231  0.00  0.00    -0.311 NA
ATOM     19  H   LIG    1       -3.001  -0.763  -0.828  0.00  0.00    +0.122 HD
BRANCH  18  20
ATOM     20  C   LIG    1       -4.659   0.415  -0.516  0.00  0.00    +0.048 C 
ATOM     21  C   LIG    1       -5.108   1.635   0.205  0.00  0.00    +0.023 C 
ATOM     22  C   LIG    1       -4.810   0.510  -2.011  0.00  0.00    +0.023 C 
ENDBRANCH  18  20
ENDBRANCH  17  18
ENDBRANCH  14  17
ENDBRANCH  13  14
ENDBRANCH   1  13
TORSDOF 8
