REMARK  Name = molecules/DVLBYTMYSMAKHP-UHFFFAOYSA-N.pdb
REMARK                            x       y       z     vdW  Elec       q    Type
REMARK                         _______ _______ _______ _____ _____    ______ ____
ROOT
ATOM      1  C   LIG    1       -3.833   2.010   0.522  0.00  0.00    +0.160 C 
ATOM      2  O   LIG    1       -2.730   2.651   0.927  0.00  0.00    -0.292 OA
ATOM      3  C   LIG    1       -3.638   0.591   0.320  0.00  0.00    +0.005 C 
ATOM      4  C   LIG    1       -2.346   0.043   0.513  0.00  0.00    +0.081 C 
ATOM      5  C   LIG    1       -2.052  -1.286   0.339  0.00  0.00    +0.033 C 
ATOM      6  N   LIG    1       -0.696  -1.717   0.537  0.00  0.00    -0.301 N 
ATOM      7  C   LIG    1       -0.253  -3.054   0.354  0.00  0.00    +0.048 A 
ATOM      8  C   LIG    1        1.089  -3.356   0.561  0.00  0.00    +0.024 A 
ATOM      9  C   LIG    1        1.579  -4.649   0.384  0.00  0.00    +0.002 A 
ATOM     10  C   LIG    1        0.733  -5.662  -0.003  0.00  0.00    +0.001 A 
ATOM     11  C   LIG    1       -0.604  -5.352  -0.206  0.00  0.00    +0.017 A 
ATOM     12  C   LIG    1       -1.082  -4.104  -0.036  0.00  0.00    +0.034 A 
ATOM     13  S   LIG    1       -2.815  -3.840  -0.311  0.00  0.00    -0.086 S 
ATOM     14  C   LIG    1       -3.081  -2.098  -0.042  0.00  0.00    +0.031 C 
ATOM     15  C   LIG    1       -4.335  -1.580  -0.233  0.00  0.00    +0.017 C 
ATOM     16  C   LIG    1       -4.652  -0.242  -0.061  0.00  0.00    +0.009 C 
ENDROOT
BRANCH   1  17
ATOM     17  C   LIG    1       -4.966   2.882   0.378  0.00  0.00    +0.079 C 
BRANCH  17  19
ATOM     18  C   LIG    1       -7.268   3.660  -0.106  0.00  0.00    +0.004 C 
ATOM     19  C   LIG    1       -6.295   2.435  -0.060  0.00  0.00    +0.004 C 
ENDBRANCH  17  19
ENDBRANCH   1  17
BRANCH   6  20
ATOM     20  C   LIG    1        0.268  -0.721   0.939  0.00  0.00    +0.112 C 
BRANCH  20  21
ATOM     21  C   LIG    1        1.131  -0.197  -0.160  0.00  0.00    +0.035 C 
BRANCH  21  22
ATOM     22  C   LIG    1        2.105   0.838   0.360  0.00  0.00    +0.086 C 
BRANCH  22  23
ATOM     23  N   LIG    1        2.955   1.382  -0.645  0.00  0.00    -0.300 NA
ATOM     24  C   LIG    1        3.719   2.472  -0.073  0.00  0.00    +0.100 C 
ATOM     25  C   LIG    1        4.965   1.931   0.600  0.00  0.00    +0.099 C 
ATOM     26  N   LIG    1        5.896   1.513  -0.427  0.00  0.00    -0.303 NA
ATOM     27  C   LIG    1        6.802   0.499   0.122  0.00  0.00    +0.105 C 
ATOM     28  C   LIG    1        5.185   0.966  -1.567  0.00  0.00    +0.099 C 
ATOM     29  C   LIG    1        3.868   0.372  -1.098  0.00  0.00    +0.100 C 
ENDBRANCH  22  23
ENDBRANCH  21  22
ENDBRANCH  20  21
ENDBRANCH   6  20
TORSDOF 6
