REMARK  Name = molecules/DVQVBLBKEXITIK-UHFFFAOYSA-N.pdb
REMARK                            x       y       z     vdW  Elec       q    Type
REMARK                         _______ _______ _______ _____ _____    ______ ____
ROOT
ATOM      1  S   LIG    1        2.038   1.403   1.808  0.00  0.00    +0.074 S 
ATOM      2  O   LIG    1        1.306   0.538   2.822  0.00  0.00    -0.150 OA
ATOM      3  O   LIG    1        2.873   2.377   2.587  0.00  0.00    -0.150 OA
ENDROOT
BRANCH   1   4
ATOM      4  C   LIG    1        3.105   0.437   0.786  0.00  0.00    +0.109 A 
ATOM      5  C   LIG    1        3.589  -0.826   1.186  0.00  0.00    +0.030 A 
ATOM      6  C   LIG    1        4.430  -1.557   0.368  0.00  0.00    +0.024 A 
ATOM      7  C   LIG    1        4.832  -1.093  -0.875  0.00  0.00    +0.025 A 
ATOM      8  C   LIG    1        4.336   0.167  -1.264  0.00  0.00    +0.024 A 
ATOM      9  C   LIG    1        3.509   0.899  -0.458  0.00  0.00    +0.030 A 
BRANCH   7  10
ATOM     10  N   LIG    1        5.695  -1.835  -1.721  0.00  0.00    -0.358 N 
ATOM     11  H   LIG    1        5.531  -2.842  -1.857  0.00  0.00    +0.142 HD
ATOM     12  H   LIG    1        6.470  -1.349  -2.195  0.00  0.00    +0.142 HD
ENDBRANCH   7  10
ENDBRANCH   1   4
BRANCH   1  13
ATOM     13  N   LIG    1        0.906   2.142   0.741  0.00  0.00    -0.192 N 
ATOM     14  H   LIG    1        1.236   3.018   0.224  0.00  0.00    +0.176 HD
BRANCH  13  15
ATOM     15  C   LIG    1       -0.400   1.635   0.545  0.00  0.00    +0.201 A 
ATOM     16  S   LIG    1       -1.260   0.317   1.202  0.00  0.00    -0.034 S 
ATOM     17  C   LIG    1       -2.732   0.524   0.378  0.00  0.00    +0.109 A 
ATOM     18  N   LIG    1       -2.457   1.617  -0.357  0.00  0.00    -0.144 NA
ATOM     19  N   LIG    1       -1.326   2.144  -0.269  0.00  0.00    -0.124 NA
BRANCH  17  20
ATOM     20  C   LIG    1       -4.024  -0.251   0.358  0.00  0.00    +0.013 C 
ATOM     21  C   LIG    1       -5.076   0.537   1.061  0.00  0.00    +0.018 C 
ATOM     22  C   LIG    1       -3.812  -1.548   1.038  0.00  0.00    +0.018 C 
ATOM     23  C   LIG    1       -4.312  -0.437  -1.137  0.00  0.00    +0.018 C 
ENDBRANCH  17  20
ENDBRANCH  13  15
ENDBRANCH   1  13
TORSDOF 5
