REMARK  Name = molecules/DWYRIWUZIJHQKQ-SANMLTNESA-N.pdb
REMARK                            x       y       z     vdW  Elec       q    Type
REMARK                         _______ _______ _______ _____ _____    ______ ____
ROOT
ATOM      1  N   LIG    1        0.519  -0.072   0.360  0.00  0.00    -0.297 N 
ATOM      2  C   LIG    1       -0.019   1.171   0.873  0.00  0.00    +0.127 C 
ATOM      3  C   LIG    1       -1.089   1.720  -0.053  0.00  0.00    +0.125 C 
ATOM      4  N   LIG    1       -1.916   0.689  -0.608  0.00  0.00    -0.310 N 
ATOM      5  C   LIG    1       -1.803  -0.648  -0.061  0.00  0.00    +0.125 C 
ATOM      6  C   LIG    1       -0.346  -1.064  -0.246  0.00  0.00    +0.127 C 
ENDROOT
BRANCH   4   7
ATOM      7  C   LIG    1       -2.842   0.889  -1.657  0.00  0.00    +0.149 A 
ATOM      8  C   LIG    1       -4.169   0.619  -1.381  0.00  0.00    +0.106 A 
ATOM      9  C   LIG    1       -4.805   0.172  -0.240  0.00  0.00    +0.041 A 
ATOM     10  C   LIG    1       -6.171   0.052  -0.461  0.00  0.00    +0.005 A 
ATOM     11  C   LIG    1       -6.342   0.442  -1.774  0.00  0.00    +0.121 A 
ATOM     12  N   LIG    1       -5.137   0.777  -2.309  0.00  0.00    -0.235 N 
ATOM     13  N   LIG    1       -4.745   1.204  -3.498  0.00  0.00    -0.155 NA
ATOM     14  C   LIG    1       -3.474   1.483  -3.825  0.00  0.00    +0.245 A 
ATOM     15  N   LIG    1       -2.521   1.321  -2.889  0.00  0.00    -0.217 NA
BRANCH  10  16
ATOM     16  C   LIG    1       -7.187  -0.388   0.494  0.00  0.00    +0.021 A 
ATOM     17  C   LIG    1       -6.977  -1.304   1.518  0.00  0.00    +0.143 A 
ATOM     18  N   LIG    1       -8.151  -1.443   2.172  0.00  0.00    -0.179 NA
ATOM     19  N   LIG    1       -9.087  -0.687   1.642  0.00  0.00    -0.274 N 
ATOM     20  C   LIG    1      -10.485  -0.580   2.090  0.00  0.00    +0.172 C 
ATOM     21  C   LIG    1       -8.514  -0.035   0.615  0.00  0.00    +0.116 A 
ENDBRANCH  10  16
ENDBRANCH   4   7
BRANCH   1  23
ATOM     22  N   LIG    1        2.442  -1.468  -0.048  0.00  0.00    -0.222 NA
ATOM     23  C   LIG    1        1.906  -0.343   0.441  0.00  0.00    +0.218 A 
ATOM     24  N   LIG    1        2.753   0.536   1.023  0.00  0.00    -0.222 NA
ATOM     25  C   LIG    1        4.068   0.299   1.110  0.00  0.00    +0.121 A 
ATOM     26  C   LIG    1        4.600  -0.867   0.600  0.00  0.00    +0.013 A 
ATOM     27  C   LIG    1        3.750  -1.764   0.008  0.00  0.00    +0.121 A 
BRANCH  26  28
ATOM     28  C   LIG    1        6.066  -1.073   0.728  0.00  0.00    +0.068 C 
ATOM     29  C   LIG    1        6.495  -1.088   2.166  0.00  0.00    +0.038 C 
BRANCH  28  30
ATOM     30  C   LIG    1        6.806  -0.031  -0.015  0.00  0.00    -0.023 A 
ATOM     31  C   LIG    1        7.596   0.859   0.649  0.00  0.00    +0.008 A 
ATOM     32  C   LIG    1        8.303   1.850  -0.039  0.00  0.00    +0.038 A 
ATOM     33  C   LIG    1        8.184   1.907  -1.394  0.00  0.00    +0.123 A 
ATOM     34  C   LIG    1        7.392   1.022  -2.101  0.00  0.00    +0.038 A 
ATOM     35  F   LIG    1        8.845   2.846  -2.119  0.00  0.00    -0.205 F 
ATOM     36  C   LIG    1        6.705   0.050  -1.379  0.00  0.00    +0.008 A 
ENDBRANCH  28  30
BRANCH  28  37
ATOM     37  N   LIG    1        6.428  -2.377   0.156  0.00  0.00    -0.318 NA
ATOM     38  H   LIG    1        6.064  -3.117   0.776  0.00  0.00    +0.119 HD
ATOM     39  H   LIG    1        7.448  -2.388   0.009  0.00  0.00    +0.119 HD
ENDBRANCH  28  37
ENDBRANCH  26  28
ENDBRANCH   1  23
TORSDOF 6
