REMARK  Name = molecules/DXSUDONPFZKWOO-FQEVSTJZSA-N.pdb
REMARK                            x       y       z     vdW  Elec       q    Type
REMARK                         _______ _______ _______ _____ _____    ______ ____
ROOT
ATOM      1  O   LIG    1       -1.452  -0.683  -2.619  0.00  0.00    -0.247 OA
ATOM      2  C   LIG    1       -1.257  -0.186  -1.483  0.00  0.00    +0.351 C 
ATOM      3  C   LIG    1       -2.180  -0.144  -0.312  0.00  0.00    +0.219 C 
ATOM      4  O   LIG    1       -1.291  -0.194   0.766  0.00  0.00    -0.314 OA
ATOM      5  C   LIG    1       -0.164   0.518   0.366  0.00  0.00    +0.314 C 
ATOM      6  O   LIG    1       -0.112   0.452  -1.047  0.00  0.00    -0.432 OA
ENDROOT
BRANCH   3   7
ATOM      7  C   LIG    1       -3.028  -1.341  -0.284  0.00  0.00    -0.000 A 
ATOM      8  C   LIG    1       -3.116  -2.123   0.844  0.00  0.00    +0.007 A 
ATOM      9  C   LIG    1       -3.925  -3.233   0.819  0.00  0.00    +0.000 A 
ATOM     10  C   LIG    1       -4.654  -3.593  -0.293  0.00  0.00    +0.000 A 
ATOM     11  C   LIG    1       -4.580  -2.817  -1.444  0.00  0.00    +0.000 A 
ATOM     12  C   LIG    1       -3.760  -1.709  -1.390  0.00  0.00    +0.007 A 
ENDBRANCH   3   7
BRANCH   3  13
ATOM     13  C   LIG    1       -2.928   1.115  -0.355  0.00  0.00    -0.000 A 
ATOM     14  C   LIG    1       -3.780   1.460   0.675  0.00  0.00    +0.007 A 
ATOM     15  C   LIG    1       -4.484   2.655   0.630  0.00  0.00    +0.000 A 
ATOM     16  C   LIG    1       -4.356   3.532  -0.436  0.00  0.00    +0.000 A 
ATOM     17  C   LIG    1       -3.492   3.174  -1.472  0.00  0.00    +0.000 A 
ATOM     18  C   LIG    1       -2.786   1.971  -1.423  0.00  0.00    +0.007 A 
ENDBRANCH   3  13
BRANCH   5  19
ATOM     19  C   LIG    1        1.116  -0.065   0.943  0.00  0.00    +0.090 C 
BRANCH  19  20
ATOM     20  C   LIG    1        2.269   0.750   0.420  0.00  0.00    +0.090 C 
BRANCH  20  21
ATOM     21  N   LIG    1        3.542   0.285   0.906  0.00  0.00    -0.302 NA
ATOM     22  C   LIG    1        4.556   1.266   0.520  0.00  0.00    +0.084 C 
ATOM     23  C   LIG    1        5.874   0.826   1.143  0.00  0.00    +0.015 C 
ATOM     24  C   LIG    1        6.290  -0.444   0.454  0.00  0.00    +0.002 C 
ATOM     25  C   LIG    1        5.181  -1.098  -0.311  0.00  0.00    +0.015 C 
ATOM     26  C   LIG    1        3.841  -1.007   0.346  0.00  0.00    +0.084 C 
ENDBRANCH  20  21
ENDBRANCH  19  20
ENDBRANCH   5  19
TORSDOF 5
