REMARK  Name = molecules/DYDCPNMLZGFQTM-UHFFFAOYSA-N.pdb
REMARK                            x       y       z     vdW  Elec       q    Type
REMARK                         _______ _______ _______ _____ _____    ______ ____
ROOT
ATOM      1  C   LIG    1        0.689  -0.167   0.073  0.00  0.00    +0.089 A 
ATOM      2 CL   LIG    1       -0.180  -1.661   0.262  0.00  0.00    -0.079 Cl
ATOM      3  C   LIG    1        2.084  -0.188   0.072  0.00  0.00    +0.086 A 
ATOM      4  C   LIG    1        2.789   0.978  -0.075  0.00  0.00    +0.147 A 
ATOM      5  F   LIG    1        4.151   0.949  -0.075  0.00  0.00    -0.203 F 
ATOM      6  C   LIG    1        2.142   2.171  -0.223  0.00  0.00    +0.054 A 
ATOM      7  C   LIG    1        0.764   2.217  -0.225  0.00  0.00    +0.051 A 
ATOM      8  C   LIG    1        0.154   3.451  -0.378  0.00  0.00    +0.204 A 
ATOM      9  C   LIG    1       -1.223   3.465  -0.376  0.00  0.00    +0.122 A 
ATOM     10  C   LIG    1       -1.894   2.297  -0.228  0.00  0.00    +0.112 A 
ATOM     11  N   LIG    1       -1.302   1.068  -0.076  0.00  0.00    -0.296 N 
ATOM     12  O   LIG    1        0.850   4.489  -0.509  0.00  0.00    -0.286 OA
ATOM     13  C   LIG    1        0.024   1.029  -0.075  0.00  0.00    +0.079 A 
ENDROOT
BRANCH  11  14
ATOM     14  C   LIG    1       -2.141  -0.071   0.068  0.00  0.00    +0.176 A 
ATOM     15  C   LIG    1       -2.573  -0.450   1.316  0.00  0.00    +0.169 A 
ATOM     16  F   LIG    1       -2.179   0.210   2.433  0.00  0.00    -0.202 F 
ATOM     17  C   LIG    1       -3.434  -1.527   1.500  0.00  0.00    +0.084 A 
ATOM     18  C   LIG    1       -3.822  -2.182   0.361  0.00  0.00    +0.166 A 
ATOM     19  F   LIG    1       -4.673  -3.256   0.473  0.00  0.00    -0.202 F 
ATOM     20  C   LIG    1       -3.406  -1.825  -0.889  0.00  0.00    +0.154 A 
ATOM     21  N   LIG    1       -2.565  -0.763  -0.993  0.00  0.00    -0.209 NA
BRANCH  20  22
ATOM     22  N   LIG    1       -3.833  -2.534  -2.053  0.00  0.00    -0.341 N 
ATOM     23  H   LIG    1       -4.743  -3.023  -2.034  0.00  0.00    +0.144 HD
ATOM     24  H   LIG    1       -3.271  -2.580  -2.918  0.00  0.00    +0.144 HD
ENDBRANCH  20  22
ENDBRANCH  11  14
BRANCH   3  25
ATOM     25  N   LIG    1        2.774  -1.424   0.225  0.00  0.00    -0.321 N 
ATOM     26  C   LIG    1        3.300  -2.244   1.299  0.00  0.00    +0.138 C 
ATOM     27  C   LIG    1        4.359  -2.721   0.322  0.00  0.00    +0.149 C 
ATOM     28  C   LIG    1        3.264  -2.434  -0.693  0.00  0.00    +0.138 C 
BRANCH  27  29
ATOM     29  O   LIG    1        5.473  -1.914   0.213  0.00  0.00    -0.389 OA
ATOM     30  H   LIG    1        5.732  -1.462   1.048  0.00  0.00    +0.210 HD
ENDBRANCH  27  29
ENDBRANCH   3  25
BRANCH   9  31
ATOM     31  C   LIG    1       -1.923   4.758  -0.536  0.00  0.00    +0.342 C 
ATOM     32  O   LIG    1       -1.270   5.802  -0.667  0.00  0.00    -0.245 OA
BRANCH  31  33
ATOM     33  O   LIG    1       -3.307   4.756  -0.532  0.00  0.00    -0.477 OA
ATOM     34  H   LIG    1       -3.844   5.196   0.217  0.00  0.00    +0.295 HD
ENDBRANCH  31  33
ENDBRANCH   9  31
TORSDOF 6
