REMARK  Name = molecules/DYLGFOYVTXJFJP-OXTLUBNBSA-N.pdb
REMARK                            x       y       z     vdW  Elec       q    Type
REMARK                         _______ _______ _______ _____ _____    ______ ____
ROOT
ATOM      1  C   LIG    1        0.609   0.048  -0.424  0.00  0.00    -0.023 C 
ATOM      2  C   LIG    1        1.689   0.496   0.353  0.00  0.00    +0.059 C 
ATOM      3  C   LIG    1        1.761   1.138   1.649  0.00  0.00    -0.041 C 
ATOM      4  C   LIG    1        0.819   1.530   2.554  0.00  0.00    -0.015 C 
ATOM      5  C   LIG    1        1.189   2.152   3.758  0.00  0.00    +0.065 C 
ATOM      6  C   LIG    1        2.518   2.385   4.064  0.00  0.00    +0.023 C 
ATOM      7 CL   LIG    1        2.980   3.161   5.573  0.00  0.00    -0.088 Cl
ATOM      8  C   LIG    1        3.470   1.996   3.162  0.00  0.00    +0.006 C 
ATOM      9  C   LIG    1        3.089   1.390   1.990  0.00  0.00    +0.051 C 
ATOM     10  C   LIG    1        3.890   0.884   0.850  0.00  0.00    -0.041 C 
ATOM     11  C   LIG    1        2.995   0.334  -0.156  0.00  0.00    -0.029 C 
ATOM     12  C   LIG    1        3.203  -0.242  -1.373  0.00  0.00    +0.025 C 
ATOM     13  C   LIG    1        2.121  -0.673  -2.121  0.00  0.00    +0.041 C 
ATOM     14 CL   LIG    1        2.385  -1.413  -3.684  0.00  0.00    -0.084 Cl
ATOM     15  C   LIG    1        0.829  -0.531  -1.654  0.00  0.00    +0.023 C 
ENDROOT
BRANCH   1  16
ATOM     16  C   LIG    1       -0.782   0.130   0.083  0.00  0.00    +0.156 C 
BRANCH  16  17
ATOM     17  O   LIG    1       -0.823  -0.783   1.151  0.00  0.00    -0.386 OA
ATOM     18  H   LIG    1       -1.720  -0.819   1.566  0.00  0.00    +0.210 HD
ENDBRANCH  16  17
BRANCH  16  19
ATOM     19  C   LIG    1       -1.780  -0.481  -0.927  0.00  0.00    +0.120 C 
BRANCH  19  20
ATOM     20  N   LIG    1       -3.069  -0.610  -0.377  0.00  0.00    -0.300 NA
BRANCH  20  21
ATOM     21  C   LIG    1       -3.848   0.502  -0.085  0.00  0.00    +0.084 C 
BRANCH  21  22
ATOM     22  C   LIG    1       -4.350   1.293  -1.284  0.00  0.00    +0.015 C 
BRANCH  22  23
ATOM     23  C   LIG    1       -5.187   2.472  -0.863  0.00  0.00    -0.002 C 
ATOM     24  C   LIG    1       -4.443   3.448   0.013  0.00  0.00    +0.004 C 
ENDBRANCH  22  23
ENDBRANCH  21  22
ENDBRANCH  20  21
BRANCH  20  25
ATOM     25  C   LIG    1       -3.602  -1.912  -0.334  0.00  0.00    +0.084 C 
BRANCH  25  26
ATOM     26  C   LIG    1       -4.905  -2.091   0.358  0.00  0.00    +0.015 C 
BRANCH  26  27
ATOM     27  C   LIG    1       -5.319  -3.569   0.296  0.00  0.00    -0.002 C 
ATOM     28  C   LIG    1       -4.253  -4.439   0.968  0.00  0.00    +0.004 C 
ENDBRANCH  26  27
ENDBRANCH  25  26
ENDBRANCH  20  25
ENDBRANCH  19  20
ENDBRANCH  16  19
ENDBRANCH   1  16
BRANCH  10  29
ATOM     29  C   LIG    1        5.200   0.920   0.754  0.00  0.00    +0.058 C 
BRANCH  29  30
ATOM     30  C   LIG    1        6.008   0.440  -0.332  0.00  0.00    -0.039 A 
ATOM     31  C   LIG    1        6.505  -0.853  -0.240  0.00  0.00    +0.005 A 
ATOM     32  C   LIG    1        7.319  -1.407  -1.201  0.00  0.00    +0.020 A 
ATOM     33  C   LIG    1        7.669  -0.667  -2.310  0.00  0.00    +0.041 A 
ATOM     34  C   LIG    1        7.183   0.617  -2.416  0.00  0.00    +0.020 A 
ATOM     35 CL   LIG    1        8.711  -1.360  -3.557  0.00  0.00    -0.084 Cl
ATOM     36  C   LIG    1        6.367   1.164  -1.446  0.00  0.00    +0.005 A 
ENDBRANCH  29  30
ENDBRANCH  10  29
TORSDOF 12
