REMARK  Name = molecules/DYODAJAEQDVYFX-UHFFFAOYSA-N.pdb
REMARK                            x       y       z     vdW  Elec       q    Type
REMARK                         _______ _______ _______ _____ _____    ______ ____
ROOT
ATOM      1  C   LIG    1       -0.170   0.219   0.231  0.00  0.00    +0.131 C 
ATOM      2  C   LIG    1       -0.096   0.880   1.577  0.00  0.00    +0.236 C 
ATOM      3  O   LIG    1       -0.013   0.153   2.601  0.00  0.00    -0.274 OA
ATOM      4  N   LIG    1       -0.119   2.296   1.679  0.00  0.00    -0.239 N 
ATOM      5  H   LIG    1        0.253   2.734   2.556  0.00  0.00    +0.159 HD
ATOM      6  C   LIG    1       -0.636   3.082   0.615  0.00  0.00    +0.312 C 
ATOM      7  O   LIG    1       -0.642   4.327   0.739  0.00  0.00    -0.252 OA
ATOM      8  N   LIG    1       -1.128   2.417  -0.553  0.00  0.00    -0.239 N 
ATOM      9  H   LIG    1       -1.504   2.982  -1.327  0.00  0.00    +0.159 HD
ATOM     10  C   LIG    1       -1.100   0.999  -0.648  0.00  0.00    +0.236 C 
ATOM     11  O   LIG    1       -1.830   0.376  -1.445  0.00  0.00    -0.274 OA
ENDROOT
BRANCH   1  12
ATOM     12  C   LIG    1        1.151   0.197  -0.472  0.00  0.00    +0.068 C 
BRANCH  12  13
ATOM     13  C   LIG    1        2.218  -0.539   0.218  0.00  0.00    -0.010 C 
ATOM     14 BR   LIG    1        2.818  -0.007   1.940  0.00  0.00    -0.056 Br
ATOM     15  C   LIG    1        2.782  -1.583  -0.359  0.00  0.00    +0.020 C 
ENDBRANCH  12  13
ENDBRANCH   1  12
BRANCH   1  16
ATOM     16  C   LIG    1       -0.684  -1.192   0.416  0.00  0.00    +0.052 C 
BRANCH  16  17
ATOM     17  C   LIG    1       -0.870  -1.892  -0.871  0.00  0.00    -0.033 C 
ATOM     18  C   LIG    1       -2.052  -2.354  -1.235  0.00  0.00    +0.004 C 
ENDBRANCH  16  17
ENDBRANCH   1  16
TORSDOF 4
