REMARK  Name = molecules/DYZJXZOQQRXDLE-AWEZNQCLSA-O.pdb
REMARK                            x       y       z     vdW  Elec       q    Type
REMARK                         _______ _______ _______ _____ _____    ______ ____
ROOT
ATOM      1  C   LIG    1        1.444  -0.974   0.204  0.00  0.00    +0.121 A 
ATOM      2  C   LIG    1        1.325   0.357   0.486  0.00  0.00    +0.047 A 
ATOM      3  C   LIG    1        0.119   0.943   0.764  0.00  0.00    +0.027 A 
ATOM      4  C   LIG    1       -1.077   0.202   0.775  0.00  0.00    +0.034 A 
ATOM      5  C   LIG    1       -0.939  -1.125   0.491  0.00  0.00    +0.027 A 
ATOM      6  C   LIG    1        0.257  -1.728   0.212  0.00  0.00    +0.047 A 
ENDROOT
BRANCH   4   7
ATOM      7  N   LIG    1       -2.269   0.875   1.068  0.00  0.00    -0.285 N 
ATOM      8  H   LIG    1       -2.214   1.930   1.273  0.00  0.00    +0.155 HD
ATOM      9  C   LIG    1       -3.527   0.287   1.115  0.00  0.00    +0.218 C 
ATOM     10  O   LIG    1       -3.763  -0.908   0.906  0.00  0.00    -0.275 OA
BRANCH   9  11
ATOM     11  C   LIG    1       -4.715   1.153   1.447  0.00  0.00    +0.106 C 
BRANCH  11  12
ATOM     12  C   LIG    1       -5.981   0.341   1.450  0.00  0.00    +0.067 C 
BRANCH  12  13
ATOM     13  S   LIG    1       -6.191  -0.359  -0.163  0.00  0.00    -0.214 S 
ATOM     14  C   LIG    1       -7.586  -1.454  -0.190  0.00  0.00    +0.073 C 
ATOM     15  C   LIG    1       -6.311   0.894  -1.408  0.00  0.00    +0.073 C 
ENDBRANCH  12  13
ENDBRANCH  11  12
ENDBRANCH   9  11
ENDBRANCH   4   7
BRANCH   1  16
ATOM     16  O   LIG    1        2.563  -1.645  -0.083  0.00  0.00    -0.489 OA
BRANCH  16  17
ATOM     17  C   LIG    1        3.881  -1.474  -0.248  0.00  0.00    +0.262 C 
BRANCH  17  18
ATOM     18  C   LIG    1        4.381  -0.606  -1.378  0.00  0.00    +0.177 C 
BRANCH  18  19
ATOM     19  O   LIG    1        3.987   0.694  -1.363  0.00  0.00    -0.386 OA
ATOM     20  H   LIG    1        3.153   0.824  -1.905  0.00  0.00    +0.210 HD
ENDBRANCH  18  19
BRANCH  18  21
ATOM     21  C   LIG    1        5.876  -0.823  -1.442  0.00  0.00    +0.194 C 
BRANCH  21  22
ATOM     22  O   LIG    1        6.614  -0.349  -0.413  0.00  0.00    -0.377 OA
BRANCH  22  23
ATOM     23  C   LIG    1        6.558   0.994  -0.198  0.00  0.00    +0.156 C 
ATOM     24  C   LIG    1        7.507   1.296   0.971  0.00  0.00    +0.034 C 
ENDBRANCH  22  23
ENDBRANCH  21  22
ENDBRANCH  18  21
ENDBRANCH  17  18
ENDBRANCH  16  17
ENDBRANCH   1  16
TORSDOF 11
