REMARK  Name = molecules/DZLNHFMRPBPULJ-GSVOUGTGSA-N.pdb
REMARK                            x       y       z     vdW  Elec       q    Type
REMARK                         _______ _______ _______ _____ _____    ______ ____
ROOT
ATOM      1  C   UNK    1        0.321  -0.057  -0.098  0.00  0.00    +0.174 C 
ATOM      2  C   UNK    1        0.057   0.458   1.325  0.00  0.00    +0.100 C 
ATOM      3  S   UNK    1       -1.471  -0.503   1.683  0.00  0.00    -0.143 S 
ATOM      4  C   UNK    1       -1.796  -1.032  -0.051  0.00  0.00    +0.151 C 
ATOM      5  N   UNK    1       -1.002   0.002  -0.738  0.00  0.00    -0.295 NA
ATOM      6  H   UNK    1       -0.915  -0.168  -1.740  0.00  0.00    +0.123 HD
ENDROOT
BRANCH   1   7
ATOM      7  C   UNK    1        1.220   0.829  -0.837  0.00  0.00    +0.323 C 
ATOM      8  O   UNK    1        0.852   1.506  -1.852  0.00  0.00    -0.249 OA
BRANCH   7   9
ATOM      9  O   UNK    1        2.556   0.989  -0.469  0.00  0.00    -0.480 OA
ATOM     10  H   UNK    1        3.054   0.290   0.072  0.00  0.00    +0.295 HD
ENDBRANCH   7   9
ENDBRANCH   1   7
TORSDOF 2
