REMARK  Name = molecules/DZMVCVMFETWNIU-LDYMZIIASA-N.pdb
REMARK                            x       y       z     vdW  Elec       q    Type
REMARK                         _______ _______ _______ _____ _____    ______ ____
ROOT
ATOM      1  CA  LIG    1        1.070   1.395   0.540  0.00  0.00    +0.123 C 
ATOM      2  N   LIG    1       -0.280   1.296   1.083  0.00  0.00    -0.249 N 
ATOM      3  C   LIG    1       -0.598   0.151   1.963  0.00  0.00    +0.169 C 
ATOM      4  CA  LIG    1       -2.020   0.481   1.661  0.00  0.00    +0.191 C 
ATOM      5  S   LIG    1        0.054  -1.369   1.281  0.00  0.00    -0.131 S 
ATOM      6  C   LIG    1        0.808  -0.922  -0.292  0.00  0.00    +0.104 C 
ATOM      7  C   LIG    1       -1.587   1.831   1.181  0.00  0.00    +0.244 C 
ATOM      8  O   LIG    1       -2.112   2.956   0.954  0.00  0.00    -0.273 OA
ATOM      9  C   LIG    1        1.594   0.349  -0.065  0.00  0.00    -0.021 C 
ENDROOT
BRANCH   4  10
ATOM     10  N   LIG    1       -2.606  -0.388   0.701  0.00  0.00    -0.300 N 
ATOM     11  C   LIG    1       -3.869  -1.000   1.012  0.00  0.00    +0.235 C 
ATOM     12  O   LIG    1       -4.447  -0.779   2.101  0.00  0.00    -0.274 OA
ATOM     13  H   LIG    1       -2.204  -0.626  -0.222  0.00  0.00    +0.150 HD
BRANCH  11  14
ATOM     14  C   LIG    1       -4.560  -1.928   0.064  0.00  0.00    +0.242 C 
BRANCH  14  15
ATOM     15  N   LIG    1       -5.453  -1.177  -0.763  0.00  0.00    -0.223 N 
ATOM     16  N   LIG    1       -6.722  -0.899  -0.531  0.00  0.00    -0.044 NA
ATOM     17  N   LIG    1       -7.210  -0.182  -1.529  0.00  0.00    -0.023 NA
ATOM     18  N   LIG    1       -6.228   0.004  -2.425  0.00  0.00    -0.117 NA
ATOM     19  C   LIG    1       -5.131  -0.620  -1.941  0.00  0.00    +0.245 A 
ENDBRANCH  14  15
ENDBRANCH  11  14
ENDBRANCH   4  10
BRANCH   1  20
ATOM     20  C   LIG    1        1.733   2.674   0.744  0.00  0.00    +0.351 C 
ATOM     21  OXT LIG    1        1.152   3.647   1.319  0.00  0.00    -0.244 OA
BRANCH  20  22
ATOM     22  O   LIG    1        3.017   2.908   0.329  0.00  0.00    -0.476 OA
ATOM     23  H   LIG    1        3.813   3.060   0.926  0.00  0.00    +0.295 HD
ENDBRANCH  20  22
ENDBRANCH   1  20
BRANCH   9  24
ATOM     24  C   LIG    1        2.934   0.348  -0.613  0.00  0.00    +0.110 C 
BRANCH  24  25
ATOM     25  S   LIG    1        3.999  -0.912   0.214  0.00  0.00    -0.093 S 
BRANCH  25  26
ATOM     26  C   LIG    1        5.630  -0.828  -0.535  0.00  0.00    +0.159 A 
ATOM     27  S   LIG    1        7.016   0.087  -0.132  0.00  0.00    -0.048 S 
ATOM     28  C   LIG    1        8.059  -0.484  -1.377  0.00  0.00    +0.182 A 
ATOM     29  N   LIG    1        7.252  -1.334  -2.002  0.00  0.00    -0.149 NA
ATOM     30  N   LIG    1        6.071  -1.502  -1.593  0.00  0.00    -0.135 NA
ENDBRANCH  25  26
ENDBRANCH  24  25
ENDBRANCH   9  24
TORSDOF 8
