REMARK  Name = molecules/DZQVFHSCSRACSX-UHFFFAOYSA-N.pdb
REMARK                            x       y       z     vdW  Elec       q    Type
REMARK                         _______ _______ _______ _____ _____    ______ ____
ROOT
ATOM      1  S   LIG    1        0.487   2.431  -1.085  0.00  0.00    +0.075 S 
ATOM      2  O   LIG    1        0.136   3.306   0.089  0.00  0.00    -0.150 OA
ATOM      3  O   LIG    1        1.081   3.315  -2.158  0.00  0.00    -0.150 OA
ENDROOT
BRANCH   1   4
ATOM      4  C   LIG    1        1.674   1.239  -0.607  0.00  0.00    +0.109 A 
ATOM      5  C   LIG    1        1.692   0.844   0.713  0.00  0.00    +0.030 A 
ATOM      6  C   LIG    1        2.637  -0.104   1.114  0.00  0.00    +0.024 A 
ATOM      7  C   LIG    1        3.548  -0.656   0.242  0.00  0.00    +0.025 A 
ATOM      8  C   LIG    1        3.510  -0.245  -1.073  0.00  0.00    +0.024 A 
ATOM      9  C   LIG    1        2.579   0.695  -1.490  0.00  0.00    +0.030 A 
BRANCH   7  10
ATOM     10  N   LIG    1        4.494  -1.625   0.712  0.00  0.00    -0.358 N 
ATOM     11  H   LIG    1        4.306  -2.214   1.532  0.00  0.00    +0.142 HD
ATOM     12  H   LIG    1        5.409  -1.748   0.214  0.00  0.00    +0.142 HD
ENDBRANCH   7  10
ENDBRANCH   1   4
BRANCH   1  13
ATOM     13  N   LIG    1       -0.952   1.693  -1.679  0.00  0.00    -0.184 N 
ATOM     14  H   LIG    1       -1.220   1.890  -2.667  0.00  0.00    +0.177 HD
BRANCH  13  15
ATOM     15  C   LIG    1       -1.764   0.839  -0.870  0.00  0.00    +0.235 A 
ATOM     16  N   LIG    1       -1.468   0.552   0.408  0.00  0.00    -0.221 NA
ATOM     17  C   LIG    1       -2.245  -0.258   1.167  0.00  0.00    +0.119 A 
ATOM     18  C   LIG    1       -3.389  -0.825   0.642  0.00  0.00    -0.014 A 
ATOM     19  C   LIG    1       -4.255  -1.718   1.462  0.00  0.00    +0.047 C 
ATOM     20  C   LIG    1       -3.684  -0.523  -0.673  0.00  0.00    +0.119 A 
ATOM     21  N   LIG    1       -2.879   0.287  -1.383  0.00  0.00    -0.221 NA
ENDBRANCH  13  15
ENDBRANCH   1  13
TORSDOF 4
