REMARK  Name = molecules/DZZWHBIBMUVIIW-DTORHVGOSA-N.pdb
REMARK                            x       y       z     vdW  Elec       q    Type
REMARK                         _______ _______ _______ _____ _____    ______ ____
ROOT
ATOM      1  F   LIG    1       -0.525  -1.231  -1.192  0.00  0.00    -0.201 F 
ATOM      2  C   LIG    1       -0.621  -0.179  -0.362  0.00  0.00    +0.171 A 
ATOM      3  C   LIG    1        0.564   0.249   0.228  0.00  0.00    +0.105 A 
ATOM      4  C   LIG    1        0.472   1.333   1.076  0.00  0.00    +0.168 A 
ATOM      5  F   LIG    1        1.612   1.766   1.661  0.00  0.00    -0.201 F 
ATOM      6  C   LIG    1       -0.732   1.952   1.321  0.00  0.00    +0.075 A 
ATOM      7  C   LIG    1       -1.886   1.491   0.711  0.00  0.00    +0.072 A 
ATOM      8  C   LIG    1       -3.084   2.102   0.947  0.00  0.00    +0.205 A 
ATOM      9  O   LIG    1       -3.090   3.085   1.733  0.00  0.00    -0.286 OA
ATOM     10  C   LIG    1       -4.213   1.637   0.336  0.00  0.00    +0.122 A 
ATOM     11  C   LIG    1       -4.123   0.543  -0.520  0.00  0.00    +0.105 A 
ATOM     12  N   LIG    1       -2.953  -0.069  -0.763  0.00  0.00    -0.340 N 
ATOM     13  C   LIG    1       -1.837   0.401  -0.151  0.00  0.00    +0.092 A 
ENDROOT
BRANCH   3  14
ATOM     14  N   LIG    1        1.775  -0.408  -0.047  0.00  0.00    -0.322 N 
ATOM     15  C   LIG    1        2.310  -1.513   0.680  0.00  0.00    +0.123 C 
ATOM     16  C   LIG    1        3.786  -1.586   0.752  0.00  0.00    +0.068 C 
ATOM     17  C   LIG    1        4.287  -3.036   0.816  0.00  0.00    +0.025 C 
ATOM     18  N   LIG    1        4.494  -0.962  -0.317  0.00  0.00    -0.308 NA
ATOM     19  C   LIG    1        3.939   0.353  -0.624  0.00  0.00    +0.068 C 
ATOM     20  C   LIG    1        4.810   1.122  -1.570  0.00  0.00    +0.025 C 
ATOM     21  H   LIG    1        4.377  -1.530  -1.198  0.00  0.00    +0.123 HD
ATOM     22  C   LIG    1        2.559   0.089  -1.187  0.00  0.00    +0.123 C 
ENDBRANCH   3  14
BRANCH   6  23
ATOM     23  N   LIG    1       -0.822   3.063   2.192  0.00  0.00    -0.355 N 
ATOM     24  H   LIG    1       -1.088   2.878   3.189  0.00  0.00    +0.142 HD
ATOM     25  H   LIG    1       -0.630   4.003   1.834  0.00  0.00    +0.142 HD
ENDBRANCH   6  23
BRANCH  12  26
ATOM     26  C   LIG    1       -2.809  -1.210  -1.639  0.00  0.00    +0.088 C 
ATOM     27  C   LIG    1       -2.853  -2.563  -1.022  0.00  0.00    +0.027 C 
ATOM     28  C   LIG    1       -4.048  -2.115  -1.781  0.00  0.00    +0.027 C 
ENDBRANCH  12  26
BRANCH  10  29
ATOM     29  C   LIG    1       -5.487   2.286   0.586  0.00  0.00    +0.342 C 
ATOM     30  O   LIG    1       -6.514   1.843   0.014  0.00  0.00    -0.245 OA
BRANCH  29  31
ATOM     31  O   LIG    1       -5.593   3.365   1.427  0.00  0.00    -0.477 OA
ATOM     32  H   LIG    1       -5.448   4.330   1.170  0.00  0.00    +0.295 HD
ENDBRANCH  29  31
ENDBRANCH  10  29
TORSDOF 5
