REMARK  Name = molecules/FAEKWTJYAYMJKF-QHCPKHFHSA-N.pdb
REMARK                            x       y       z     vdW  Elec       q    Type
REMARK                         _______ _______ _______ _____ _____    ______ ____
ROOT
ATOM      1  N   LIG    1       -1.092   1.532   1.015  0.00  0.00    -0.308 N 
ATOM      2  H   LIG    1       -1.404   1.589   2.017  0.00  0.00    +0.149 HD
ATOM      3  C   LIG    1        0.250   1.122   0.826  0.00  0.00    +0.218 C 
ATOM      4  O   LIG    1        0.805   0.975  -0.289  0.00  0.00    -0.275 OA
ENDROOT
BRANCH   1   5
ATOM      5  C   LIG    1       -1.970   1.820  -0.081  0.00  0.00    +0.105 C 
BRANCH   5   6
ATOM      6  C   LIG    1       -1.282   1.346  -1.352  0.00  0.00    -0.006 A 
ATOM      7  C   LIG    1       -1.313   0.012  -1.655  0.00  0.00    +0.035 A 
ATOM      8  C   LIG    1       -0.659  -0.416  -2.823  0.00  0.00    +0.023 A 
ATOM      9  C   LIG    1       -0.011   0.439  -3.646  0.00  0.00    +0.002 A 
ATOM     10  C   LIG    1        0.017   1.777  -3.341  0.00  0.00    +0.000 A 
ATOM     11  C   LIG    1       -0.622   2.222  -2.191  0.00  0.00    +0.007 A 
BRANCH   7  12
ATOM     12  N   LIG    1       -1.964  -1.026  -0.965  0.00  0.00    -0.330 N 
ATOM     13  C   LIG    1       -1.562  -1.590   0.260  0.00  0.00    +0.105 C 
ATOM     14  C   LIG    1       -1.917  -3.058   0.414  0.00  0.00    +0.019 C 
ATOM     15  C   LIG    1       -3.214  -3.437  -0.201  0.00  0.00    +0.003 C 
ATOM     16  C   LIG    1       -4.015  -2.211  -0.652  0.00  0.00    +0.019 C 
ATOM     17  C   LIG    1       -3.174  -1.514  -1.673  0.00  0.00    +0.105 C 
ENDBRANCH   7  12
ENDBRANCH   5   6
BRANCH   5  18
ATOM     18  C   LIG    1       -2.290   3.261  -0.197  0.00  0.00    +0.030 C 
BRANCH  18  19
ATOM     19  C   LIG    1       -2.991   3.913   0.928  0.00  0.00    -0.015 C 
ATOM     20  C   LIG    1       -2.337   3.947   2.253  0.00  0.00    +0.007 C 
ATOM     21  C   LIG    1       -4.444   3.454   1.051  0.00  0.00    +0.007 C 
ENDBRANCH  18  19
ENDBRANCH   5  18
ENDBRANCH   1   5
BRANCH   3  22
ATOM     22  C   LIG    1        1.133   0.825   2.018  0.00  0.00    +0.131 C 
BRANCH  22  23
ATOM     23  C   LIG    1        2.476   0.488   1.536  0.00  0.00    -0.035 A 
ATOM     24  C   LIG    1        3.441   1.464   1.477  0.00  0.00    +0.005 A 
ATOM     25  C   LIG    1        4.715   1.168   1.027  0.00  0.00    +0.019 A 
ATOM     26  C   LIG    1        5.074  -0.125   0.616  0.00  0.00    +0.100 A 
ATOM     27  C   LIG    1        4.080  -1.075   0.689  0.00  0.00    +0.135 A 
ATOM     28  C   LIG    1        2.792  -0.783   1.143  0.00  0.00    +0.050 A 
BRANCH  26  29
ATOM     29  C   LIG    1        6.426  -0.401   0.146  0.00  0.00    +0.340 C 
ATOM     30  O   LIG    1        7.276   0.521   0.113  0.00  0.00    -0.245 OA
BRANCH  29  31
ATOM     31  O   LIG    1        6.820  -1.660  -0.272  0.00  0.00    -0.477 OA
ATOM     32  H   LIG    1        7.780  -1.962  -0.275  0.00  0.00    +0.295 HD
ENDBRANCH  29  31
ENDBRANCH  26  29
BRANCH  27  33
ATOM     33  O   LIG    1        4.395  -2.379   0.287  0.00  0.00    -0.491 OA
BRANCH  33  34
ATOM     34  C   LIG    1        3.425  -3.415   0.335  0.00  0.00    +0.226 C 
ATOM     35  C   LIG    1        4.005  -4.710  -0.149  0.00  0.00    +0.048 C 
ENDBRANCH  33  34
ENDBRANCH  27  33
ENDBRANCH  22  23
ENDBRANCH   3  22
TORSDOF 11
