REMARK  Name = molecules/FAKRSMQSSFJEIM-RQJHMYQMSA-N.pdb
REMARK                            x       y       z     vdW  Elec       q    Type
REMARK                         _______ _______ _______ _____ _____    ______ ____
ROOT
ATOM      1  C   LIG    1        0.605   0.728  -0.279  0.00  0.00    +0.220 C 
ATOM      2  N   LIG    1       -0.499  -0.141  -0.239  0.00  0.00    -0.288 N 
ATOM      3  C   LIG    1       -0.499  -1.467   0.358  0.00  0.00    +0.109 C 
ATOM      4  C   LIG    1       -1.939  -1.589   0.894  0.00  0.00    +0.021 C 
ATOM      5  C   LIG    1       -2.689  -1.048  -0.307  0.00  0.00    +0.035 C 
ATOM      6  C   LIG    1       -1.823   0.096  -0.759  0.00  0.00    +0.184 C 
ATOM      7  O   LIG    1        0.416   1.863  -0.844  0.00  0.00    -0.275 OA
ENDROOT
BRANCH   1   8
ATOM      8  C   LIG    1        1.950   0.441   0.274  0.00  0.00    +0.082 C 
ATOM      9  C   LIG    1        2.752   1.698   0.246  0.00  0.00    +0.018 C 
BRANCH   8  10
ATOM     10  C   LIG    1        2.548  -0.687  -0.504  0.00  0.00    +0.078 C 
BRANCH  10  11
ATOM     11  S   LIG    1        4.195  -1.154   0.049  0.00  0.00    -0.178 S 
ATOM     12  H   LIG    1        4.833  -0.182   0.798  0.00  0.00    +0.102 HD
ENDBRANCH  10  11
ENDBRANCH   8  10
ENDBRANCH   1   8
BRANCH   6  13
ATOM     13  C   LIG    1       -2.374   1.347  -0.135  0.00  0.00    +0.325 C 
ATOM     14  O   LIG    1       -1.712   1.995   0.695  0.00  0.00    -0.249 OA
BRANCH  13  15
ATOM     15  O   LIG    1       -3.635   1.813  -0.466  0.00  0.00    -0.479 OA
ATOM     16  H   LIG    1       -4.414   1.679   0.178  0.00  0.00    +0.295 HD
ENDBRANCH  13  15
ENDBRANCH   6  13
TORSDOF 5
