REMARK  Name = molecules/FAOZLTXFLGPHNG-KNAQIMQKSA-N.pdb
REMARK                            x       y       z     vdW  Elec       q    Type
REMARK                         _______ _______ _______ _____ _____    ______ ____
ROOT
ATOM      1  F   LIG    1       -1.067   0.711   1.454  0.00  0.00    -0.238 F 
ATOM      2  C   LIG    1       -0.916  -0.363   0.565  0.00  0.00    +0.153 C 
ATOM      3  C   LIG    1       -0.002  -1.339   1.224  0.00  0.00    +0.154 C 
ATOM      4  C   LIG    1        1.340  -0.755   1.530  0.00  0.00    +0.044 C 
ATOM      5  C   LIG    1        1.977  -0.193   0.302  0.00  0.00    +0.009 C 
ATOM      6  C   LIG    1        3.128   0.742   0.604  0.00  0.00    +0.129 C 
ATOM      7  C   LIG    1        3.079   1.804  -0.484  0.00  0.00    +0.043 C 
ATOM      8  C   LIG    1        1.811   1.517  -1.279  0.00  0.00    +0.008 C 
ATOM      9  C   LIG    1        0.988   0.842  -0.254  0.00  0.00    +0.005 C 
ATOM     10  C   LIG    1        2.290  -1.253  -0.683  0.00  0.00    +0.015 C 
ATOM     11  C   LIG    1       -2.302  -0.886   0.309  0.00  0.00    +0.045 C 
ATOM     12  C   LIG    1       -2.898  -1.401   1.517  0.00  0.00    -0.009 C 
ATOM     13  C   LIG    1       -4.005  -0.946   2.037  0.00  0.00    +0.047 C 
ATOM     14  C   LIG    1       -4.746   0.142   1.430  0.00  0.00    +0.179 C 
ATOM     15  O   LIG    1       -5.827   0.586   1.937  0.00  0.00    -0.288 OA
ATOM     16  C   LIG    1       -4.201   0.709   0.211  0.00  0.00    +0.051 C 
ATOM     17  C   LIG    1       -3.088   0.219  -0.271  0.00  0.00    -0.050 C 
ATOM     18  C   LIG    1       -2.578   0.868  -1.540  0.00  0.00    +0.013 C 
ATOM     19  C   LIG    1       -1.188   1.359  -1.188  0.00  0.00    +0.014 C 
ATOM     20  C   LIG    1       -3.397   2.076  -1.884  0.00  0.00    +0.012 C 
ATOM     21  C   LIG    1       -2.303  -1.997  -0.730  0.00  0.00    +0.023 C 
ATOM     22  C   LIG    1       -0.296   0.248  -0.688  0.00  0.00    +0.034 C 
ENDROOT
BRANCH   6  23
ATOM     23  C   LIG    1        4.433   0.096   0.748  0.00  0.00    +0.162 C 
ATOM     24  O   LIG    1        4.932   0.076   1.890  0.00  0.00    -0.295 OA
ATOM     25  C   LIG    1        5.243  -0.541  -0.297  0.00  0.00    +0.089 C 
ENDBRANCH   6  23
BRANCH   6  26
ATOM     26  O   LIG    1        2.758   1.345   1.838  0.00  0.00    -0.381 OA
ATOM     27  H   LIG    1        3.303   0.972   2.576  0.00  0.00    +0.211 HD
ENDBRANCH   6  26
BRANCH   3  28
ATOM     28  O   LIG    1        0.114  -2.552   0.570  0.00  0.00    -0.389 OA
ATOM     29  H   LIG    1        0.260  -3.297   1.214  0.00  0.00    +0.210 HD
ENDBRANCH   3  28
TORSDOF 3
