REMARK  Name = molecules/FASDKYOPVNHBLU-ZETCQYMHSA-N.pdb
REMARK                            x       y       z     vdW  Elec       q    Type
REMARK                         _______ _______ _______ _____ _____    ______ ____
ROOT
ATOM      1  C   LIG    1       -3.935   0.639  -0.796  0.00  0.00    +0.156 A 
ATOM      2  N   LIG    1       -3.425   0.388   0.385  0.00  0.00    -0.230 NA
ATOM      3  C   LIG    1       -2.368  -0.339   0.519  0.00  0.00    +0.054 A 
ATOM      4  C   LIG    1       -1.581  -0.769   1.760  0.00  0.00    +0.058 C 
ATOM      5  C   LIG    1       -0.162  -0.283   1.455  0.00  0.00    +0.025 C 
ATOM      6  C   LIG    1        0.422  -1.202   0.432  0.00  0.00    +0.059 C 
ATOM      7  C   LIG    1       -0.571  -1.702  -0.567  0.00  0.00    +0.063 C 
ATOM      8  C   LIG    1       -1.800  -0.844  -0.636  0.00  0.00    +0.016 A 
ATOM      9  S   LIG    1       -2.850  -0.214  -1.834  0.00  0.00    -0.057 S 
ENDROOT
BRANCH   1  10
ATOM     10  N   LIG    1       -5.092   1.416  -1.159  0.00  0.00    -0.338 N 
ATOM     11  H   LIG    1       -5.559   2.008  -0.465  0.00  0.00    +0.144 HD
ATOM     12  H   LIG    1       -5.431   1.374  -2.130  0.00  0.00    +0.144 HD
ENDBRANCH   1  10
BRANCH   6  13
ATOM     13  N   LIG    1        1.629  -0.725  -0.196  0.00  0.00    -0.313 NA
ATOM     14  H   LIG    1        1.347  -0.338  -1.150  0.00  0.00    +0.122 HD
BRANCH  13  15
ATOM     15  C   LIG    1        2.273   0.315   0.590  0.00  0.00    +0.081 C 
BRANCH  15  16
ATOM     16  C   LIG    1        3.618   0.699   0.072  0.00  0.00    +0.012 C 
ATOM     17  C   LIG    1        3.662   1.225  -1.320  0.00  0.00    +0.005 C 
ENDBRANCH  15  16
ENDBRANCH  13  15
ENDBRANCH   6  13
TORSDOF 4
