REMARK  Name = molecules/FATAHBJTOKXSDH-UHFFFAOYSA-M.pdb
REMARK                            x       y       z     vdW  Elec       q    Type
REMARK                         _______ _______ _______ _____ _____    ______ ____
ROOT
ATOM      1 AS   LIG    1       -2.903  -2.462  -0.722  0.00  0.00    +0.000 As
ATOM      2  O   LIG    1       -3.366  -2.306  -2.292  0.00  0.00    +0.000 OA
ENDROOT
BRANCH   1   3
ATOM      3  O   LIG    1       -2.400  -4.223  -0.479  0.00  0.00    +0.000 OA
ATOM      4  H   LIG    1       -3.231  -4.760  -0.449  0.00  0.00    +0.000 HD
ENDBRANCH   1   3
BRANCH   1   5
ATOM      5  O   LIG    1       -4.254  -2.040   0.433  0.00  0.00    +0.000 OA
BRANCH   5   6
ATOM      6 BI   LIG    1       -5.611  -0.653  -0.371  0.00  0.00    +0.000 Bi
ATOM      7  O   LIG    1       -5.681   1.090   0.427  0.00  0.00    +0.000 OA
ENDBRANCH   5   6
ENDBRANCH   1   5
TORSDOF 3
REMARK  Name = molecules/FATAHBJTOKXSDH-UHFFFAOYSA-M.pdb
REMARK                            x       y       z     vdW  Elec       q    Type
REMARK                         _______ _______ _______ _____ _____    ______ ____
ROOT
ATOM      1  N   LIG    1        2.150   0.973   0.176  0.00  0.00    +0.000 N 
ATOM      2  C   LIG    1        2.231   2.334   0.477  0.00  0.00    +0.000 C 
ATOM      3  O   LIG    1        1.269   3.102   0.618  0.00  0.00    +0.000 OA
ATOM      4  H   LIG    1        3.083   0.454   0.089  0.00  0.00    +0.000 HD
ENDROOT
BRANCH   1   8
ATOM      5  C   LIG    1       -1.333  -1.360  -0.436  0.00  0.00    +0.000 A 
ATOM      6  C   LIG    1       -1.429  -0.019  -0.144  0.00  0.00    +0.000 A 
ATOM      7  C   LIG    1       -0.294   0.786   0.065  0.00  0.00    +0.000 A 
ATOM      8  C   LIG    1        0.956   0.259  -0.015  0.00  0.00    +0.000 A 
ATOM      9  C   LIG    1        1.071  -1.110  -0.312  0.00  0.00    +0.000 A 
ATOM     10  C   LIG    1       -0.053  -1.864  -0.510  0.00  0.00    +0.000 A 
ENDBRANCH   1   8
BRANCH   2  11
ATOM     11  C   LIG    1        3.584   2.975   0.656  0.00  0.00    +0.000 C 
BRANCH  11  12
ATOM     12  O   LIG    1        4.535   1.989   0.467  0.00  0.00    +0.000 OA
ATOM     13  H   LIG    1        5.098   1.925   1.297  0.00  0.00    +0.000 HD
ENDBRANCH  11  12
ENDBRANCH   2  11
TORSDOF 3
