REMARK  Name = molecules/FBHSPRKOSMHSIF-GRMWVWQJSA-N.pdb
REMARK                            x       y       z     vdW  Elec       q    Type
REMARK                         _______ _______ _______ _____ _____    ______ ____
ROOT
ATOM      1  C   LIG    1        1.959   0.140   1.259  0.00  0.00    +0.168 C 
ATOM      2  C   LIG    1        1.375   0.726   2.525  0.00  0.00    +0.211 C 
ATOM      3  O   LIG    1        1.286  -0.374   3.376  0.00  0.00    -0.474 OA
ATOM      4  C   LIG    1        1.738  -1.539   2.772  0.00  0.00    +0.183 C 
ATOM      5  C   LIG    1        1.755  -2.882   3.450  0.00  0.00    +0.108 C 
ATOM      6  C   LIG    1       -0.043   1.155   2.171  0.00  0.00    +0.052 C 
ATOM      7  C   LIG    1       -0.347   0.149   1.117  0.00  0.00    +0.005 C 
ATOM      8  C   LIG    1       -1.558   0.381   0.302  0.00  0.00    -0.000 C 
ATOM      9  C   LIG    1       -2.778   0.693   1.142  0.00  0.00    +0.008 C 
ATOM     10  C   LIG    1       -3.883   1.051   0.167  0.00  0.00    +0.032 C 
ATOM     11  C   LIG    1       -4.095  -0.226  -0.610  0.00  0.00    -0.056 C 
ATOM     12  C   LIG    1       -5.257  -0.801  -0.526  0.00  0.00    +0.051 C 
ATOM     13  C   LIG    1       -5.582  -2.073  -1.176  0.00  0.00    +0.179 C 
ATOM     14  O   LIG    1       -6.707  -2.604  -1.081  0.00  0.00    -0.288 OA
ATOM     15  C   LIG    1       -4.505  -2.681  -1.942  0.00  0.00    +0.047 C 
ATOM     16  C   LIG    1       -3.339  -2.056  -2.000  0.00  0.00    -0.012 C 
ATOM     17  C   LIG    1       -2.982  -0.792  -1.376  0.00  0.00    +0.013 C 
ATOM     18  C   LIG    1       -2.773   0.192  -2.553  0.00  0.00    +0.020 C 
ATOM     19  C   LIG    1       -1.734  -0.884  -0.547  0.00  0.00    +0.035 C 
ATOM     20  C   LIG    1       -0.506  -1.160  -1.337  0.00  0.00    +0.120 C 
ATOM     21  C   LIG    1        0.785  -1.040  -0.611  0.00  0.00    +0.041 C 
ATOM     22  N   LIG    1        2.134  -1.314   1.569  0.00  0.00    -0.236 NA
ATOM     23  C   LIG    1        0.868   0.232   0.222  0.00  0.00    +0.009 C 
ATOM     24  C   LIG    1        0.972   1.451  -0.599  0.00  0.00    +0.014 C 
ENDROOT
BRANCH   1  25
ATOM     25  C   LIG    1        3.257   0.697   0.894  0.00  0.00    +0.202 C 
ATOM     26  O   LIG    1        4.118  -0.109   0.497  0.00  0.00    -0.291 OA
BRANCH  25  27
ATOM     27  C   LIG    1        3.654   2.097   0.953  0.00  0.00    +0.308 C 
BRANCH  27  28
ATOM     28  O   LIG    1        5.001   2.301   0.554  0.00  0.00    -0.457 OA
BRANCH  28  29
ATOM     29  C   LIG    1        5.466   1.971  -0.700  0.00  0.00    +0.304 C 
ATOM     30  C   LIG    1        6.878   2.185  -1.121  0.00  0.00    +0.136 C 
ATOM     31  O   LIG    1        4.675   1.474  -1.521  0.00  0.00    -0.251 OA
ENDBRANCH  28  29
ENDBRANCH  27  28
ENDBRANCH  25  27
ENDBRANCH   1  25
BRANCH  20  32
ATOM     32  O   LIG    1       -0.404  -0.477  -2.543  0.00  0.00    -0.391 OA
ATOM     33  H   LIG    1        0.014  -1.031  -3.252  0.00  0.00    +0.210 HD
ENDBRANCH  20  32
TORSDOF 5
