REMARK  Name = molecules/FBTUMDXHSRTGRV-BJISBDEGSA-N.pdb
REMARK                            x       y       z     vdW  Elec       q    Type
REMARK                         _______ _______ _______ _____ _____    ______ ____
ROOT
ATOM      1  C   LIG    1       -0.119  -1.787   1.930  0.00  0.00    +0.132 A 
ATOM      2  C   LIG    1       -0.084  -0.426   1.661  0.00  0.00    +0.007 A 
ATOM      3  C   LIG    1        0.697   0.506   2.506  0.00  0.00    +0.080 C 
ATOM      4  C   LIG    1        1.555   1.357   1.616  0.00  0.00    +0.112 C 
ATOM      5  C   LIG    1        0.848   1.905   0.435  0.00  0.00    +0.077 C 
ATOM      6  C   LIG    1       -0.651   1.616   0.405  0.00  0.00    +0.158 C 
ATOM      7  C   LIG    1       -0.776   0.151   0.596  0.00  0.00    +0.030 A 
ATOM      8  C   LIG    1       -1.516  -0.675  -0.207  0.00  0.00    +0.134 A 
ATOM      9  C   LIG    1       -1.576  -2.059   0.035  0.00  0.00    +0.078 A 
ATOM     10  C   LIG    1       -2.389  -2.882  -0.869  0.00  0.00    +0.202 C 
ATOM     11  C   LIG    1       -2.451  -4.324  -0.620  0.00  0.00    +0.075 A 
ATOM     12  C   LIG    1       -1.770  -4.908   0.432  0.00  0.00    +0.037 A 
ATOM     13  C   LIG    1       -0.973  -4.037   1.302  0.00  0.00    +0.198 C 
ATOM     14  O   LIG    1       -0.347  -4.535   2.260  0.00  0.00    -0.286 OA
ATOM     15  C   LIG    1       -1.859  -6.272   0.624  0.00  0.00    +0.012 A 
ATOM     16  C   LIG    1       -2.616  -7.077  -0.209  0.00  0.00    +0.004 A 
ATOM     17  C   LIG    1       -3.284  -6.478  -1.247  0.00  0.00    +0.046 A 
ATOM     18  C   LIG    1       -3.219  -5.114  -1.472  0.00  0.00    +0.132 A 
ATOM     19  O   LIG    1       -3.016  -2.367  -1.831  0.00  0.00    -0.286 OA
ATOM     20  C   LIG    1       -0.886  -2.603   1.089  0.00  0.00    +0.078 A 
ENDROOT
BRANCH   4  21
ATOM     21  C   LIG    1        2.777   0.607   1.192  0.00  0.00    +0.066 C 
ATOM     22  C   LIG    1        3.767   0.086   2.140  0.00  0.00    +0.065 C 
ATOM     23  N   LIG    1        2.980   0.402  -0.081  0.00  0.00    -0.186 NA
BRANCH  23  24
ATOM     24  N   LIG    1        4.077  -0.278  -0.564  0.00  0.00    -0.203 N 
ATOM     25  H   LIG    1        4.039  -1.317  -0.567  0.00  0.00    +0.178 HD
ATOM     26  C   LIG    1        5.223   0.395  -1.041  0.00  0.00    +0.263 C 
ATOM     27  O   LIG    1        5.200   1.673  -1.007  0.00  0.00    -0.268 OA
BRANCH  26  28
ATOM     28  C   LIG    1        6.410  -0.261  -1.562  0.00  0.00    +0.038 A 
ATOM     29  C   LIG    1        6.524  -1.629  -1.652  0.00  0.00    +0.013 A 
ATOM     30  C   LIG    1        7.667  -2.260  -2.152  0.00  0.00    +0.001 A 
ATOM     31  C   LIG    1        8.721  -1.478  -2.570  0.00  0.00    +0.000 A 
ATOM     32  C   LIG    1        8.623  -0.102  -2.486  0.00  0.00    +0.001 A 
ATOM     33  C   LIG    1        7.488   0.499  -1.991  0.00  0.00    +0.013 A 
ENDBRANCH  26  28
ENDBRANCH  23  24
ENDBRANCH   4  21
BRANCH   1  34
ATOM     34  O   LIG    1        0.567  -2.362   2.986  0.00  0.00    -0.506 OA
ATOM     35  H   LIG    1        1.137  -1.922   3.651  0.00  0.00    +0.292 HD
ENDBRANCH   1  34
BRANCH   4  36
ATOM     36  O   LIG    1        2.025   2.465   2.363  0.00  0.00    -0.382 OA
ATOM     37  H   LIG    1        1.334   2.770   3.010  0.00  0.00    +0.211 HD
ENDBRANCH   4  36
BRANCH  18  38
ATOM     38  O   LIG    1       -3.890  -4.491  -2.518  0.00  0.00    -0.494 OA
ATOM     39  C   LIG    1       -4.668  -5.296  -3.380  0.00  0.00    +0.277 C 
ENDBRANCH  18  38
BRANCH   8  40
ATOM     40  O   LIG    1       -2.215  -0.132  -1.269  0.00  0.00    -0.506 OA
ATOM     41  H   LIG    1       -2.271   0.803  -1.556  0.00  0.00    +0.292 HD
ENDBRANCH   8  40
BRANCH   6  42
ATOM     42  O   LIG    1       -1.213   2.373   1.405  0.00  0.00    -0.343 OA
BRANCH  42  43
ATOM     43  C   LIG    1       -2.022   3.345   0.838  0.00  0.00    +0.253 C 
ATOM     44  C   LIG    1       -3.414   3.145   1.378  0.00  0.00    +0.082 C 
ATOM     45  C   LIG    1       -4.250   4.363   1.462  0.00  0.00    +0.087 C 
ATOM     46  C   LIG    1       -3.651   5.628   0.962  0.00  0.00    +0.160 C 
ATOM     47  C   LIG    1       -2.310   5.499   0.321  0.00  0.00    +0.148 C 
ATOM     48  C   LIG    1       -2.360   5.131  -1.133  0.00  0.00    +0.041 C 
ATOM     49  O   LIG    1       -1.544   4.632   1.088  0.00  0.00    -0.346 OA
BRANCH  45  50
ATOM     50  N   LIG    1       -5.468   4.123   0.671  0.00  0.00    -0.325 NA
ATOM     51  H   LIG    1       -6.122   3.585   1.279  0.00  0.00    +0.119 HD
ATOM     52  H   LIG    1       -5.201   3.466  -0.108  0.00  0.00    +0.119 HD
ENDBRANCH  45  50
BRANCH  46  53
ATOM     53  O   LIG    1       -4.486   6.288   0.032  0.00  0.00    -0.388 OA
ATOM     54  H   LIG    1       -4.677   5.707  -0.732  0.00  0.00    +0.210 HD
ENDBRANCH  46  53
ENDBRANCH  42  43
ENDBRANCH   6  42
TORSDOF 11
