REMARK  Name = molecules/FBVFZWUMDDXLLG-HDICACEKSA-N.pdb
REMARK                            x       y       z     vdW  Elec       q    Type
REMARK                         _______ _______ _______ _____ _____    ______ ____
ROOT
ATOM      1  C   LIG    1       -0.319  -0.417   0.268  0.00  0.00    +0.084 C 
ENDROOT
BRANCH   1   2
ATOM      2  N   LIG    1        1.003  -0.222  -0.301  0.00  0.00    -0.299 NA
ATOM      3  C   LIG    1        1.880   0.078   0.797  0.00  0.00    +0.103 C 
ATOM      4  C   LIG    1        3.306   0.431   0.335  0.00  0.00    +0.122 C 
ATOM      5  N   LIG    1        3.749  -0.645  -0.502  0.00  0.00    -0.312 N 
ATOM      6  C   LIG    1        2.849  -1.122  -1.523  0.00  0.00    +0.122 C 
ATOM      7  C   LIG    1        1.460  -1.386  -1.042  0.00  0.00    +0.103 C 
BRANCH   5   8
ATOM      8  C   LIG    1        5.050  -1.295  -0.336  0.00  0.00    +0.138 A 
ATOM      9  C   LIG    1        6.193  -0.655   0.038  0.00  0.00    +0.031 A 
ATOM     10  C   LIG    1        6.387   0.727   0.275  0.00  0.00    +0.012 A 
ATOM     11  C   LIG    1        7.629   1.199   0.638  0.00  0.00    +0.001 A 
ATOM     12  C   LIG    1        8.729   0.413   0.793  0.00  0.00    +0.001 A 
ATOM     13  C   LIG    1        8.565  -0.935   0.566  0.00  0.00    +0.017 A 
ATOM     14  C   LIG    1        7.303  -1.444   0.192  0.00  0.00    +0.041 A 
ATOM     15  S   LIG    1        6.718  -3.005  -0.183  0.00  0.00    +0.014 S 
ATOM     16  N   LIG    1        5.131  -2.619  -0.514  0.00  0.00    -0.194 NA
ENDBRANCH   5   8
ENDBRANCH   1   2
BRANCH   1  17
ATOM     17  C   LIG    1       -1.387  -0.502  -0.768  0.00  0.00    +0.017 C 
BRANCH  17  18
ATOM     18  C   LIG    1       -1.534   0.696  -1.634  0.00  0.00    +0.021 C 
BRANCH  18  19
ATOM     19  C   LIG    1       -1.924   1.947  -0.905  0.00  0.00    +0.116 C 
BRANCH  19  20
ATOM     20  N   LIG    1       -3.211   1.856  -0.262  0.00  0.00    -0.242 N 
ATOM     21  C   LIG    1       -3.558   1.460   1.040  0.00  0.00    +0.226 C 
ATOM     22  O   LIG    1       -2.773   1.421   2.051  0.00  0.00    -0.275 OA
ATOM     23  C   LIG    1       -4.985   1.092   1.070  0.00  0.00    +0.087 C 
ATOM     24  C   LIG    1       -5.099  -0.343   1.542  0.00  0.00    +0.013 C 
ATOM     25  C   LIG    1       -6.374  -0.991   1.028  0.00  0.00    +0.001 C 
ATOM     26  C   LIG    1       -6.394  -1.026  -0.486  0.00  0.00    +0.001 C 
ATOM     27  C   LIG    1       -5.558   0.037  -1.116  0.00  0.00    +0.013 C 
ATOM     28  C   LIG    1       -5.512   1.318  -0.299  0.00  0.00    +0.087 C 
ATOM     29  C   LIG    1       -4.464   2.174  -0.917  0.00  0.00    +0.226 C 
ATOM     30  O   LIG    1       -4.616   3.008  -1.824  0.00  0.00    -0.275 OA
ENDBRANCH  19  20
ENDBRANCH  18  19
ENDBRANCH  17  18
ENDBRANCH   1  17
TORSDOF 6
