REMARK  Name = molecules/FCKJYANJHNLEEP-XRWYNYHCSA-N.pdb
REMARK                            x       y       z     vdW  Elec       q    Type
REMARK                         _______ _______ _______ _____ _____    ______ ____
ROOT
ATOM      1  C   LIG    1        0.038   0.586  -0.347  0.00  0.00    +0.012 C 
ATOM      2  C   LIG    1        0.520  -0.752  -0.014  0.00  0.00    -0.022 C 
ATOM      3  C   LIG    1        1.449  -0.990   1.085  0.00  0.00    -0.002 C 
ATOM      4  C   LIG    1        0.677  -1.480   2.291  0.00  0.00    +0.005 C 
ATOM      5  C   LIG    1       -0.772  -1.300   1.859  0.00  0.00    +0.009 C 
ATOM      6  C   LIG    1       -0.656  -1.659   0.411  0.00  0.00    +0.021 C 
ATOM      7  C   LIG    1       -1.783  -1.276  -0.428  0.00  0.00    -0.066 C 
ATOM      8  C   LIG    1       -2.990  -0.963  -0.045  0.00  0.00    -0.000 C 
ATOM      9  C   LIG    1       -1.502  -1.265  -1.898  0.00  0.00    +0.031 C 
ATOM     10  C   LIG    1       -0.149  -1.779  -2.219  0.00  0.00    +0.005 C 
ATOM     11  C   LIG    1        0.968  -1.419  -1.329  0.00  0.00    +0.008 C 
ENDROOT
BRANCH   8  12
ATOM     12  C   LIG    1       -3.983  -0.605  -1.029  0.00  0.00    +0.004 C 
ATOM     13  C   LIG    1       -5.240  -0.320  -0.758  0.00  0.00    -0.042 C 
ATOM     14  C   LIG    1       -5.641  -0.394   0.652  0.00  0.00    -0.051 C 
ATOM     15  C   LIG    1       -5.318  -1.406   1.364  0.00  0.00    +0.012 C 
ATOM     16  C   LIG    1       -6.499   0.723   1.187  0.00  0.00    +0.037 C 
ATOM     17  C   LIG    1       -7.514   1.096   0.093  0.00  0.00    +0.036 C 
ATOM     18  C   LIG    1       -6.834   1.415  -1.190  0.00  0.00    +0.119 C 
ATOM     19  C   LIG    1       -6.240   0.130  -1.773  0.00  0.00    +0.066 C 
BRANCH  18  20
ATOM     20  O   LIG    1       -7.705   1.926  -2.120  0.00  0.00    -0.391 OA
ATOM     21  H   LIG    1       -8.118   2.749  -1.730  0.00  0.00    +0.210 HD
ENDBRANCH  18  20
ENDBRANCH   8  12
BRANCH   3  22
ATOM     22  C   LIG    1        2.431   0.010   1.526  0.00  0.00    -0.010 C 
ATOM     23  C   LIG    1        1.926   1.147   2.336  0.00  0.00    +0.008 C 
BRANCH  22  24
ATOM     24  C   LIG    1        3.411   0.414   0.418  0.00  0.00    +0.006 C 
BRANCH  24  25
ATOM     25  C   LIG    1        4.369   1.405   0.979  0.00  0.00    +0.034 C 
BRANCH  25  26
ATOM     26  C   LIG    1        5.402   1.939   0.035  0.00  0.00    +0.146 C 
BRANCH  26  27
ATOM     27  C   LIG    1        6.327   0.937  -0.570  0.00  0.00    +0.086 C 
ATOM     28  C   LIG    1        7.140   0.189   0.448  0.00  0.00    +0.043 C 
ATOM     29  C   LIG    1        5.717   0.005  -1.567  0.00  0.00    +0.043 C 
BRANCH  27  30
ATOM     30  O   LIG    1        7.267   1.716  -1.315  0.00  0.00    -0.387 OA
ATOM     31  H   LIG    1        7.782   1.137  -1.916  0.00  0.00    +0.210 HD
ENDBRANCH  27  30
ENDBRANCH  26  27
BRANCH  26  32
ATOM     32  O   LIG    1        6.254   2.809   0.796  0.00  0.00    -0.389 OA
ATOM     33  H   LIG    1        7.079   2.925   0.279  0.00  0.00    +0.210 HD
ENDBRANCH  26  32
ENDBRANCH  25  26
ENDBRANCH  24  25
ENDBRANCH  22  24
ENDBRANCH   3  22
TORSDOF 9
