REMARK  Name = molecules/FCKLFGKATYPJPG-SSTBVEFVSA-N.pdb
REMARK                            x       y       z     vdW  Elec       q    Type
REMARK                         _______ _______ _______ _____ _____    ______ ____
ROOT
ATOM      1  C   LIG    1        1.430  -1.711   0.466  0.00  0.00    +0.014 C 
ATOM      2  C   LIG    1        1.442  -0.315   0.991  0.00  0.00    -0.003 C 
ATOM      3  C   LIG    1        0.552  -0.219   2.211  0.00  0.00    +0.010 C 
ATOM      4  C   LIG    1       -0.864  -0.539   1.825  0.00  0.00    +0.005 C 
ATOM      5  C   LIG    1       -1.362   0.145   0.615  0.00  0.00    -0.000 C 
ATOM      6  C   LIG    1       -2.633  -0.517   0.117  0.00  0.00    +0.019 C 
ATOM      7  C   LIG    1       -3.663  -0.531   1.188  0.00  0.00    +0.016 C 
ATOM      8  C   LIG    1       -5.075  -0.573   0.694  0.00  0.00    +0.079 C 
ATOM      9  C   LIG    1       -5.306   0.416  -0.386  0.00  0.00    +0.156 C 
ATOM     10  O   LIG    1       -6.318   1.151  -0.444  0.00  0.00    -0.293 OA
ATOM     11  C   LIG    1       -4.291   0.520  -1.422  0.00  0.00    +0.045 C 
ATOM     12  C   LIG    1       -3.075   0.084  -1.161  0.00  0.00    -0.063 C 
ATOM     13  C   LIG    1       -2.071   0.209  -2.245  0.00  0.00    +0.031 C 
ATOM     14  C   LIG    1       -0.925   1.042  -1.652  0.00  0.00    +0.008 C 
ATOM     15  C   LIG    1       -0.356   0.192  -0.538  0.00  0.00    -0.003 C 
ATOM     16  C   LIG    1        2.840   0.178   1.229  0.00  0.00    +0.124 C 
ATOM     17  C   LIG    1        3.166   1.097   0.072  0.00  0.00    +0.018 C 
ATOM     18  C   LIG    1        2.045   0.917  -0.923  0.00  0.00    +0.010 C 
ATOM     19  C   LIG    1        0.902   0.721   0.029  0.00  0.00    +0.001 C 
ENDROOT
BRANCH  16  20
ATOM     20  O   LIG    1        3.777  -0.797   1.457  0.00  0.00    -0.391 OA
ATOM     21  H   LIG    1        3.752  -1.587   0.903  0.00  0.00    +0.210 HD
ENDBRANCH  16  20
BRANCH  17  22
ATOM     22  C   LIG    1        4.520   0.999  -0.479  0.00  0.00    +0.003 C 
ATOM     23  C   LIG    1        4.987  -0.277  -1.043  0.00  0.00    +0.004 C 
ENDBRANCH  17  22
TORSDOF 2
