REMARK  Name = molecules/FDDDEECHVMSUSB-UHFFFAOYSA-N.pdb
REMARK                            x       y       z     vdW  Elec       q    Type
REMARK                         _______ _______ _______ _____ _____    ______ ____
ROOT
ATOM      1  C   LIG    1        2.022  -0.345  -0.438  0.00  0.00    +0.025 A 
ATOM      2  C   LIG    1        1.237  -1.344   0.044  0.00  0.00    +0.024 A 
ATOM      3  C   LIG    1       -0.082  -1.104   0.359  0.00  0.00    +0.030 A 
ATOM      4  C   LIG    1       -0.629   0.133   0.197  0.00  0.00    +0.105 A 
ATOM      5  C   LIG    1        0.182   1.134  -0.293  0.00  0.00    +0.030 A 
ATOM      6  C   LIG    1        1.486   0.917  -0.610  0.00  0.00    +0.024 A 
ENDROOT
BRANCH   1   7
ATOM      7  N   LIG    1        3.387  -0.502  -0.787  0.00  0.00    -0.358 N 
ATOM      8  H   LIG    1        4.105  -0.634  -0.064  0.00  0.00    +0.142 HD
ATOM      9  H   LIG    1        3.641  -0.481  -1.798  0.00  0.00    +0.142 HD
ENDBRANCH   1   7
BRANCH   4  10
ATOM     10  S   LIG    1       -2.274   0.547   0.560  0.00  0.00    +0.056 S 
ATOM     11  O   LIG    1       -2.689  -0.288   1.755  0.00  0.00    -0.153 OA
ATOM     12  O   LIG    1       -2.313   1.980   1.003  0.00  0.00    -0.153 OA
BRANCH  10  13
ATOM     13  N   LIG    1       -3.327   0.340  -0.765  0.00  0.00    -0.204 NA
ATOM     14  H   LIG    1       -4.293   0.577  -0.445  0.00  0.00    +0.144 HD
ATOM     15  H   LIG    1       -3.288  -0.587  -1.202  0.00  0.00    +0.144 HD
ENDBRANCH  10  13
ENDBRANCH   4  10
TORSDOF 3
