REMARK  Name = molecules/FDKXTQMXEQVLRF-ZHACJKMWSA-N.pdb
REMARK                            x       y       z     vdW  Elec       q    Type
REMARK                         _______ _______ _______ _____ _____    ______ ____
ROOT
ATOM      1  C   LIG    1       -0.774  -1.093   0.628  0.00  0.00    +0.206 A 
ATOM      2  N   LIG    1       -1.104  -2.286   1.136  0.00  0.00    -0.215 NA
ATOM      3  C   LIG    1       -2.435  -2.400   0.999  0.00  0.00    +0.199 A 
ATOM      4  N   LIG    1       -2.917  -1.290   0.413  0.00  0.00    -0.339 N 
ATOM      5  H   LIG    1       -3.915  -1.067   0.166  0.00  0.00    +0.167 HD
ATOM      6  C   LIG    1       -1.884  -0.459   0.174  0.00  0.00    +0.149 A 
ENDROOT
BRANCH   6   7
ATOM      7  C   LIG    1       -1.996   0.863  -0.458  0.00  0.00    +0.262 C 
ATOM      8  O   LIG    1       -0.961   1.550  -0.629  0.00  0.00    -0.269 OA
ATOM      9  N   LIG    1       -3.255   1.359  -0.869  0.00  0.00    -0.324 N 
ATOM     10  H   LIG    1       -3.586   2.250  -0.440  0.00  0.00    +0.145 HD
ATOM     11  H   LIG    1       -3.870   0.893  -1.571  0.00  0.00    +0.145 HD
ENDBRANCH   6   7
BRANCH   1  13
ATOM     12  N   LIG    1        1.117  -0.127  -0.426  0.00  0.00    -0.077 NA
ATOM     13  N   LIG    1        0.548  -0.591   0.583  0.00  0.00    -0.111 NA
BRANCH  12  15
ATOM     14  C   LIG    1        2.653   1.764  -0.272  0.00  0.00    +0.153 C 
ATOM     15  N   LIG    1        2.410   0.361  -0.457  0.00  0.00    -0.243 N 
ATOM     16  C   LIG    1        3.516  -0.528  -0.673  0.00  0.00    +0.153 C 
ENDBRANCH  12  15
ENDBRANCH   1  13
TORSDOF 3
