REMARK  Name = molecules/FDLYAMZZIXQODN-UHFFFAOYSA-N.pdb
REMARK                            x       y       z     vdW  Elec       q    Type
REMARK                         _______ _______ _______ _____ _____    ______ ____
ROOT
ATOM      1  C   LIG    1       -2.141  -1.319   0.006  0.00  0.00    -0.041 A 
ATOM      2  C   LIG    1       -1.268  -0.288   0.237  0.00  0.00    +0.020 A 
ATOM      3  C   LIG    1       -0.222   0.023  -0.641  0.00  0.00    +0.072 A 
ATOM      4  C   LIG    1       -0.022  -0.705  -1.791  0.00  0.00    +0.135 A 
ATOM      5  C   LIG    1       -0.902  -1.743  -2.023  0.00  0.00    +0.039 A 
ATOM      6  F   LIG    1        0.967  -0.455  -2.680  0.00  0.00    -0.205 F 
ATOM      7  C   LIG    1       -1.929  -2.057  -1.171  0.00  0.00    +0.007 A 
ENDROOT
BRANCH   3   8
ATOM      8  C   LIG    1        0.695   1.146  -0.343  0.00  0.00    +0.249 C 
ATOM      9  N   LIG    1        1.872   0.937   0.414  0.00  0.00    -0.294 N 
ATOM     10  C   LIG    1        2.161  -0.397   0.889  0.00  0.00    +0.127 C 
ATOM     11  C   LIG    1        3.514  -0.351   1.568  0.00  0.00    +0.127 C 
ATOM     12  N   LIG    1        4.461   0.334   0.699  0.00  0.00    -0.298 N 
ATOM     13  C   LIG    1        4.202   1.716   0.357  0.00  0.00    +0.127 C 
ATOM     14  C   LIG    1        5.610  -0.294   0.182  0.00  0.00    +0.219 C 
ATOM     15  O   LIG    1        5.840  -1.488   0.465  0.00  0.00    -0.275 OA
ATOM     16  C   LIG    1        2.748   2.032   0.693  0.00  0.00    +0.127 C 
ATOM     17  O   LIG    1        0.440   2.305  -0.757  0.00  0.00    -0.270 OA
BRANCH  14  18
ATOM     18  C   LIG    1        6.540   0.446  -0.687  0.00  0.00    +0.075 C 
ATOM     19  C   LIG    1        7.957   0.007  -0.622  0.00  0.00    +0.013 C 
ATOM     20  C   LIG    1        7.166  -0.255  -1.867  0.00  0.00    +0.013 C 
ENDBRANCH  14  18
ENDBRANCH   3   8
BRANCH   1  21
ATOM     21  C   LIG    1       -3.248  -1.702   0.922  0.00  0.00    +0.093 C 
BRANCH  21  25
ATOM     22  C   LIG    1       -5.191   2.117   1.018  0.00  0.00    +0.001 A 
ATOM     23  C   LIG    1       -4.555   0.890   1.008  0.00  0.00    +0.010 A 
ATOM     24  C   LIG    1       -5.161  -0.163   0.373  0.00  0.00    +0.011 A 
ATOM     25  C   LIG    1       -4.562  -1.396   0.353  0.00  0.00    +0.074 A 
ATOM     26  N   LIG    1       -5.239  -2.398  -0.289  0.00  0.00    -0.175 NA
ATOM     27  N   LIG    1       -6.408  -2.202  -0.864  0.00  0.00    -0.242 N 
ATOM     28  C   LIG    1       -7.021  -1.010  -0.866  0.00  0.00    +0.272 A 
ATOM     29  O   LIG    1       -8.136  -0.875  -1.430  0.00  0.00    -0.266 OA
ATOM     30  H   LIG    1       -6.912  -2.995  -1.355  0.00  0.00    +0.192 HD
ATOM     31  C   LIG    1       -6.401   0.050  -0.238  0.00  0.00    +0.050 A 
ATOM     32  C   LIG    1       -7.023   1.286  -0.218  0.00  0.00    +0.014 A 
ATOM     33  C   LIG    1       -6.412   2.345   0.421  0.00  0.00    +0.001 A 
ENDBRANCH  21  25
ENDBRANCH   1  21
TORSDOF 4
