REMARK  Name = molecules/FDQGNLOWMMVRQL-UHFFFAOYSA-N.pdb
REMARK                            x       y       z     vdW  Elec       q    Type
REMARK                         _______ _______ _______ _____ _____    ______ ____
ROOT
ATOM      1  C   LIG    1       -0.380   0.352   0.368  0.00  0.00    +0.130 C 
ATOM      2  C   LIG    1        0.356   1.186   1.387  0.00  0.00    +0.236 C 
ATOM      3  O   LIG    1        0.617   0.760   2.535  0.00  0.00    -0.274 OA
ATOM      4  N   LIG    1        0.730   2.490   0.948  0.00  0.00    -0.239 N 
ATOM      5  H   LIG    1        1.594   2.931   1.388  0.00  0.00    +0.159 HD
ATOM      6  C   LIG    1       -0.023   3.186  -0.044  0.00  0.00    +0.312 C 
ATOM      7  O   LIG    1        0.294   4.319  -0.432  0.00  0.00    -0.252 OA
ATOM      8  N   LIG    1       -1.160   2.505  -0.563  0.00  0.00    -0.239 N 
ATOM      9  H   LIG    1       -1.782   2.938  -1.301  0.00  0.00    +0.159 HD
ATOM     10  C   LIG    1       -1.501   1.204  -0.098  0.00  0.00    +0.236 C 
ATOM     11  O   LIG    1       -2.686   0.789  -0.079  0.00  0.00    -0.274 OA
ENDROOT
BRANCH   1  12
ATOM     12  C   LIG    1        0.645   0.117  -0.750  0.00  0.00    +0.052 C 
BRANCH  12  13
ATOM     13  C   LIG    1        1.826  -0.606  -0.249  0.00  0.00    -0.033 C 
ATOM     14  C   LIG    1        2.172  -1.780  -0.751  0.00  0.00    +0.004 C 
ENDBRANCH  12  13
ENDBRANCH   1  12
BRANCH   1  15
ATOM     15  C   LIG    1       -0.853  -0.943   0.946  0.00  0.00    +0.052 C 
BRANCH  15  16
ATOM     16  C   LIG    1       -1.491  -1.777  -0.108  0.00  0.00    -0.033 C 
ATOM     17  C   LIG    1       -1.029  -2.977  -0.427  0.00  0.00    +0.004 C 
ENDBRANCH  15  16
ENDBRANCH   1  15
TORSDOF 4
