REMARK  Name = molecules/FEJKLNWAOXSSNR-UHFFFAOYSA-N.pdb
REMARK                            x       y       z     vdW  Elec       q    Type
REMARK                         _______ _______ _______ _____ _____    ______ ____
ROOT
ATOM      1  C   LIG    1       -1.291   1.448   0.613  0.00  0.00    +0.348 C 
ATOM      2  O   LIG    1       -0.437   2.371   0.576  0.00  0.00    -0.244 OA
ENDROOT
BRANCH   1   3
ATOM      3  C   LIG    1       -2.653   1.727   1.040  0.00  0.00    +0.102 A 
ATOM      4  C   LIG    1       -2.997   3.013   1.403  0.00  0.00    +0.019 A 
ATOM      5  C   LIG    1       -4.292   3.272   1.807  0.00  0.00    +0.001 A 
ATOM      6  C   LIG    1       -5.224   2.259   1.846  0.00  0.00    +0.004 A 
ATOM      7  C   LIG    1       -4.846   0.963   1.472  0.00  0.00    +0.047 A 
ATOM      8  C   LIG    1       -3.558   0.697   1.068  0.00  0.00    +0.146 A 
BRANCH   8   9
ATOM      9  O   LIG    1       -3.149  -0.562   0.693  0.00  0.00    -0.425 OA
BRANCH   9  10
ATOM     10  C   LIG    1       -3.216  -1.031  -0.600  0.00  0.00    +0.309 C 
ATOM     11  C   LIG    1       -2.782  -2.376  -1.020  0.00  0.00    +0.136 C 
ATOM     12  O   LIG    1       -3.688  -0.227  -1.468  0.00  0.00    -0.251 OA
ENDBRANCH   9  10
ENDBRANCH   8   9
ENDBRANCH   1   3
BRANCH   1  13
ATOM     13  O   LIG    1       -0.856   0.193   0.232  0.00  0.00    -0.422 OA
BRANCH  13  14
ATOM     14  C   LIG    1        0.449  -0.073  -0.176  0.00  0.00    +0.132 A 
ATOM     15  C   LIG    1        1.342  -0.436   0.805  0.00  0.00    +0.048 A 
ATOM     16  C   LIG    1        2.658  -0.717   0.471  0.00  0.00    +0.027 A 
ATOM     17  C   LIG    1        3.085  -0.637  -0.826  0.00  0.00    +0.034 A 
ATOM     18  C   LIG    1        2.140  -0.265  -1.788  0.00  0.00    +0.027 A 
ATOM     19  C   LIG    1        0.853   0.011  -1.471  0.00  0.00    +0.048 A 
BRANCH  17  20
ATOM     20  N   LIG    1        4.395  -0.903  -1.251  0.00  0.00    -0.286 N 
ATOM     21  C   LIG    1        5.502  -1.290  -0.473  0.00  0.00    +0.214 C 
ATOM     22  O   LIG    1        5.411  -1.443   0.751  0.00  0.00    -0.276 OA
ATOM     23  C   LIG    1        6.855  -1.541  -1.080  0.00  0.00    +0.109 C 
ATOM     24  H   LIG    1        4.583  -0.801  -2.297  0.00  0.00    +0.155 HD
ENDBRANCH  17  20
ENDBRANCH  13  14
ENDBRANCH   1  13
TORSDOF 6
