REMARK  Name = molecules/FELGMEQIXOGIFQ-ZDUSSCGKSA-N.pdb
REMARK                            x       y       z     vdW  Elec       q    Type
REMARK                         _______ _______ _______ _____ _____    ______ ____
ROOT
ATOM      1  O   LIG    1       -0.316   0.876   2.088  0.00  0.00    -0.292 OA
ATOM      2  C   LIG    1       -0.083   0.507   0.907  0.00  0.00    +0.170 C 
ATOM      3  C   LIG    1        1.275   0.334   0.489  0.00  0.00    +0.046 A 
ATOM      4  C   LIG    1        2.475   0.563   1.169  0.00  0.00    +0.011 A 
ATOM      5  C   LIG    1        2.763   1.021   2.443  0.00  0.00    +0.011 A 
ATOM      6  C   LIG    1        4.088   1.133   2.808  0.00  0.00    +0.001 A 
ATOM      7  C   LIG    1        5.097   0.799   1.929  0.00  0.00    +0.002 A 
ATOM      8  C   LIG    1        4.759   0.347   0.672  0.00  0.00    +0.026 A 
ATOM      9  C   LIG    1        3.450   0.216   0.257  0.00  0.00    +0.050 A 
ATOM     10  N   LIG    1        2.872  -0.192  -0.890  0.00  0.00    -0.346 N 
ATOM     11  C   LIG    1        3.618  -0.622  -2.044  0.00  0.00    +0.149 C 
ATOM     12  C   LIG    1        1.537  -0.126  -0.765  0.00  0.00    +0.030 A 
ATOM     13  C   LIG    1        0.496  -0.467  -1.747  0.00  0.00    +0.055 C 
ATOM     14  C   LIG    1       -0.864  -0.624  -1.161  0.00  0.00    +0.019 C 
ATOM     15  C   LIG    1       -1.193   0.259  -0.022  0.00  0.00    +0.080 C 
ENDROOT
BRANCH  15  16
ATOM     16  C   LIG    1       -2.320  -0.348   0.818  0.00  0.00    +0.134 C 
BRANCH  16  17
ATOM     17  N   LIG    1       -3.479  -0.648   0.057  0.00  0.00    -0.334 N 
ATOM     18  C   LIG    1       -4.516   0.151  -0.183  0.00  0.00    +0.107 A 
ATOM     19  C   LIG    1       -4.750   1.555   0.269  0.00  0.00    +0.086 C 
ATOM     20  N   LIG    1       -5.422  -0.507  -0.953  0.00  0.00    -0.241 NA
ATOM     21  C   LIG    1       -4.963  -1.738  -1.210  0.00  0.00    +0.130 A 
ATOM     22  C   LIG    1       -3.731  -1.811  -0.563  0.00  0.00    +0.107 A 
ENDBRANCH  16  17
ENDBRANCH  15  16
TORSDOF 2
