REMARK  Name = molecules/FEWJPZIEWOKRBE-JCYAYHJZSA-N.pdb
REMARK                            x       y       z     vdW  Elec       q    Type
REMARK                         _______ _______ _______ _____ _____    ______ ____
ROOT
ATOM      1  C   LIG    1       -0.915   0.044  -0.651  0.00  0.00    +0.262 C 
ENDROOT
BRANCH   1   2
ATOM      2  O   LIG    1       -0.818  -0.702  -1.824  0.00  0.00    -0.378 OA
ATOM      3  H   LIG    1       -0.408  -1.573  -1.663  0.00  0.00    +0.211 HD
ENDBRANCH   1   2
BRANCH   1   4
ATOM      4  C   LIG    1       -1.268  -0.819   0.470  0.00  0.00    +0.337 C 
ATOM      5  O   LIG    1       -1.437  -2.047   0.293  0.00  0.00    -0.248 OA
BRANCH   4   6
ATOM      6  O   LIG    1       -1.425  -0.314   1.748  0.00  0.00    -0.479 OA
ATOM      7  H   LIG    1       -0.967  -0.723   2.553  0.00  0.00    +0.295 HD
ENDBRANCH   4   6
ENDBRANCH   1   4
BRANCH   1   8
ATOM      8  C   LIG    1        0.342   0.845  -0.429  0.00  0.00    +0.262 C 
BRANCH   8   9
ATOM      9  O   LIG    1        0.253   1.593   0.742  0.00  0.00    -0.378 OA
ATOM     10  H   LIG    1       -0.268   2.418   0.589  0.00  0.00    +0.211 HD
ENDBRANCH   8   9
BRANCH   8  11
ATOM     11  C   LIG    1        1.557   0.052  -0.409  0.00  0.00    +0.337 C 
ATOM     12  O   LIG    1        1.834  -0.698  -1.372  0.00  0.00    -0.248 OA
BRANCH  11  13
ATOM     13  O   LIG    1        2.423   0.111   0.663  0.00  0.00    -0.479 OA
ATOM     14  H   LIG    1        2.451  -0.590   1.404  0.00  0.00    +0.295 HD
ENDBRANCH  11  13
ENDBRANCH   8  11
ENDBRANCH   1   8
TORSDOF 7
