REMARK  Name = molecules/FFEARJCKVFRZRR-BYPYZUCNSA-N.pdb
REMARK                            x       y       z     vdW  Elec       q    Type
REMARK                         _______ _______ _______ _____ _____    ______ ____
ROOT
ATOM      1  CA  MET A  1        1.614  -0.451   0.054  0.00  0.00    +0.161 C 
ENDROOT
BRANCH   1   2
ATOM      2  N   MET A  1        1.414  -1.160   1.262  0.00  0.00    -0.318 NA
ATOM      3  H1  MET A  1        0.527  -1.072   1.728  0.00  0.00    +0.119 HD
ATOM      4  H2  MET A  1        2.014  -1.947   1.459  0.00  0.00    +0.119 HD
ENDBRANCH   1   2
BRANCH   1   5
ATOM      5  C   MET A  1        1.506   1.015   0.188  0.00  0.00    +0.322 C 
ATOM      6  O   MET A  1        1.669   1.720  -0.830  0.00  0.00    -0.249 OA
BRANCH   5   7
ATOM      7  OXT MET A  1        1.235   1.625   1.393  0.00  0.00    -0.480 OA
ATOM      8  HXT MET A  1        1.889   1.611   2.184  0.00  0.00    +0.295 HD
ENDBRANCH   5   7
ENDBRANCH   1   5
BRANCH   1   9
ATOM      9  CB  MET A  1        0.729  -0.893  -1.071  0.00  0.00    +0.040 C 
BRANCH   9  10
ATOM     10  CG  MET A  1       -0.740  -0.735  -0.759  0.00  0.00    +0.071 C 
BRANCH  10  12
ATOM     11  CE  MET A  1       -2.918   1.114  -0.054  0.00  0.00    +0.084 C 
ATOM     12  SD  MET A  1       -1.145   0.991  -0.420  0.00  0.00    -0.164 S 
ENDBRANCH  10  12
ENDBRANCH   9  10
ENDBRANCH   1   9
TORSDOF 6
