REMARK  Name = molecules/FFGPTBGBLSHEPO-UHFFFAOYSA-N.pdb
REMARK                            x       y       z     vdW  Elec       q    Type
REMARK                         _______ _______ _______ _____ _____    ______ ____
ROOT
ATOM      1  C   LIG    1       -0.360   2.117  -0.506  0.00  0.00    +0.308 C 
ATOM      2  N   LIG    1       -0.197   0.795  -0.106  0.00  0.00    -0.223 N 
ATOM      3  C   LIG    1       -1.386   0.054   0.214  0.00  0.00    +0.050 A 
ATOM      4  C   LIG    1       -2.324   0.820   0.856  0.00  0.00    +0.024 A 
ATOM      5  C   LIG    1       -3.539   0.237   1.207  0.00  0.00    +0.002 A 
ATOM      6  C   LIG    1       -3.776  -1.087   0.908  0.00  0.00    +0.001 A 
ATOM      7  C   LIG    1       -2.795  -1.810   0.261  0.00  0.00    +0.010 A 
ATOM      8  C   LIG    1       -1.588  -1.280  -0.103  0.00  0.00    -0.003 A 
ATOM      9  C   LIG    1       -0.665  -2.224  -0.771  0.00  0.00    +0.010 C 
ATOM     10  C   LIG    1        0.673  -2.113  -0.922  0.00  0.00    +0.010 C 
ATOM     11  C   LIG    1        1.517  -1.014  -0.449  0.00  0.00    -0.003 A 
ATOM     12  C   LIG    1        2.847  -1.363  -0.368  0.00  0.00    +0.010 A 
ATOM     13  C   LIG    1        3.786  -0.442   0.100  0.00  0.00    +0.001 A 
ATOM     14  C   LIG    1        3.382   0.821   0.485  0.00  0.00    +0.002 A 
ATOM     15  C   LIG    1        2.040   1.187   0.410  0.00  0.00    +0.024 A 
ATOM     16  C   LIG    1        1.138   0.259  -0.058  0.00  0.00    +0.050 A 
ATOM     17  O   LIG    1       -1.474   2.742  -0.578  0.00  0.00    -0.252 OA
ATOM     18  N   LIG    1        0.736   2.950  -0.906  0.00  0.00    -0.313 N 
ATOM     19  H   LIG    1        0.813   3.919  -0.544  0.00  0.00    +0.147 HD
ATOM     20  H   LIG    1        1.439   2.569  -1.562  0.00  0.00    +0.147 HD
ENDROOT
TORSDOF 0
