REMARK  Name = molecules/FFRFGVHNKJYNOV-ZCIMLLHDSA-N.pdb
REMARK                            x       y       z     vdW  Elec       q    Type
REMARK                         _______ _______ _______ _____ _____    ______ ____
ROOT
ATOM      1  C   LIG    1        4.715  -0.962   0.055  0.00  0.00    +0.045 C 
ATOM      2  C   LIG    1        5.089   0.387   0.590  0.00  0.00    +0.232 C 
ATOM      3  C   LIG    1        4.223   1.543   0.238  0.00  0.00    +0.219 C 
ATOM      4  C   LIG    1        3.690   1.395  -1.136  0.00  0.00    +0.132 C 
ATOM      5  C   LIG    1        2.927   0.151  -1.311  0.00  0.00    +0.037 C 
ATOM      6  C   LIG    1        1.521   0.554  -1.063  0.00  0.00    -0.016 A 
ATOM      7  C   LIG    1        0.361  -0.127  -0.761  0.00  0.00    +0.014 A 
ATOM      8  C   LIG    1       -0.874   0.480  -0.571  0.00  0.00    +0.017 A 
ATOM      9  C   LIG    1       -0.882   1.842  -0.704  0.00  0.00    +0.126 A 
ATOM     10  C   LIG    1        0.251   2.583  -1.007  0.00  0.00    +0.069 A 
ATOM     11  C   LIG    1        1.449   1.926  -1.184  0.00  0.00    +0.037 A 
ATOM     12  C   LIG    1        2.975  -0.235  -2.796  0.00  0.00    +0.030 C 
ATOM     13  C   LIG    1        2.547  -1.667  -2.698  0.00  0.00    +0.086 C 
ATOM     14  N   LIG    1        3.164  -2.147  -1.484  0.00  0.00    -0.294 NA
ATOM     15  C   LIG    1        4.258  -2.983  -1.817  0.00  0.00    +0.111 C 
ATOM     16  C   LIG    1        5.563  -2.308  -1.770  0.00  0.00    -0.015 C 
ATOM     17  N   LIG    1        2.750   2.448  -1.495  0.00  0.00    -0.325 N 
ATOM     18  C   LIG    1        3.007   3.749  -2.046  0.00  0.00    +0.129 C 
ATOM     19  C   LIG    1        3.392  -1.053  -0.615  0.00  0.00    +0.083 C 
ATOM     20  C   LIG    1        5.785  -1.354  -0.891  0.00  0.00    -0.018 C 
ENDROOT
BRANCH   8  21
ATOM     21  C   LIG    1       -2.141  -0.229  -0.255  0.00  0.00    +0.136 C 
ATOM     22  C   LIG    1       -2.503  -0.033   1.142  0.00  0.00    +0.038 C 
ATOM     23  C   LIG    1       -3.801  -0.277   1.688  0.00  0.00    +0.027 C 
ATOM     24  C   LIG    1       -3.874  -0.839   3.099  0.00  0.00    -0.022 C 
ATOM     25  C   LIG    1       -5.148  -1.155   3.360  0.00  0.00    -0.059 C 
ATOM     26  C   LIG    1       -6.272  -0.784   2.464  0.00  0.00    +0.115 C 
ATOM     27  N   LIG    1       -5.944  -0.712   1.054  0.00  0.00    -0.298 NA
ATOM     28  C   LIG    1       -6.106   0.612   0.605  0.00  0.00    +0.089 C 
ATOM     29  C   LIG    1       -5.168   1.304  -0.278  0.00  0.00    +0.053 C 
ATOM     30  C   LIG    1       -4.393   0.558  -1.300  0.00  0.00    -0.016 A 
ATOM     31  C   LIG    1       -4.882   0.362  -2.613  0.00  0.00    +0.003 A 
ATOM     32  C   LIG    1       -6.069   0.715  -3.259  0.00  0.00    +0.010 A 
ATOM     33  C   LIG    1       -6.341   0.411  -4.569  0.00  0.00    +0.001 A 
ATOM     34  C   LIG    1       -5.397  -0.276  -5.284  0.00  0.00    +0.002 A 
ATOM     35  C   LIG    1       -4.206  -0.652  -4.702  0.00  0.00    +0.026 A 
ATOM     36  C   LIG    1       -3.970  -0.324  -3.369  0.00  0.00    +0.047 A 
ATOM     37  N   LIG    1       -2.953  -0.538  -2.534  0.00  0.00    -0.357 N 
ATOM     38  H   LIG    1       -2.093  -1.060  -2.905  0.00  0.00    +0.166 HD
ATOM     39  C   LIG    1       -4.623  -1.262   0.938  0.00  0.00    +0.092 C 
ATOM     40  C   LIG    1       -3.184  -0.025  -1.300  0.00  0.00    +0.042 A 
BRANCH  25  41
ATOM     41  C   LIG    1       -5.450  -1.905   4.599  0.00  0.00    +0.028 C 
ATOM     42  C   LIG    1       -6.375  -1.164   5.517  0.00  0.00    +0.008 C 
ENDBRANCH  25  41
BRANCH  21  43
ATOM     43  C   LIG    1       -1.714  -1.700  -0.221  0.00  0.00    +0.323 C 
ATOM     44  O   LIG    1       -2.094  -2.461  -1.130  0.00  0.00    -0.249 OA
BRANCH  43  45
ATOM     45  O   LIG    1       -0.920  -2.177   0.804  0.00  0.00    -0.467 OA
ATOM     46  C   LIG    1       -0.570  -3.549   0.765  0.00  0.00    +0.280 C 
ENDBRANCH  43  45
ENDBRANCH  21  43
ENDBRANCH   8  21
BRANCH   1  47
ATOM     47  C   LIG    1        4.746  -2.010   1.170  0.00  0.00    +0.013 C 
ATOM     48  C   LIG    1        6.028  -2.038   1.938  0.00  0.00    +0.005 C 
ENDBRANCH   1  47
BRANCH   3  49
ATOM     49  C   LIG    1        3.203   1.861   1.255  0.00  0.00    +0.345 C 
ATOM     50  O   LIG    1        3.255   2.977   1.829  0.00  0.00    -0.247 OA
BRANCH  49  51
ATOM     51  O   LIG    1        2.182   1.022   1.634  0.00  0.00    -0.466 OA
ATOM     52  C   LIG    1        1.270   1.448   2.622  0.00  0.00    +0.280 C 
ENDBRANCH  49  51
ENDBRANCH   3  49
BRANCH   3  53
ATOM     53  O   LIG    1        5.096   2.689   0.213  0.00  0.00    -0.373 OA
ATOM     54  H   LIG    1        5.317   2.941   1.141  0.00  0.00    +0.211 HD
ENDBRANCH   3  53
BRANCH   9  55
ATOM     55  O   LIG    1       -2.052   2.523  -0.535  0.00  0.00    -0.495 OA
ATOM     56  C   LIG    1       -2.135   3.928  -0.656  0.00  0.00    +0.277 C 
ENDBRANCH   9  55
BRANCH   2  57
ATOM     57  O   LIG    1        6.431   0.732   0.197  0.00  0.00    -0.457 OA
BRANCH  57  58
ATOM     58  C   LIG    1        7.443   1.003   1.072  0.00  0.00    +0.304 C 
ATOM     59  O   LIG    1        7.215   0.958   2.309  0.00  0.00    -0.251 OA
ATOM     60  C   LIG    1        8.827   1.356   0.664  0.00  0.00    +0.136 C 
ENDBRANCH  57  58
ENDBRANCH   2  57
TORSDOF 11
