REMARK  Name = molecules/FFYNAVGJSYHHFO-NRFANRHFSA-N.pdb
REMARK                            x       y       z     vdW  Elec       q    Type
REMARK                         _______ _______ _______ _____ _____    ______ ____
ROOT
ATOM      1  O   LIG    1       -0.016  -0.088  -0.029  0.00  0.00    -0.488 OA
ENDROOT
BRANCH   1   2
ATOM      2  C   LIG    1        0.664  -1.159  -0.457  0.00  0.00    +0.124 A 
ATOM      3  C   LIG    1        1.614  -1.666   0.457  0.00  0.00    -0.005 A 
ATOM      4  C   LIG    1        2.347  -2.757   0.083  0.00  0.00    +0.007 A 
ATOM      5  C   LIG    1        2.193  -3.373  -1.140  0.00  0.00    +0.000 A 
ATOM      6  C   LIG    1        1.261  -2.863  -2.017  0.00  0.00    +0.004 A 
ATOM      7  C   LIG    1        0.502  -1.771  -1.689  0.00  0.00    +0.046 A 
BRANCH   3   8
ATOM      8  C   LIG    1        1.800  -1.028   1.777  0.00  0.00    +0.043 C 
BRANCH   8   9
ATOM      9  C   LIG    1        2.593   0.265   1.708  0.00  0.00    +0.040 C 
BRANCH   9  10
ATOM     10  C   LIG    1        3.947   0.043   1.155  0.00  0.00    -0.044 A 
ATOM     11  C   LIG    1        5.007  -0.271   1.949  0.00  0.00    +0.049 A 
ATOM     12  C   LIG    1        6.257  -0.476   1.405  0.00  0.00    +0.120 A 
ATOM     13  C   LIG    1        6.468  -0.369   0.047  0.00  0.00    +0.045 A 
ATOM     14  C   LIG    1        5.415  -0.056  -0.765  0.00  0.00    +0.004 A 
ATOM     15  C   LIG    1        4.163   0.148  -0.207  0.00  0.00    +0.004 A 
BRANCH  12  16
ATOM     16  O   LIG    1        7.304  -0.793   2.258  0.00  0.00    -0.495 OA
ATOM     17  C   LIG    1        8.604  -1.016   1.769  0.00  0.00    +0.277 C 
ENDBRANCH  12  16
ENDBRANCH   9  10
ENDBRANCH   8   9
ENDBRANCH   3   8
ENDBRANCH   1   2
BRANCH   1  18
ATOM     18  C   LIG    1       -0.961   0.803  -0.299  0.00  0.00    +0.274 C 
BRANCH  18  19
ATOM     19  C   LIG    1       -2.405   0.399  -0.443  0.00  0.00    +0.227 C 
BRANCH  19  20
ATOM     20  O   LIG    1       -3.113   1.582  -0.747  0.00  0.00    -0.457 OA
BRANCH  20  21
ATOM     21  C   LIG    1       -3.983   2.235   0.110  0.00  0.00    +0.308 C 
ATOM     22  O   LIG    1       -4.151   1.738   1.235  0.00  0.00    -0.251 OA
BRANCH  21  23
ATOM     23  C   LIG    1       -4.705   3.473  -0.254  0.00  0.00    +0.132 C 
BRANCH  23  24
ATOM     24  C   LIG    1       -5.532   3.905   0.936  0.00  0.00    +0.131 C 
BRANCH  24  25
ATOM     25  C   LIG    1       -6.296   5.141   0.660  0.00  0.00    +0.305 C 
ATOM     26  O   LIG    1       -6.231   5.704  -0.465  0.00  0.00    -0.251 OA
BRANCH  25  27
ATOM     27  O   LIG    1       -7.084   5.671   1.661  0.00  0.00    -0.481 OA
ATOM     28  H   LIG    1       -6.756   6.308   2.375  0.00  0.00    +0.295 HD
ENDBRANCH  25  27
ENDBRANCH  24  25
ENDBRANCH  23  24
ENDBRANCH  21  23
ENDBRANCH  20  21
ENDBRANCH  19  20
BRANCH  19  29
ATOM     29  C   LIG    1       -2.714  -0.753  -1.286  0.00  0.00    +0.131 C 
BRANCH  29  30
ATOM     30  N   LIG    1       -4.143  -1.137  -1.214  0.00  0.00    -0.305 NA
ATOM     31  C   LIG    1       -4.506  -1.561   0.102  0.00  0.00    +0.104 C 
ATOM     32  C   LIG    1       -4.263  -2.281  -2.106  0.00  0.00    +0.104 C 
ENDBRANCH  29  30
ENDBRANCH  19  29
ENDBRANCH  18  19
ENDBRANCH   1  18
TORSDOF 15
