REMARK  Name = molecules/FGQFOYHRJSUHMR-UHFFFAOYSA-N.pdb
REMARK                            x       y       z     vdW  Elec       q    Type
REMARK                         _______ _______ _______ _____ _____    ______ ____
ROOT
ATOM      1  C   LIG    1       -0.449  -0.419  -0.822  0.00  0.00    +0.006 A 
ATOM      2  C   LIG    1        0.263  -1.340  -0.021  0.00  0.00    +0.059 A 
ATOM      3  C   LIG    1       -0.234  -1.686   1.158  0.00  0.00    +0.027 A 
ATOM      4  C   LIG    1       -1.425  -1.163   1.589  0.00  0.00    +0.006 A 
ATOM      5  C   LIG    1       -2.216  -0.245   0.873  0.00  0.00    -0.036 A 
ATOM      6  C   LIG    1       -1.637   0.087  -0.362  0.00  0.00    -0.012 A 
ATOM      7  C   LIG    1       -2.278   1.059  -1.113  0.00  0.00    +0.009 A 
ATOM      8  C   LIG    1       -1.730   1.509  -2.311  0.00  0.00    +0.001 A 
ATOM      9  C   LIG    1       -0.547   0.980  -2.748  0.00  0.00    +0.001 A 
ATOM     10  C   LIG    1        0.095   0.015  -2.004  0.00  0.00    +0.010 A 
ENDROOT
BRANCH   2  11
ATOM     11  N   LIG    1        1.506  -1.790  -0.594  0.00  0.00    -0.264 N 
ATOM     12  C   LIG    1        2.698  -1.297  -0.241  0.00  0.00    +0.197 A 
ATOM     13  N   LIG    1        3.619  -1.860  -1.016  0.00  0.00    -0.121 NA
ATOM     14  N   LIG    1        2.996  -2.708  -1.853  0.00  0.00    -0.121 NA
ATOM     15  C   LIG    1        1.698  -2.672  -1.599  0.00  0.00    +0.205 A 
ATOM     16 BR   LIG    1        0.272  -3.671  -2.447  0.00  0.00    -0.006 Br
BRANCH  12  17
ATOM     17  S   LIG    1        2.934  -0.145   1.144  0.00  0.00    -0.074 S 
BRANCH  17  18
ATOM     18  C   LIG    1        4.666   0.432   1.131  0.00  0.00    +0.197 C 
BRANCH  18  19
ATOM     19  C   LIG    1        4.752   1.386  -0.004  0.00  0.00    +0.315 C 
ATOM     20  O   LIG    1        3.758   1.676  -0.739  0.00  0.00    -0.250 OA
BRANCH  19  21
ATOM     21  O   LIG    1        5.946   1.997  -0.301  0.00  0.00    -0.480 OA
ATOM     22  H   LIG    1        6.673   2.249   0.378  0.00  0.00    +0.295 HD
ENDBRANCH  19  21
ENDBRANCH  18  19
ENDBRANCH  17  18
ENDBRANCH  12  17
ENDBRANCH   2  11
BRANCH   5  23
ATOM     23  C   LIG    1       -3.534   0.162   1.167  0.00  0.00    +0.020 C 
ATOM     24  C   LIG    1       -4.038   1.343   1.867  0.00  0.00    +0.009 C 
ATOM     25  C   LIG    1       -4.810   0.584   0.745  0.00  0.00    +0.009 C 
ENDBRANCH   5  23
TORSDOF 6
