REMARK  Name = molecules/FGWJRZQNNZVCHR-BCRCDCHUSA-N.pdb
REMARK                            x       y       z     vdW  Elec       q    Type
REMARK                         _______ _______ _______ _____ _____    ______ ____
ROOT
ATOM      1  C   LIG    1       -4.014   0.000  -0.597  0.00  0.00    +0.074 C 
ATOM      2  C   LIG    1       -4.867   0.101   0.445  0.00  0.00    +0.198 C 
ATOM      3  O   LIG    1       -4.732  -0.715   1.572  0.00  0.00    -0.496 OA
ATOM      4  C   LIG    1       -3.445  -1.128   2.013  0.00  0.00    +0.174 C 
ATOM      5  C   LIG    1       -3.534  -2.589   2.355  0.00  0.00    +0.052 C 
ATOM      6  C   LIG    1       -2.393  -0.846   0.959  0.00  0.00    +0.051 C 
ATOM      7  C   LIG    1       -1.966   0.583   1.091  0.00  0.00    +0.092 C 
ATOM      8  N   LIG    1       -1.393   1.139  -0.063  0.00  0.00    -0.293 NA
ATOM      9  C   LIG    1       -0.698   2.344   0.079  0.00  0.00    +0.090 C 
ATOM     10  C   LIG    1        0.683   2.315  -0.527  0.00  0.00    +0.053 C 
ATOM     11  C   LIG    1        1.292   0.945  -0.427  0.00  0.00    -0.016 A 
ATOM     12  C   LIG    1        2.510   0.429  -0.110  0.00  0.00    +0.007 A 
ATOM     13  C   LIG    1        3.682   1.030   0.252  0.00  0.00    +0.059 A 
ATOM     14  C   LIG    1        4.792   0.266   0.525  0.00  0.00    +0.162 A 
ATOM     15  C   LIG    1        4.734  -1.119   0.436  0.00  0.00    +0.163 A 
ATOM     16  C   LIG    1        3.552  -1.728   0.071  0.00  0.00    +0.075 A 
ATOM     17  C   LIG    1        2.435  -0.956  -0.203  0.00  0.00    +0.051 A 
ATOM     18  N   LIG    1        1.159  -1.237  -0.578  0.00  0.00    -0.356 N 
ATOM     19  H   LIG    1        0.767  -2.194  -0.738  0.00  0.00    +0.166 HD
ATOM     20  C   LIG    1        0.457  -0.115  -0.717  0.00  0.00    +0.038 A 
ATOM     21  C   LIG    1       -0.937   0.280  -1.090  0.00  0.00    +0.104 C 
ATOM     22  C   LIG    1       -1.803  -0.899  -1.371  0.00  0.00    +0.034 C 
ATOM     23  C   LIG    1       -2.967  -1.005  -0.453  0.00  0.00    +0.039 C 
ENDROOT
BRANCH   1  24
ATOM     24  C   LIG    1       -4.248   0.888  -1.700  0.00  0.00    +0.338 C 
ATOM     25  O   LIG    1       -5.193   1.719  -1.707  0.00  0.00    -0.245 OA
BRANCH  24  26
ATOM     26  O   LIG    1       -3.449   0.886  -2.830  0.00  0.00    -0.465 OA
ATOM     27  C   LIG    1       -3.698   1.778  -3.919  0.00  0.00    +0.280 C 
ENDBRANCH  24  26
ENDBRANCH   1  24
BRANCH  14  28
ATOM     28  O   LIG    1        5.973   0.866   0.889  0.00  0.00    -0.491 OA
ATOM     29  C   LIG    1        6.036   2.269   0.980  0.00  0.00    +0.277 C 
ENDBRANCH  14  28
BRANCH  15  30
ATOM     30  O   LIG    1        5.887  -1.828   0.724  0.00  0.00    -0.491 OA
ATOM     31  C   LIG    1        5.935  -3.241   0.664  0.00  0.00    +0.277 C 
ENDBRANCH  15  30
TORSDOF 4
