REMARK  Name = molecules/FHCUMDQMBHQXKK-CDIODLITSA-N.pdb
REMARK                            x       y       z     vdW  Elec       q    Type
REMARK                         _______ _______ _______ _____ _____    ______ ____
ROOT
ATOM      1  C   LIG    1        2.923   0.104   0.523  0.00  0.00    +0.002 A 
ATOM      2  C   LIG    1        2.228  -1.073   0.694  0.00  0.00    +0.017 A 
ATOM      3  C   LIG    1        0.859  -1.071   0.629  0.00  0.00    -0.002 A 
ATOM      4  C   LIG    1        0.178  -2.365   0.830  0.00  0.00    +0.265 C 
ATOM      5  O   LIG    1       -1.230  -2.290   0.803  0.00  0.00    -0.487 OA
ATOM      6  C   LIG    1       -1.965  -1.141   0.573  0.00  0.00    +0.129 A 
ATOM      7  C   LIG    1       -3.364  -1.162   0.549  0.00  0.00    +0.057 A 
ATOM      8  C   LIG    1       -4.112  -0.030   0.326  0.00  0.00    +0.011 A 
ATOM      9  C   LIG    1       -5.503  -0.100   0.339  0.00  0.00    +0.074 A 
ATOM     10  N   LIG    1       -6.378  -1.102   0.534  0.00  0.00    -0.340 N 
ATOM     11  H   LIG    1       -6.066  -2.069   0.706  0.00  0.00    +0.167 HD
ATOM     12  C   LIG    1       -7.661  -0.655   0.471  0.00  0.00    +0.129 A 
ATOM     13  N   LIG    1       -7.560   0.662   0.228  0.00  0.00    -0.231 NA
ATOM     14  C   LIG    1       -6.263   1.027   0.142  0.00  0.00    +0.090 A 
ATOM     15  C   LIG    1       -5.598   2.216  -0.068  0.00  0.00    +0.030 A 
ATOM     16  C   LIG    1       -4.222   2.285  -0.081  0.00  0.00    +0.011 A 
ATOM     17  C   LIG    1       -3.448   1.159   0.119  0.00  0.00    -0.015 A 
ATOM     18  C   LIG    1       -2.049   1.222   0.134  0.00  0.00    +0.020 A 
ATOM     19  C   LIG    1       -1.328   0.074   0.361  0.00  0.00    +0.025 A 
ATOM     20  C   LIG    1        0.130   0.097   0.393  0.00  0.00    -0.008 A 
ATOM     21  C   LIG    1        0.828   1.274   0.222  0.00  0.00    +0.009 A 
ATOM     22  C   LIG    1        2.217   1.259   0.290  0.00  0.00    +0.011 A 
ENDROOT
BRANCH  12  23
ATOM     23  C   LIG    1       -8.894  -1.458   0.651  0.00  0.00    +0.142 C 
ATOM     24  C   LIG    1       -8.773  -2.889   0.239  0.00  0.00    +0.032 C 
ATOM     25  C   LIG    1       -9.464  -3.066  -1.066  0.00  0.00    +0.024 C 
ATOM     26  C   LIG    1       -9.987  -1.644  -1.365  0.00  0.00    +0.074 C 
ATOM     27  C   LIG    1       -9.039  -0.974  -2.360  0.00  0.00    +0.028 C 
ATOM     28  N   LIG    1      -10.037  -0.964  -0.124  0.00  0.00    -0.287 N 
ATOM     29  C   LIG    1      -10.914  -0.042   0.441  0.00  0.00    +0.237 C 
ATOM     30  O   LIG    1      -10.492   0.422   1.656  0.00  0.00    -0.274 OA
BRANCH  29  31
ATOM     31  C   LIG    1      -12.165   0.594   0.135  0.00  0.00    +0.165 C 
BRANCH  31  32
ATOM     32  N   LIG    1      -12.210   1.993   0.548  0.00  0.00    -0.270 N 
ATOM     33  C   LIG    1      -12.722   2.355   1.792  0.00  0.00    +0.401 C 
ATOM     34  O   LIG    1      -13.172   1.506   2.640  0.00  0.00    -0.226 OA
ATOM     35  H   LIG    1      -11.852   2.702  -0.112  0.00  0.00    +0.153 HD
BRANCH  33  36
ATOM     36  O   LIG    1      -12.756   3.704   2.150  0.00  0.00    -0.454 OA
ATOM     37  C   LIG    1      -13.275   4.056   3.411  0.00  0.00    +0.282 C 
ENDBRANCH  33  36
ENDBRANCH  31  32
BRANCH  31  38
ATOM     38  C   LIG    1      -12.814   0.359  -1.155  0.00  0.00    +0.012 C 
ATOM     39  C   LIG    1      -13.526  -0.970  -1.305  0.00  0.00    +0.009 C 
ATOM     40  C   LIG    1      -12.050   0.737  -2.371  0.00  0.00    +0.009 C 
ENDBRANCH  31  38
ENDBRANCH  29  31
ENDBRANCH  12  23
BRANCH   1  43
ATOM     41  C   LIG    1        6.524  -0.423   0.832  0.00  0.00    +0.128 A 
ATOM     42  N   LIG    1        5.249  -0.889   0.784  0.00  0.00    -0.231 NA
ATOM     43  C   LIG    1        4.393   0.119   0.605  0.00  0.00    +0.089 A 
ATOM     44  C   LIG    1        5.190   1.258   0.539  0.00  0.00    +0.112 A 
ATOM     45  N   LIG    1        6.480   0.911   0.679  0.00  0.00    -0.346 N 
ATOM     46  H   LIG    1        7.257   1.595   0.665  0.00  0.00    +0.167 HD
BRANCH  41  52
ATOM     47  C   LIG    1        9.197  -0.635  -0.992  0.00  0.00    +0.241 C 
ATOM     48  N   LIG    1        8.903  -0.626   0.420  0.00  0.00    -0.289 N 
ATOM     49  C   LIG    1        9.751  -0.019   1.412  0.00  0.00    +0.114 C 
ATOM     50  C   LIG    1        9.428  -0.642   2.703  0.00  0.00    +0.034 C 
ATOM     51  C   LIG    1        8.126  -1.399   2.482  0.00  0.00    +0.037 C 
ATOM     52  C   LIG    1        7.760  -1.222   1.050  0.00  0.00    +0.142 C 
ATOM     53  O   LIG    1        8.338  -1.133  -1.752  0.00  0.00    -0.273 OA
BRANCH  47  54
ATOM     54  C   LIG    1       10.440  -0.088  -1.529  0.00  0.00    +0.193 C 
BRANCH  54  56
ATOM     55  C   LIG    1       12.806  -0.806  -1.788  0.00  0.00    +0.006 A 
ATOM     56  C   LIG    1       11.562  -1.073  -1.269  0.00  0.00    -0.018 A 
ATOM     57  C   LIG    1       11.381  -2.222  -0.566  0.00  0.00    +0.006 A 
ATOM     58  C   LIG    1       12.438  -3.107  -0.378  0.00  0.00    +0.000 A 
ATOM     59  C   LIG    1       13.670  -2.829  -0.900  0.00  0.00    +0.000 A 
ATOM     60  C   LIG    1       13.862  -1.672  -1.611  0.00  0.00    +0.000 A 
ENDBRANCH  54  56
BRANCH  54  61
ATOM     61  N   LIG    1       10.413   0.137  -2.974  0.00  0.00    -0.266 N 
ATOM     62  C   LIG    1       10.751   1.425  -3.506  0.00  0.00    +0.401 C 
ATOM     63  O   LIG    1       11.063   2.318  -2.662  0.00  0.00    -0.226 OA
ATOM     64  H   LIG    1       10.151  -0.632  -3.611  0.00  0.00    +0.153 HD
BRANCH  62  65
ATOM     65  O   LIG    1       10.760   1.752  -4.831  0.00  0.00    -0.454 OA
ATOM     66  C   LIG    1       11.103   3.057  -5.304  0.00  0.00    +0.282 C 
ENDBRANCH  62  65
ENDBRANCH  54  61
ENDBRANCH  47  54
BRANCH  50  67
ATOM     67  C   LIG    1        9.293   0.301   3.862  0.00  0.00    +0.164 C 
BRANCH  67  68
ATOM     68  O   LIG    1       10.338   1.047   4.213  0.00  0.00    -0.383 OA
ATOM     69  C   LIG    1       10.904   1.961   3.410  0.00  0.00    +0.193 C 
ENDBRANCH  67  68
ENDBRANCH  50  67
ENDBRANCH  41  52
ENDBRANCH   1  43
TORSDOF 13
