REMARK  Name = molecules/FHHHOYXPRDYHEZ-COXVUDFISA-N.pdb
REMARK                            x       y       z     vdW  Elec       q    Type
REMARK                         _______ _______ _______ _____ _____    ______ ____
ROOT
ATOM      1  C   UNK A  0        0.812  -1.834   1.553  0.00  0.00    +0.234 C 
ATOM      2  O   UNK A  0        1.712  -2.170   2.365  0.00  0.00    -0.274 OA
ATOM      3  N   PHE A  1        0.926  -0.599   0.906  0.00  0.00    -0.301 N 
ATOM      4  H   PHE A  1        0.191  -0.314   0.226  0.00  0.00    +0.150 HD
ENDROOT
BRANCH   1   8
ATOM      5  C   UNK A  0       -2.085  -1.074   0.811  0.00  0.00    +0.220 C 
ATOM      6  O   UNK A  0       -1.836  -0.623   2.015  0.00  0.00    -0.275 OA
ATOM      7  N   UNK A  0       -1.337  -2.217   0.482  0.00  0.00    -0.290 N 
ATOM      8  C   UNK A  0       -0.307  -2.789   1.346  0.00  0.00    +0.162 C 
ATOM      9  C   UNK A  0        0.235  -3.989   0.579  0.00  0.00    +0.033 C 
ATOM     10  C   UNK A  0       -0.999  -4.399  -0.182  0.00  0.00    +0.021 C 
ATOM     11  C   UNK A  0       -1.459  -3.018  -0.689  0.00  0.00    +0.108 C 
BRANCH   5  12
ATOM     12  C   UNK A  0       -3.059  -0.305   0.082  0.00  0.00    +0.082 C 
ATOM     13  C   UNK A  0       -4.089   0.228   1.114  0.00  0.00    +0.018 C 
BRANCH  12  14
ATOM     14  C   UNK A  0       -3.871  -0.952  -0.980  0.00  0.00    +0.089 C 
BRANCH  14  15
ATOM     15  S   UNK A  0       -5.061   0.266  -1.702  0.00  0.00    -0.088 S 
BRANCH  15  16
ATOM     16  C   UNK A  0       -4.181   1.542  -2.562  0.00  0.00    +0.186 C 
ATOM     17  O   UNK A  0       -2.967   1.518  -2.612  0.00  0.00    -0.286 OA
ATOM     18  C   UNK A  0       -4.933   2.640  -3.220  0.00  0.00    +0.099 C 
ENDBRANCH  15  16
ENDBRANCH  14  15
ENDBRANCH  12  14
ENDBRANCH   5  12
ENDBRANCH   1   8
BRANCH   3  19
ATOM     19  CA  PHE A  1        2.014   0.334   1.105  0.00  0.00    +0.186 C 
BRANCH  19  20
ATOM     20  C   PHE A  1        1.467   1.567   1.690  0.00  0.00    +0.326 C 
ATOM     21  O   PHE A  1        0.242   1.672   1.907  0.00  0.00    -0.249 OA
BRANCH  20  22
ATOM     22  OXT PHE A  1        2.309   2.612   2.000  0.00  0.00    -0.479 OA
ATOM     23  HXT PHE A  1        1.957   3.558   2.203  0.00  0.00    +0.295 HD
ENDBRANCH  20  22
ENDBRANCH  19  20
BRANCH  19  24
ATOM     24  CB  PHE A  1        2.788   0.556  -0.176  0.00  0.00    +0.069 C 
BRANCH  24  25
ATOM     25  CG  PHE A  1        3.908   1.497  -0.054  0.00  0.00    -0.045 A 
ATOM     26  CD2 PHE A  1        5.149   1.041   0.326  0.00  0.00    +0.004 A 
ATOM     27  CE2 PHE A  1        6.237   1.875   0.462  0.00  0.00    +0.000 A 
ATOM     28  CZ  PHE A  1        6.117   3.219   0.217  0.00  0.00    +0.000 A 
ATOM     29  CE1 PHE A  1        4.886   3.703  -0.165  0.00  0.00    +0.000 A 
ATOM     30  CD1 PHE A  1        3.792   2.846  -0.299  0.00  0.00    +0.004 A 
ENDBRANCH  24  25
ENDBRANCH  19  24
ENDBRANCH   3  19
TORSDOF 10
