REMARK  Name = molecules/FHOCOBKCNJYXOP-OVLDLUHVSA-N.pdb
REMARK                            x       y       z     vdW  Elec       q    Type
REMARK                         _______ _______ _______ _____ _____    ______ ____
ROOT
ATOM      1  C   LIG    1       15.286 -12.980   0.000  0.00  0.00    +0.161 C 
ENDROOT
BRANCH   1   3
ATOM      2  C   LIG    1       15.826 -15.521   0.000  0.00  0.00    +0.081 C 
ATOM      3  N   LIG    1       14.823 -14.406   0.000  0.00  0.00    -0.275 NA
BRANCH   2   5
ATOM      4  N   LIG    1       16.789 -17.411   0.000  0.00  0.00    -0.131 NA
ATOM      5  CA  LIG    1       15.363 -16.948   0.000  0.00  0.00    +0.171 C 
BRANCH   5   6
ATOM      6  C   LIG    1       14.899 -18.374   0.000  0.00  0.00    +0.229 C 
ATOM      7  O   LIG    1       14.436 -19.801   0.000  0.00  0.00    -0.233 OA
ENDBRANCH   5   6
ENDBRANCH   2   5
ENDBRANCH   1   3
BRANCH   1   8
ATOM      8  C   LIG    1       16.713 -13.443   0.000  0.00  0.00    +0.006 C 
ATOM      9  C   LIG    1       18.139 -13.907   0.000  0.00  0.00    -0.038 C 
BRANCH   9  10
ATOM     10  C   LIG    1       19.254 -12.903   0.000  0.00  0.00    +0.056 C 
BRANCH  10  11
ATOM     11  C   LIG    1       20.681 -13.367   0.000  0.00  0.00    +0.028 C 
ATOM     12  C   LIG    1       20.992 -14.834   0.000  0.00  0.00    +0.157 C 
ATOM     13  C   LIG    1       19.878 -15.838   0.000  0.00  0.00    +0.082 C 
ATOM     14  O   LIG    1       22.419 -15.297   0.000  0.00  0.00    -0.293 OA
ENDBRANCH  10  11
ENDBRANCH   9  10
ENDBRANCH   1   8
BRANCH   1  15
ATOM     15  C   LIG    1       13.860 -12.516   0.000  0.00  0.00    +0.146 C 
BRANCH  15  16
ATOM     16  N   LIG    1       13.548 -11.049   0.000  0.00  0.00    -0.279 NA
ATOM     17  C   LIG    1       12.121 -10.586   0.000  0.00  0.00    +0.116 C 
BRANCH  17  18
ATOM     18  C   LIG    1       11.658 -12.012   0.000  0.00  0.00    +0.234 C 
ATOM     19  O   LIG    1       11.194 -13.439   0.000  0.00  0.00    -0.222 OA
ENDBRANCH  17  18
ENDBRANCH  15  16
ENDBRANCH   1  15
TORSDOF 9
REMARK  Name = molecules/FHOCOBKCNJYXOP-OVLDLUHVSA-N.pdb
REMARK                            x       y       z     vdW  Elec       q    Type
REMARK                         _______ _______ _______ _____ _____    ______ ____
ROOT
ATOM      1  N   LIG    1       10.306  -4.687   0.000  0.00  0.00    -0.302 NA
ATOM      2  H   LIG    1       11.392  -3.921   0.000  0.00  0.00    +0.123 HD
ENDROOT
BRANCH   1   3
ATOM      3  C   LIG    1        8.880  -4.223   0.000  0.00  0.00    +0.066 C 
ATOM      4  C   LIG    1        9.343  -2.797   0.000  0.00  0.00    +0.011 C 
BRANCH   3   5
ATOM      5  C   LIG    1        8.416  -5.650   0.000  0.00  0.00    +0.022 C 
BRANCH   5   6
ATOM      6  C   LIG    1        7.952  -7.077   0.000  0.00  0.00    +0.130 C 
BRANCH   6   7
ATOM      7  C   LIG    1        7.489  -8.503   0.000  0.00  0.00    +0.356 C 
ATOM      8  O   LIG    1        8.493  -9.618   0.000  0.00  0.00    -0.246 OA
ATOM      9  O   LIG    1        6.022  -8.815   0.000  0.00  0.00    -0.246 OA
ENDBRANCH   6   7
ENDBRANCH   5   6
ENDBRANCH   3   5
ENDBRANCH   1   3
BRANCH   1  10
ATOM     10  C   LIG    1       10.618  -6.154   0.000  0.00  0.00    +0.082 C 
BRANCH  10  12
ATOM     11  N   LIG    1       11.581  -8.044   0.000  0.00  0.00    -0.137 NA
ATOM     12  C   LIG    1       12.044  -6.618   0.000  0.00  0.00    +0.121 C 
BRANCH  12  13
ATOM     13  C   LIG    1       13.471  -7.081   0.000  0.00  0.00    +0.026 C 
BRANCH  13  14
ATOM     14  C   LIG    1       14.898  -7.545   0.000  0.00  0.00    +0.074 C 
BRANCH  14  15
ATOM     15  S   LIG    1       16.324  -8.008   0.000  0.00  0.00    -0.164 S 
ATOM     16  C   LIG    1       17.439  -7.005   0.000  0.00  0.00    +0.084 C 
ENDBRANCH  14  15
ENDBRANCH  13  14
ENDBRANCH  12  13
ENDBRANCH  10  12
ENDBRANCH   1  10
TORSDOF 9
REMARK  Name = molecules/FHOCOBKCNJYXOP-OVLDLUHVSA-N.pdb
REMARK                            x       y       z     vdW  Elec       q    Type
REMARK                         _______ _______ _______ _____ _____    ______ ____
ROOT
ATOM      1  N   LIG    1        8.339  -1.682   0.000  0.00  0.00    -0.132 NA
ATOM      2  C   LIG    1        8.803  -0.256   0.000  0.00  0.00    +0.105 C 
ATOM      3  C   LIG    1       10.229  -0.719   0.000  0.00  0.00    +0.027 C 
ENDROOT
TORSDOF 0
REMARK  Name = molecules/FHOCOBKCNJYXOP-OVLDLUHVSA-N.pdb
REMARK                            x       y       z     vdW  Elec       q    Type
REMARK                         _______ _______ _______ _____ _____    ______ ____
ROOT
ATOM      1  N   LIG    1        7.064   1.675   0.000  0.00  0.00    -0.244 NA
ATOM      2  C   LIG    1        7.376   0.208   0.000  0.00  0.00    +0.103 C 
ATOM      3  H   LIG    1        6.977   2.708   0.000  0.00  0.00    +0.141 HD
ENDROOT
TORSDOF 0
REMARK  Name = molecules/FHOCOBKCNJYXOP-OVLDLUHVSA-N.pdb
REMARK                            x       y       z     vdW  Elec       q    Type
REMARK                         _______ _______ _______ _____ _____    ______ ____
ROOT
ATOM      1  N   LIG    1        5.098   4.680   0.000  0.00  0.00    -0.211 NA
ENDROOT
BRANCH   1   2
ATOM      2  C   LIG    1        5.198   3.864   0.000  0.00  0.00    +0.077 C 
ATOM      3  C   LIG    1        6.101   3.565   0.000  0.00  0.00    +0.029 C 
ENDBRANCH   1   2
BRANCH   1   4
ATOM      4  C   LIG    1        4.886   5.331   0.000  0.00  0.00    +0.086 C 
ATOM      5  C   LIG    1        5.561   6.107   0.000  0.00  0.00    +0.019 C 
ENDBRANCH   1   4
TORSDOF 2
REMARK  Name = molecules/FHOCOBKCNJYXOP-OVLDLUHVSA-N.pdb
REMARK                            x       y       z     vdW  Elec       q    Type
REMARK                         _______ _______ _______ _____ _____    ______ ____
ROOT
ATOM      1  N   LIG    1        3.823   8.037   0.000  0.00  0.00    +0.042 NA
ATOM      2  O   LIG    1        4.349   7.523   0.000  0.00  0.00    -0.254 OA
ATOM      3  C   LIG    1        4.575   6.798   0.000  0.00  0.00    +0.212 C 
ENDROOT
TORSDOF 0
REMARK  Name = molecules/FHOCOBKCNJYXOP-OVLDLUHVSA-N.pdb
REMARK                            x       y       z     vdW  Elec       q    Type
REMARK                         _______ _______ _______ _____ _____    ______ ____
ROOT
ATOM      1  N   LIG    1        2.936   5.960   0.000  0.00  0.00    -0.157 NA
ATOM      2  O   LIG    1        3.672   6.205   0.000  0.00  0.00    -0.122 OA
ATOM      3  H   LIG    1        2.551   5.407   0.000  0.00  0.00    +0.158 HD
ENDROOT
BRANCH   1   4
ATOM      4  C   LIG    1        2.178   6.075   0.000  0.00  0.00    +0.100 C 
ATOM      5  C   LIG    1        2.063   6.825   0.000  0.00  0.00    +0.021 C 
ENDBRANCH   1   4
TORSDOF 1
REMARK  Name = molecules/FHOCOBKCNJYXOP-OVLDLUHVSA-N.pdb
REMARK                            x       y       z     vdW  Elec       q    Type
REMARK                         _______ _______ _______ _____ _____    ______ ____
ROOT
ATOM      1  N   LIG    1        0.542   2.795   0.000  0.00  0.00    +0.000 NA
ENDROOT
TORSDOF 0
REMARK  Name = molecules/FHOCOBKCNJYXOP-OVLDLUHVSA-N.pdb
REMARK                            x       y       z     vdW  Elec       q    Type
REMARK                         _______ _______ _______ _____ _____    ______ ____
ROOT
ATOM      1  C   LIG    1        1.182  -0.066   0.000  0.00  0.00    +0.121 C 
ENDROOT
BRANCH   1   2
ATOM      2  N   LIG    1        1.817  -0.563   0.000  0.00  0.00    -0.249 NA
BRANCH   2   3
ATOM      3  C   LIG    1        1.494  -1.533   0.000  0.00  0.00    +0.030 C 
ATOM      4  C   LIG    1        1.563  -2.977   0.000  0.00  0.00    +0.022 C 
ATOM      5  C   LIG    1        0.813  -1.677   0.000  0.00  0.00    +0.053 C 
ENDBRANCH   2   3
ENDBRANCH   1   2
BRANCH   1   6
ATOM      6  C   LIG    1        1.505   0.904   0.000  0.00  0.00    +0.064 C 
BRANCH   6   7
ATOM      7  C   LIG    1        0.871   1.402   0.000  0.00  0.00    -0.005 C 
ATOM      8  C   LIG    1        0.079   1.368   0.000  0.00  0.00    +0.187 C 
BRANCH   8   9
ATOM      9  O   LIG    1       -0.187   0.610   0.000  0.00  0.00    -0.514 OA
ATOM     10  H   LIG    1       -0.717   0.096   0.000  0.00  0.00    +0.291 HD
ENDBRANCH   8   9
ENDBRANCH   6   7
ENDBRANCH   1   6
TORSDOF 5
REMARK  Name = molecules/FHOCOBKCNJYXOP-OVLDLUHVSA-N.pdb
REMARK                            x       y       z     vdW  Elec       q    Type
REMARK                         _______ _______ _______ _____ _____    ______ ____
ROOT
ATOM      1  N   LIG    1       -1.658  -0.875   0.000  0.00  0.00    -0.136 NA
ATOM      2  C   LIG    1       -2.772  -1.878   0.000  0.00  0.00    +0.136 C 
ENDROOT
TORSDOF 0
REMARK  Name = molecules/FHOCOBKCNJYXOP-OVLDLUHVSA-N.pdb
REMARK                            x       y       z     vdW  Elec       q    Type
REMARK                         _______ _______ _______ _____ _____    ______ ____
ROOT
ATOM      1  N   LIG    1       -1.859   2.711   0.000  0.00  0.00    -0.163 NA
ATOM      2  H   LIG    1       -0.936   2.738   0.000  0.00  0.00    +0.163 HD
ENDROOT
TORSDOF 0
REMARK  Name = molecules/FHOCOBKCNJYXOP-OVLDLUHVSA-N.pdb
REMARK                            x       y       z     vdW  Elec       q    Type
REMARK                         _______ _______ _______ _____ _____    ______ ____
ROOT
ATOM      1  N   LIG    1        0.059   6.186   0.000  0.00  0.00    +0.000 NA
ENDROOT
TORSDOF 0
REMARK  Name = molecules/FHOCOBKCNJYXOP-OVLDLUHVSA-N.pdb
REMARK                            x       y       z     vdW  Elec       q    Type
REMARK                         _______ _______ _______ _____ _____    ______ ____
ROOT
ATOM      1  N   LIG    1        1.714   4.648   0.000  0.00  0.00    +0.000 NA
ENDROOT
TORSDOF 0
REMARK  Name = molecules/FHOCOBKCNJYXOP-OVLDLUHVSA-N.pdb
REMARK                            x       y       z     vdW  Elec       q    Type
REMARK                         _______ _______ _______ _____ _____    ______ ____
ROOT
ATOM      1  N   LIG    1       -1.492   6.267   0.000  0.00  0.00    -0.163 NA
ATOM      2  H   LIG    1       -2.429   5.212   0.000  0.00  0.00    +0.163 HD
ENDROOT
TORSDOF 0
REMARK  Name = molecules/FHOCOBKCNJYXOP-OVLDLUHVSA-N.pdb
REMARK                            x       y       z     vdW  Elec       q    Type
REMARK                         _______ _______ _______ _____ _____    ______ ____
ROOT
ATOM      1  N   LIG    1        0.127   9.473   0.000  0.00  0.00    -0.244 NA
ATOM      2  C   LIG    1       -0.834   9.419   0.000  0.00  0.00    +0.103 C 
ATOM      3  H   LIG    1        0.150  10.551   0.000  0.00  0.00    +0.141 HD
ENDROOT
TORSDOF 0
REMARK  Name = molecules/FHOCOBKCNJYXOP-OVLDLUHVSA-N.pdb
REMARK                            x       y       z     vdW  Elec       q    Type
REMARK                         _______ _______ _______ _____ _____    ______ ____
ROOT
ATOM      1  O   LIG    1        1.164   6.664   0.000  0.00  0.00    -0.091 OA
ENDROOT
BRANCH   1   2
ATOM      2  N   LIG    1        0.791   7.314   0.000  0.00  0.00    -0.074 NA
ATOM      3  H   LIG    1        0.569   6.695   0.000  0.00  0.00    +0.179 HD
ENDBRANCH   1   2
BRANCH   1   4
ATOM      4  O   LIG    1        0.514   6.586   0.000  0.00  0.00    -0.013 OA
ATOM      5  O   LIG    1       -0.154   6.557   0.000  0.00  0.00    -0.001 OA
ENDBRANCH   1   4
TORSDOF 2
REMARK  Name = molecules/FHOCOBKCNJYXOP-OVLDLUHVSA-N.pdb
REMARK                            x       y       z     vdW  Elec       q    Type
REMARK                         _______ _______ _______ _____ _____    ______ ____
ROOT
ATOM      1  N   LIG    1        3.419   5.019   0.000  0.00  0.00    -0.214 NA
ATOM      2  H   LIG    1        2.767   4.701   0.000  0.00  0.00    +0.150 HD
ATOM      3  H   LIG    1        3.749   4.022   0.000  0.00  0.00    +0.150 HD
ENDROOT
BRANCH   1   4
ATOM      4  O   LIG    1        3.862   5.821   0.000  0.00  0.00    -0.294 OA
ATOM      5  C   LIG    1        4.135   6.570   0.000  0.00  0.00    +0.208 C 
ENDBRANCH   1   4
TORSDOF 1
REMARK  Name = molecules/FHOCOBKCNJYXOP-OVLDLUHVSA-N.pdb
REMARK                            x       y       z     vdW  Elec       q    Type
REMARK                         _______ _______ _______ _____ _____    ______ ____
ROOT
ATOM      1  N   LIG    1        5.689   7.802   0.000  0.00  0.00    -0.163 NA
ATOM      2  H   LIG    1        4.599   8.018   0.000  0.00  0.00    +0.163 HD
ENDROOT
TORSDOF 0
REMARK  Name = molecules/FHOCOBKCNJYXOP-OVLDLUHVSA-N.pdb
REMARK                            x       y       z     vdW  Elec       q    Type
REMARK                         _______ _______ _______ _____ _____    ______ ____
ROOT
ATOM      1  N   LIG    1        2.906  10.072   0.000  0.00  0.00    -0.163 NA
ATOM      2  H   LIG    1        3.805   9.985   0.000  0.00  0.00    +0.163 HD
ENDROOT
TORSDOF 0
REMARK  Name = molecules/FHOCOBKCNJYXOP-OVLDLUHVSA-N.pdb
REMARK                            x       y       z     vdW  Elec       q    Type
REMARK                         _______ _______ _______ _____ _____    ______ ____
ROOT
ATOM      1  N   LIG    1       -0.299  11.691   0.000  0.00  0.00    -0.273 NA
ATOM      2  H   LIG    1       -0.066  10.594   0.000  0.00  0.00    +0.137 HD
ATOM      3  H   LIG    1       -1.156  11.870   0.000  0.00  0.00    +0.137 HD
ENDROOT
TORSDOF 0
REMARK  Name = molecules/FHOCOBKCNJYXOP-OVLDLUHVSA-N.pdb
REMARK                            x       y       z     vdW  Elec       q    Type
REMARK                         _______ _______ _______ _____ _____    ______ ____
ROOT
ATOM      1  N   LIG    1        1.320  14.896   0.000  0.00  0.00    +0.000 NA
ENDROOT
TORSDOF 0
REMARK  Name = molecules/FHOCOBKCNJYXOP-OVLDLUHVSA-N.pdb
REMARK                            x       y       z     vdW  Elec       q    Type
REMARK                         _______ _______ _______ _____ _____    ______ ____
ROOT
ATOM      1  N   LIG    1        4.485  13.429   0.000  0.00  0.00    +0.000 NA
ENDROOT
TORSDOF 0
REMARK  Name = molecules/FHOCOBKCNJYXOP-OVLDLUHVSA-N.pdb
REMARK                            x       y       z     vdW  Elec       q    Type
REMARK                         _______ _______ _______ _____ _____    ______ ____
ROOT
ATOM      1  N   LIG    1        7.268  11.159   0.000  0.00  0.00    +0.000 NA
ENDROOT
TORSDOF 0
REMARK  Name = molecules/FHOCOBKCNJYXOP-OVLDLUHVSA-N.pdb
REMARK                            x       y       z     vdW  Elec       q    Type
REMARK                         _______ _______ _______ _____ _____    ______ ____
ROOT
ATOM      1  N   LIG    1        9.538  13.942   0.000  0.00  0.00    +0.000 NA
ENDROOT
TORSDOF 0
REMARK  Name = molecules/FHOCOBKCNJYXOP-OVLDLUHVSA-N.pdb
REMARK                            x       y       z     vdW  Elec       q    Type
REMARK                         _______ _______ _______ _____ _____    ______ ____
ROOT
ATOM      1  N   LIG    1       10.029  17.880   0.000  0.00  0.00    -0.325 NA
ATOM      2  C   LIG    1       10.763  17.064   0.000  0.00  0.00    +0.088 C 
ATOM      3  H   LIG    1       10.633  18.558   0.000  0.00  0.00    +0.119 HD
ATOM      4  H   LIG    1        9.165  18.246   0.000  0.00  0.00    +0.119 HD
ENDROOT
TORSDOF 0
REMARK  Name = molecules/FHOCOBKCNJYXOP-OVLDLUHVSA-N.pdb
REMARK                            x       y       z     vdW  Elec       q    Type
REMARK                         _______ _______ _______ _____ _____    ______ ____
ROOT
ATOM      1  N   LIG    1        7.246  20.150   0.000  0.00  0.00    -0.136 NA
ATOM      2  C   LIG    1        8.249  19.035   0.000  0.00  0.00    +0.136 C 
ENDROOT
TORSDOF 0
REMARK  Name = molecules/FHOCOBKCNJYXOP-OVLDLUHVSA-N.pdb
REMARK                            x       y       z     vdW  Elec       q    Type
REMARK                         _______ _______ _______ _____ _____    ______ ____
ROOT
ATOM      1  N   LIG    1        7.517  17.907   0.000  0.00  0.00    -0.163 NA
ATOM      2  H   LIG    1        7.834  17.168   0.000  0.00  0.00    +0.163 HD
ENDROOT
TORSDOF 0
REMARK  Name = molecules/FHOCOBKCNJYXOP-OVLDLUHVSA-N.pdb
REMARK                            x       y       z     vdW  Elec       q    Type
REMARK                         _______ _______ _______ _____ _____    ______ ____
ROOT
ATOM      1  N   LIG    1        5.358  17.243   0.000  0.00  0.00    -0.115 NA
ATOM      2  H   LIG    1        4.992  16.380   0.000  0.00  0.00    +0.176 HD
ENDROOT
BRANCH   1   3
ATOM      3  O   LIG    1        4.690  17.833   0.000  0.00  0.00    -0.299 OA
ATOM      4  H   LIG    1        4.919  18.677   0.000  0.00  0.00    +0.238 HD
ENDBRANCH   1   3
TORSDOF 1
REMARK  Name = molecules/FHOCOBKCNJYXOP-OVLDLUHVSA-N.pdb
REMARK                            x       y       z     vdW  Elec       q    Type
REMARK                         _______ _______ _______ _____ _____    ______ ____
ROOT
ATOM      1  N   LIG    1        3.088  14.460   0.000  0.00  0.00    -0.223 NA
ATOM      2  C   LIG    1        2.713  15.151   0.000  0.00  0.00    +0.114 C 
ENDROOT
BRANCH   1   3
ATOM      3  C   LIG    1        3.323  13.781   0.000  0.00  0.00    +0.084 C 
ATOM      4  C   LIG    1        3.400  12.993   0.000  0.00  0.00    +0.025 C 
ENDBRANCH   1   3
TORSDOF 1
REMARK  Name = molecules/FHOCOBKCNJYXOP-OVLDLUHVSA-N.pdb
REMARK                            x       y       z     vdW  Elec       q    Type
REMARK                         _______ _______ _______ _____ _____    ______ ____
ROOT
ATOM      1  N   LIG    1        5.330  14.731   0.000  0.00  0.00    +0.042 NA
ATOM      2  O   LIG    1        5.701  15.543   0.000  0.00  0.00    -0.246 OA
ATOM      3  C   LIG    1        6.362  16.128   0.000  0.00  0.00    +0.204 C 
ENDROOT
TORSDOF 0
REMARK  Name = molecules/FHOCOBKCNJYXOP-OVLDLUHVSA-N.pdb
REMARK                            x       y       z     vdW  Elec       q    Type
REMARK                         _______ _______ _______ _____ _____    ______ ____
ROOT
ATOM      1  N   LIG    1        5.995  12.572   0.000  0.00  0.00    -0.163 NA
ATOM      2  H   LIG    1        6.704  12.331   0.000  0.00  0.00    +0.163 HD
ENDROOT
TORSDOF 0
REMARK  Name = molecules/FHOCOBKCNJYXOP-OVLDLUHVSA-N.pdb
REMARK                            x       y       z     vdW  Elec       q    Type
REMARK                         _______ _______ _______ _____ _____    ______ ____
ROOT
ATOM      1  N   LIG    1        8.778  10.302   0.000  0.00  0.00    -0.163 NA
ATOM      2  H   LIG    1        9.062  11.191   0.000  0.00  0.00    +0.163 HD
ENDROOT
TORSDOF 0
REMARK  Name = molecules/FHOCOBKCNJYXOP-OVLDLUHVSA-N.pdb
REMARK                            x       y       z     vdW  Elec       q    Type
REMARK                         _______ _______ _______ _____ _____    ______ ____
ROOT
ATOM      1  N   LIG    1       11.048  13.085   0.000  0.00  0.00    +0.080 NA
ATOM      2  O   LIG    1       11.268  13.725   0.000  0.00  0.00    -0.067 OA
ATOM      3  O   LIG    1       10.767  14.195   0.000  0.00  0.00    -0.012 OA
ENDROOT
TORSDOF 0
REMARK  Name = molecules/FHOCOBKCNJYXOP-OVLDLUHVSA-N.pdb
REMARK                            x       y       z     vdW  Elec       q    Type
REMARK                         _______ _______ _______ _____ _____    ______ ____
ROOT
ATOM      1  N   LIG    1        8.960  12.838   0.000  0.00  0.00    +0.077 NA
ATOM      2  O   LIG    1        8.152  12.497   0.000  0.00  0.00    -0.099 OA
ENDROOT
BRANCH   2   3
ATOM      3  O   LIG    1        8.456  11.821   0.000  0.00  0.00    -0.197 OA
ATOM      4  C   LIG    1        7.774  11.417   0.000  0.00  0.00    +0.220 C 
ENDBRANCH   2   3
TORSDOF 1
REMARK  Name = molecules/FHOCOBKCNJYXOP-OVLDLUHVSA-N.pdb
REMARK                            x       y       z     vdW  Elec       q    Type
REMARK                         _______ _______ _______ _____ _____    ______ ____
ROOT
ATOM      1  N   LIG    1       12.505  12.264   0.000  0.00  0.00    -0.273 NA
ATOM      2  H   LIG    1       13.658  11.994   0.000  0.00  0.00    +0.137 HD
ATOM      3  H   LIG    1       12.594  11.275   0.000  0.00  0.00    +0.137 HD
ENDROOT
TORSDOF 0
REMARK  Name = molecules/FHOCOBKCNJYXOP-OVLDLUHVSA-N.pdb
REMARK                            x       y       z     vdW  Elec       q    Type
REMARK                         _______ _______ _______ _____ _____    ______ ____
ROOT
ATOM      1  C   LIG    1       12.261  15.187   0.000  0.00  0.00    +0.134 C 
ENDROOT
BRANCH   1   2
ATOM      2  N   LIG    1       13.080  15.809   0.000  0.00  0.00    -0.195 NA
ATOM      3  H   LIG    1       14.269  15.187   0.000  0.00  0.00    +0.154 HD
BRANCH   2   4
ATOM      4  O   LIG    1       13.567  16.695   0.000  0.00  0.00    -0.314 OA
ATOM      5  H   LIG    1       14.323  16.943   0.000  0.00  0.00    +0.236 HD
ENDBRANCH   2   4
ENDBRANCH   1   2
BRANCH   1   6
ATOM      6  C   LIG    1       12.616  14.382   0.000  0.00  0.00    -0.026 C 
ATOM      7  C   LIG    1       13.265  14.072   0.000  0.00  0.00    -0.017 C 
BRANCH   7   8
ATOM      8  C   LIG    1       13.620  13.268   0.000  0.00  0.00    +0.023 C 
ATOM      9  C   LIG    1       12.515  12.773   0.000  0.00  0.00    +0.004 C 
ENDBRANCH   7   8
ENDBRANCH   1   6
TORSDOF 4
REMARK  Name = molecules/FHOCOBKCNJYXOP-OVLDLUHVSA-N.pdb
REMARK                            x       y       z     vdW  Elec       q    Type
REMARK                         _______ _______ _______ _____ _____    ______ ____
ROOT
ATOM      1  O   HOH    1       11.273  14.453   0.000  0.00  0.00    +0.000 OA
ENDROOT
TORSDOF 0
REMARK  Name = molecules/FHOCOBKCNJYXOP-OVLDLUHVSA-N.pdb
REMARK                            x       y       z     vdW  Elec       q    Type
REMARK                         _______ _______ _______ _____ _____    ______ ____
ROOT
ATOM      1  O   HOH    1       17.294 -15.209   0.000  0.00  0.00    -0.410 OA
ATOM      2  H   HOH    0       17.223 -16.235   0.000  0.00  0.00    +0.205 HD
ATOM      3  H   HOH    0       16.608 -14.940   0.000  0.00  0.00    +0.205 HD
ENDROOT
TORSDOF 0
REMARK  Name = molecules/FHOCOBKCNJYXOP-OVLDLUHVSA-N.pdb
REMARK                            x       y       z     vdW  Elec       q    Type
REMARK                         _______ _______ _______ _____ _____    ______ ____
ROOT
ATOM      1  C   LIG    1       18.451 -15.374   0.000  0.00  0.00    +0.000 C 
ENDROOT
TORSDOF 0
REMARK  Name = molecules/FHOCOBKCNJYXOP-OVLDLUHVSA-N.pdb
REMARK                            x       y       z     vdW  Elec       q    Type
REMARK                         _______ _______ _______ _____ _____    ______ ____
ROOT
ATOM      1  O   HOH    1       12.745 -13.520   0.000  0.00  0.00    -0.410 OA
ATOM      2  H   HOH    0       12.198 -14.553   0.000  0.00  0.00    +0.205 HD
ATOM      3  H   HOH    0       12.930 -12.807   0.000  0.00  0.00    +0.205 HD
ENDROOT
TORSDOF 0
REMARK  Name = molecules/FHOCOBKCNJYXOP-OVLDLUHVSA-N.pdb
REMARK                            x       y       z     vdW  Elec       q    Type
REMARK                         _______ _______ _______ _____ _____    ______ ____
ROOT
ATOM      1  C   LIG    1       12.585  -9.159   0.000  0.00  0.00    +0.000 C 
ENDROOT
TORSDOF 0
REMARK  Name = molecules/FHOCOBKCNJYXOP-OVLDLUHVSA-N.pdb
REMARK                            x       y       z     vdW  Elec       q    Type
REMARK                         _______ _______ _______ _____ _____    ______ ____
ROOT
ATOM      1  O   HOH    1       14.079  -9.028   0.000  0.00  0.00    -0.410 OA
ATOM      2  H   HOH    0       13.367  -8.578   0.000  0.00  0.00    +0.205 HD
ATOM      3  H   HOH    0       14.662 -10.045   0.000  0.00  0.00    +0.205 HD
ENDROOT
TORSDOF 0
REMARK  Name = molecules/FHOCOBKCNJYXOP-OVLDLUHVSA-N.pdb
REMARK                            x       y       z     vdW  Elec       q    Type
REMARK                         _______ _______ _______ _____ _____    ______ ____
ROOT
ATOM      1  O   HOH    1        9.634  -7.286   0.000  0.00  0.00    -0.410 OA
ATOM      2  H   HOH    0        9.688  -6.445   0.000  0.00  0.00    +0.205 HD
ATOM      3  H   HOH    0       10.114  -8.356   0.000  0.00  0.00    +0.205 HD
ENDROOT
TORSDOF 0
REMARK  Name = molecules/FHOCOBKCNJYXOP-OVLDLUHVSA-N.pdb
REMARK                            x       y       z     vdW  Elec       q    Type
REMARK                         _______ _______ _______ _____ _____    ______ ____
ROOT
ATOM      1  C   LIG    1       12.120  -2.609   0.000  0.00  0.00    +0.261 C 
ATOM      2  C   LIG    1       11.656  -1.183   0.000  0.00  0.00    +0.135 C 
ATOM      3  N   LIG    1       12.870  -0.301   0.000  0.00  0.00    -0.322 N 
ATOM      4  C   LIG    1       14.083  -1.183   0.000  0.00  0.00    +0.179 C 
ATOM      5  H   LIG    1       13.318   0.855   0.000  0.00  0.00    +0.148 HD
ATOM      6  N   LIG    1       13.620  -2.609   0.000  0.00  0.00    -0.244 NA
ENDROOT
BRANCH   1   7
ATOM      7  O   LIG    1       10.810  -2.485   0.000  0.00  0.00    -0.369 OA
ATOM      8  H   LIG    1       10.125  -2.215   0.000  0.00  0.00    +0.212 HD
ENDBRANCH   1   7
TORSDOF 1
REMARK  Name = molecules/FHOCOBKCNJYXOP-OVLDLUHVSA-N.pdb
REMARK                            x       y       z     vdW  Elec       q    Type
REMARK                         _______ _______ _______ _____ _____    ______ ____
ROOT
ATOM      1  O   HOH    1        6.261  -0.796   0.000  0.00  0.00    -0.410 OA
ATOM      2  H   HOH    0        7.133  -1.341   0.000  0.00  0.00    +0.205 HD
ATOM      3  H   HOH    0        6.446  -0.083   0.000  0.00  0.00    +0.205 HD
ENDROOT
TORSDOF 0
REMARK  Name = molecules/FHOCOBKCNJYXOP-OVLDLUHVSA-N.pdb
REMARK                            x       y       z     vdW  Elec       q    Type
REMARK                         _______ _______ _______ _____ _____    ______ ____
ROOT
ATOM      1  C   LIG    1        5.174   0.712   0.000  0.00  0.00    +0.000 C 
ATOM      2  C   LIG    1        4.711  -0.714   0.000  0.00  0.00    +0.000 C 
ENDROOT
TORSDOF 0
REMARK  Name = molecules/FHOCOBKCNJYXOP-OVLDLUHVSA-N.pdb
REMARK                            x       y       z     vdW  Elec       q    Type
REMARK                         _______ _______ _______ _____ _____    ______ ____
ROOT
ATOM      1  C   LIG    1        5.714  -1.829   0.000  0.00  0.00    +0.000 C 
ENDROOT
TORSDOF 0
REMARK  Name = molecules/FHOCOBKCNJYXOP-OVLDLUHVSA-N.pdb
REMARK                            x       y       z     vdW  Elec       q    Type
REMARK                         _______ _______ _______ _____ _____    ______ ____
ROOT
ATOM      1  C   LIG    1        5.251  -3.256   0.000  0.00  0.00    -0.000 C 
ENDROOT
TORSDOF 0
REMARK  Name = molecules/FHOCOBKCNJYXOP-OVLDLUHVSA-N.pdb
REMARK                            x       y       z     vdW  Elec       q    Type
REMARK                         _______ _______ _______ _____ _____    ______ ____
ROOT
ATOM      1  C   LIG    1        3.784  -3.568   0.000  0.00  0.00    +0.000 C 
ENDROOT
TORSDOF 0
REMARK  Name = molecules/FHOCOBKCNJYXOP-OVLDLUHVSA-N.pdb
REMARK                            x       y       z     vdW  Elec       q    Type
REMARK                         _______ _______ _______ _____ _____    ______ ____
ROOT
ATOM      1  C   LIG    1        2.780  -2.453   0.000  0.00  0.00    +0.180 C 
ATOM      2  N   LIG    1        1.806  -3.000   0.000  0.00  0.00    -0.180 NA
ENDROOT
TORSDOF 0
REMARK  Name = molecules/FHOCOBKCNJYXOP-OVLDLUHVSA-N.pdb
REMARK                            x       y       z     vdW  Elec       q    Type
REMARK                         _______ _______ _______ _____ _____    ______ ____
ROOT
ATOM      1  C   LIG    1        3.244  -1.026   0.000  0.00  0.00    +0.000 C 
ENDROOT
TORSDOF 0
REMARK  Name = molecules/FHOCOBKCNJYXOP-OVLDLUHVSA-N.pdb
REMARK                            x       y       z     vdW  Elec       q    Type
REMARK                         _______ _______ _______ _____ _____    ______ ____
ROOT
ATOM      1  C   LIG    1        5.638   2.139   0.000  0.00  0.00    +0.000 C 
ENDROOT
TORSDOF 0
REMARK  Name = molecules/FHOCOBKCNJYXOP-OVLDLUHVSA-N.pdb
REMARK                            x       y       z     vdW  Elec       q    Type
REMARK                         _______ _______ _______ _____ _____    ______ ____
ROOT
ATOM      1  O   HOH    1        7.596   3.696   0.000  0.00  0.00    -0.253 OA
ATOM      2  H   HOH    0        7.066   4.145   0.000  0.00  0.00    +0.253 HD
ENDROOT
TORSDOF 0
REMARK  Name = molecules/FHOCOBKCNJYXOP-OVLDLUHVSA-N.pdb
REMARK                            x       y       z     vdW  Elec       q    Type
REMARK                         _______ _______ _______ _____ _____    ______ ____
ROOT
ATOM      1  C   LIG    1        6.988   5.643   0.000  0.00  0.00    +0.009 C 
ATOM      2  C   LIG    1        8.414   5.180   0.000  0.00  0.00    -0.009 C 
ENDROOT
TORSDOF 0
REMARK  Name = molecules/FHOCOBKCNJYXOP-OVLDLUHVSA-N.pdb
REMARK                            x       y       z     vdW  Elec       q    Type
REMARK                         _______ _______ _______ _____ _____    ______ ____
ROOT
ATOM      1  C   LIG    1        9.841   4.716   0.000  0.00  0.00    +0.136 C 
ATOM      2  N   LIG    1       11.268   4.253   0.000  0.00  0.00    -0.136 NA
ENDROOT
TORSDOF 0
REMARK  Name = molecules/FHOCOBKCNJYXOP-OVLDLUHVSA-N.pdb
REMARK                            x       y       z     vdW  Elec       q    Type
REMARK                         _______ _______ _______ _____ _____    ______ ____
ROOT
ATOM      1  C   LIG    1       11.579   2.785   0.000  0.00  0.00    +0.088 C 
ATOM      2  N   LIG    1       10.465   1.782   0.000  0.00  0.00    -0.325 NA
ATOM      3  H   LIG    1       10.863   0.640   0.000  0.00  0.00    +0.119 HD
ATOM      4  H   LIG    1        9.266   1.171   0.000  0.00  0.00    +0.119 HD
ENDROOT
TORSDOF 0
REMARK  Name = molecules/FHOCOBKCNJYXOP-OVLDLUHVSA-N.pdb
REMARK                            x       y       z     vdW  Elec       q    Type
REMARK                         _______ _______ _______ _____ _____    ______ ____
ROOT
ATOM      1  N   LIG    1       13.006   2.322   0.000  0.00  0.00    +0.000 NA
ENDROOT
TORSDOF 0
REMARK  Name = molecules/FHOCOBKCNJYXOP-OVLDLUHVSA-N.pdb
REMARK                            x       y       z     vdW  Elec       q    Type
REMARK                         _______ _______ _______ _____ _____    ______ ____
ROOT
ATOM      1  C   LIG    1        1.933   7.074   0.000  0.00  0.00    +0.000 C 
ATOM      2  C   LIG    1        1.174   7.189   0.000  0.00  0.00    +0.000 C 
ENDROOT
TORSDOF 0
REMARK  Name = molecules/FHOCOBKCNJYXOP-OVLDLUHVSA-N.pdb
REMARK                            x       y       z     vdW  Elec       q    Type
REMARK                         _______ _______ _______ _____ _____    ______ ____
ROOT
ATOM      1  C   LIG    1        2.860   9.928   0.000  0.00  0.00    +0.000 C 
ATOM      2  C   LIG    1        1.594   9.784   0.000  0.00  0.00    +0.000 C 
ENDROOT
TORSDOF 0
REMARK  Name = molecules/FHOCOBKCNJYXOP-OVLDLUHVSA-N.pdb
REMARK                            x       y       z     vdW  Elec       q    Type
REMARK                         _______ _______ _______ _____ _____    ______ ____
ROOT
ATOM      1  C   LIG    1        3.323  11.354   0.000  0.00  0.00    +0.000 C 
ENDROOT
TORSDOF 0
REMARK  Name = molecules/FHOCOBKCNJYXOP-OVLDLUHVSA-N.pdb
REMARK                            x       y       z     vdW  Elec       q    Type
REMARK                         _______ _______ _______ _____ _____    ______ ____
ROOT
ATOM      1  C   LIG    1        4.750  11.818   0.000  0.00  0.00    +0.000 C 
ATOM      2  C   LIG    1        4.840  10.793   0.000  0.00  0.00    +0.000 C 
ENDROOT
TORSDOF 0
REMARK  Name = molecules/FHOCOBKCNJYXOP-OVLDLUHVSA-N.pdb
REMARK                            x       y       z     vdW  Elec       q    Type
REMARK                         _______ _______ _______ _____ _____    ______ ____
ROOT
ATOM      1  N   LIG    1        4.750  13.318   0.000  0.00  0.00    +0.000 NA
ENDROOT
TORSDOF 0
REMARK  Name = molecules/FHOCOBKCNJYXOP-OVLDLUHVSA-N.pdb
REMARK                            x       y       z     vdW  Elec       q    Type
REMARK                         _______ _______ _______ _____ _____    ______ ____
ROOT
ATOM      1  C   LIG    1        2.442  12.568   0.000  0.00  0.00    +0.000 C 
ENDROOT
TORSDOF 0
REMARK  Name = molecules/FHOCOBKCNJYXOP-OVLDLUHVSA-N.pdb
REMARK                            x       y       z     vdW  Elec       q    Type
REMARK                         _______ _______ _______ _____ _____    ______ ____
ROOT
ATOM      1  C   LIG    1        0.950  12.724   0.000  0.00  0.00    +0.000 C 
ENDROOT
TORSDOF 0
REMARK  Name = molecules/FHOCOBKCNJYXOP-OVLDLUHVSA-N.pdb
REMARK                            x       y       z     vdW  Elec       q    Type
REMARK                         _______ _______ _______ _____ _____    ______ ____
ROOT
ATOM      1  C   LIG    1        0.340  14.095   0.000  0.00  0.00    +0.000 C 
ENDROOT
TORSDOF 0
REMARK  Name = molecules/FHOCOBKCNJYXOP-OVLDLUHVSA-N.pdb
REMARK                            x       y       z     vdW  Elec       q    Type
REMARK                         _______ _______ _______ _____ _____    ______ ____
ROOT
ATOM      1  C   LIG    1        1.221  15.308   0.000  0.00  0.00    +0.109 C 
ATOM      2  N   LIG    1        0.347  15.653   0.000  0.00  0.00    -0.295 NA
ATOM      3  H   LIG    1       -0.791  15.249   0.000  0.00  0.00    +0.187 HD
ENDROOT
TORSDOF 0
REMARK  Name = molecules/FHOCOBKCNJYXOP-OVLDLUHVSA-N.pdb
REMARK                            x       y       z     vdW  Elec       q    Type
REMARK                         _______ _______ _______ _____ _____    ______ ____
ROOT
ATOM      1  C   LIG    1        2.396   8.501   0.000  0.00  0.00    -0.078 C 
ATOM      2  C   LIG    1        1.751   8.293   0.000  0.00  0.00    -0.014 C 
ENDROOT
BRANCH   1   3
ATOM      3  C   LIG    1        3.218   8.604   0.000  0.00  0.00    +0.073 C 
ATOM      4  C   LIG    1        3.910   8.957   0.000  0.00  0.00    +0.020 C 
ENDBRANCH   1   3
TORSDOF 1
REMARK  Name = molecules/FHOCOBKCNJYXOP-OVLDLUHVSA-N.pdb
REMARK                            x       y       z     vdW  Elec       q    Type
REMARK                         _______ _______ _______ _____ _____    ______ ____
ROOT
ATOM      1  C   LIG    1        2.009   3.106   0.000  0.00  0.00    +0.000 C 
ENDROOT
TORSDOF 0
REMARK  Name = molecules/FHOCOBKCNJYXOP-OVLDLUHVSA-N.pdb
REMARK                            x       y       z     vdW  Elec       q    Type
REMARK                         _______ _______ _______ _____ _____    ______ ____
ROOT
ATOM      1  C   LIG    1        2.473   4.533   0.000  0.00  0.00    +0.000 C 
ENDROOT
TORSDOF 0
REMARK  Name = molecules/FHOCOBKCNJYXOP-OVLDLUHVSA-N.pdb
REMARK                            x       y       z     vdW  Elec       q    Type
REMARK                         _______ _______ _______ _____ _____    ______ ____
ROOT
ATOM      1  O   LIG    1        3.253   2.268   0.000  0.00  0.00    -0.218 OA
ATOM      2  O   LIG    1        2.829   1.609   0.000  0.00  0.00    -0.038 OA
ATOM      3  H   LIG    1        4.043   2.084   0.000  0.00  0.00    +0.256 HD
ENDROOT
TORSDOF 0
REMARK  Name = molecules/FHOCOBKCNJYXOP-OVLDLUHVSA-N.pdb
REMARK                            x       y       z     vdW  Elec       q    Type
REMARK                         _______ _______ _______ _____ _____    ______ ____
ROOT
ATOM      1  C   LIG    1       -4.201   2.759   0.000  0.00  0.00    -0.000 C 
ENDROOT
TORSDOF 0
REMARK  Name = molecules/FHOCOBKCNJYXOP-OVLDLUHVSA-N.pdb
REMARK                            x       y       z     vdW  Elec       q    Type
REMARK                         _______ _______ _______ _____ _____    ______ ____
ROOT
ATOM      1  C   LIG    1       -2.775   2.295   0.000  0.00  0.00    +0.000 C 
ENDROOT
TORSDOF 0
REMARK  Name = molecules/FHOCOBKCNJYXOP-OVLDLUHVSA-N.pdb
REMARK                            x       y       z     vdW  Elec       q    Type
REMARK                         _______ _______ _______ _____ _____    ______ ____
ROOT
ATOM      1  C   LIG    1       -1.348   1.831   0.000  0.00  0.00    +0.000 C 
ENDROOT
TORSDOF 0
REMARK  Name = molecules/FHOCOBKCNJYXOP-OVLDLUHVSA-N.pdb
REMARK                            x       y       z     vdW  Elec       q    Type
REMARK                         _______ _______ _______ _____ _____    ______ ____
ROOT
ATOM      1  N   LIG    1       -7.054   3.686   0.000  0.00  0.00    -0.142 NA
ATOM      2  C   LIG    1       -5.628   3.222   0.000  0.00  0.00    +0.142 C 
ENDROOT
TORSDOF 0
REMARK  Name = molecules/FHOCOBKCNJYXOP-OVLDLUHVSA-N.pdb
REMARK                            x       y       z     vdW  Elec       q    Type
REMARK                         _______ _______ _______ _____ _____    ______ ____
ROOT
ATOM      1  C   LIG    1       -0.190  -0.563   0.000  0.00  0.00    +0.000 C 
ENDROOT
TORSDOF 0
REMARK  Name = molecules/FHOCOBKCNJYXOP-OVLDLUHVSA-N.pdb
REMARK                            x       y       z     vdW  Elec       q    Type
REMARK                         _______ _______ _______ _____ _____    ______ ____
ROOT
ATOM      1  C   LIG    1        3.030  -2.665   0.000  0.00  0.00    -0.000 C 
ENDROOT
TORSDOF 0
REMARK  Name = molecules/FHOCOBKCNJYXOP-OVLDLUHVSA-N.pdb
REMARK                            x       y       z     vdW  Elec       q    Type
REMARK                         _______ _______ _______ _____ _____    ______ ____
ROOT
ATOM      1  C   LIG    1        3.187  -1.173   0.000  0.00  0.00    +0.000 C 
ENDROOT
TORSDOF 0
REMARK  Name = molecules/FHOCOBKCNJYXOP-OVLDLUHVSA-N.pdb
REMARK                            x       y       z     vdW  Elec       q    Type
REMARK                         _______ _______ _______ _____ _____    ______ ____
ROOT
ATOM      1  O   HOH    1       -0.086   0.934   0.000  0.00  0.00    +0.000 OA
ENDROOT
TORSDOF 0
REMARK  Name = molecules/FHOCOBKCNJYXOP-OVLDLUHVSA-N.pdb
REMARK                            x       y       z     vdW  Elec       q    Type
REMARK                         _______ _______ _______ _____ _____    ______ ____
ROOT
ATOM      1  C   LIG    1       -1.547   1.244   0.000  0.00  0.00    +0.000 C 
ENDROOT
TORSDOF 0
REMARK  Name = molecules/FHOCOBKCNJYXOP-OVLDLUHVSA-N.pdb
REMARK                            x       y       z     vdW  Elec       q    Type
REMARK                         _______ _______ _______ _____ _____    ______ ____
ROOT
ATOM      1  C   LIG    1       -4.891  -1.767   0.000  0.00  0.00    +0.008 C 
ATOM      2  C   LIG    1       -3.776  -0.764   0.000  0.00  0.00    -0.008 C 
ENDROOT
TORSDOF 0
REMARK  Name = molecules/FHOCOBKCNJYXOP-OVLDLUHVSA-N.pdb
REMARK                            x       y       z     vdW  Elec       q    Type
REMARK                         _______ _______ _______ _____ _____    ______ ____
ROOT
ATOM      1  C   LIG    1       -2.661   0.240   0.000  0.00  0.00    -0.000 C 
ENDROOT
TORSDOF 0
REMARK  Name = molecules/FHOCOBKCNJYXOP-OVLDLUHVSA-N.pdb
REMARK                            x       y       z     vdW  Elec       q    Type
REMARK                         _______ _______ _______ _____ _____    ______ ____
ROOT
ATOM      1  C   LIG    1        0.371   4.718   0.000  0.00  0.00    +0.005 C 
ATOM      2  C   LIG    1       -0.422   5.212   0.000  0.00  0.00    -0.005 C 
ATOM      3  C   LIG    1       -0.065   5.803   0.000  0.00  0.00    -0.000 C 
ENDROOT
TORSDOF 0
REMARK  Name = molecules/FHOCOBKCNJYXOP-OVLDLUHVSA-N.pdb
REMARK                            x       y       z     vdW  Elec       q    Type
REMARK                         _______ _______ _______ _____ _____    ______ ____
ROOT
ATOM      1  C   LIG    1       -0.744   3.715   0.000  0.00  0.00    +0.000 C 
ENDROOT
TORSDOF 0
REMARK  Name = molecules/FHOCOBKCNJYXOP-OVLDLUHVSA-N.pdb
REMARK                            x       y       z     vdW  Elec       q    Type
REMARK                         _______ _______ _______ _____ _____    ______ ____
ROOT
ATOM      1  O   HOH    1        1.730   4.084   0.000  0.00  0.00    -0.253 OA
ATOM      2  H   HOH    0        2.237   3.421   0.000  0.00  0.00    +0.253 HD
ENDROOT
TORSDOF 0
REMARK  Name = molecules/FHOCOBKCNJYXOP-OVLDLUHVSA-N.pdb
REMARK                            x       y       z     vdW  Elec       q    Type
REMARK                         _______ _______ _______ _____ _____    ______ ____
ROOT
ATOM      1  C   LIG    1       -1.837  10.533   0.000  0.00  0.00    +0.000 C 
ENDROOT
TORSDOF 0
REMARK  Name = molecules/FHOCOBKCNJYXOP-OVLDLUHVSA-N.pdb
REMARK                            x       y       z     vdW  Elec       q    Type
REMARK                         _______ _______ _______ _____ _____    ______ ____
ROOT
ATOM      1  C   LIG    1        0.170   8.304   0.000  0.00  0.00    +0.035 C 
ATOM      2  C   LIG    1       -0.676   7.625   0.000  0.00  0.00    -0.047 C 
ATOM      3  C   LIG    1       -1.804   7.734   0.000  0.00  0.00    +0.013 C 
ENDROOT
TORSDOF 0
REMARK  Name = molecules/FHOCOBKCNJYXOP-OVLDLUHVSA-N.pdb
REMARK                            x       y       z     vdW  Elec       q    Type
REMARK                         _______ _______ _______ _____ _____    ______ ____
ROOT
ATOM      1  N   LIG    1       -3.845  12.763   0.000  0.00  0.00    -0.142 NA
ATOM      2  C   LIG    1       -4.549  13.649   0.000  0.00  0.00    +0.142 C 
ENDROOT
TORSDOF 0
REMARK  Name = molecules/FHOCOBKCNJYXOP-OVLDLUHVSA-N.pdb
REMARK                            x       y       z     vdW  Elec       q    Type
REMARK                         _______ _______ _______ _____ _____    ______ ____
ROOT
ATOM      1  C   LIG    1       -2.841  11.648   0.000  0.00  0.00    -0.005 C 
ATOM      2  C   LIG    1       -4.009  11.107   0.000  0.00  0.00    +0.005 C 
ATOM      3  C   LIG    1       -3.546  12.534   0.000  0.00  0.00    -0.000 C 
ENDROOT
TORSDOF 0
REMARK  Name = molecules/FHOCOBKCNJYXOP-OVLDLUHVSA-N.pdb
REMARK                            x       y       z     vdW  Elec       q    Type
REMARK                         _______ _______ _______ _____ _____    ______ ____
ROOT
ATOM      1  C   LIG    1        0.559   2.869   0.000  0.00  0.00    +0.000 C 
ENDROOT
TORSDOF 0
REMARK  Name = molecules/FHOCOBKCNJYXOP-OVLDLUHVSA-N.pdb
REMARK                            x       y       z     vdW  Elec       q    Type
REMARK                         _______ _______ _______ _____ _____    ______ ____
ROOT
ATOM      1  C   LIG    1        0.247   4.336   0.000  0.00  0.00    +0.000 C 
ENDROOT
TORSDOF 0
REMARK  Name = molecules/FHOCOBKCNJYXOP-OVLDLUHVSA-N.pdb
REMARK                            x       y       z     vdW  Elec       q    Type
REMARK                         _______ _______ _______ _____ _____    ______ ____
ROOT
ATOM      1  C   LIG    1       -0.336   8.046   0.000  0.00  0.00    +0.000 C 
ENDROOT
TORSDOF 0
REMARK  Name = molecules/FHOCOBKCNJYXOP-OVLDLUHVSA-N.pdb
REMARK                            x       y       z     vdW  Elec       q    Type
REMARK                         _______ _______ _______ _____ _____    ______ ____
ROOT
ATOM      1  C   LIG    1       -3.271   7.422   0.000  0.00  0.00    -0.000 C 
ENDROOT
TORSDOF 0
REMARK  Name = molecules/FHOCOBKCNJYXOP-OVLDLUHVSA-N.pdb
REMARK                            x       y       z     vdW  Elec       q    Type
REMARK                         _______ _______ _______ _____ _____    ______ ____
ROOT
ATOM      1  N   LIG    1       -7.673   6.487   0.000  0.00  0.00    -0.271 N 
ATOM      2  H   LIG    1       -7.543   5.104   0.000  0.00  0.00    +0.258 HD
ENDROOT
BRANCH   1   4
ATOM      3  C   LIG    1       -4.738   7.110   0.000  0.00  0.00    +0.040 C 
ATOM      4  C   LIG    1       -6.205   6.798   0.000  0.00  0.00    +0.196 C 
ENDBRANCH   1   4
BRANCH   1   5
ATOM      5  C   LIG    1       -8.676   7.601   0.000  0.00  0.00    +0.456 C 
ATOM      6  N   LIG    1      -10.143   7.290   0.000  0.00  0.00    +0.128 NA
BRANCH   5   7
ATOM      7  N   LIG    1       -8.213   9.028   0.000  0.00  0.00    -0.124 NA
ATOM      8  H   LIG    1       -8.581  10.239   0.000  0.00  0.00    +0.306 HD
ENDBRANCH   5   7
ENDBRANCH   1   5
TORSDOF 3
REMARK  Name = molecules/FHOCOBKCNJYXOP-OVLDLUHVSA-N.pdb
REMARK                            x       y       z     vdW  Elec       q    Type
REMARK                         _______ _______ _______ _____ _____    ______ ____
ROOT
ATOM      1  C   LIG    1        1.906   8.317   0.000  0.00  0.00    +0.000 C 
ENDROOT
TORSDOF 0
REMARK  Name = molecules/FHOCOBKCNJYXOP-OVLDLUHVSA-N.pdb
REMARK                            x       y       z     vdW  Elec       q    Type
REMARK                         _______ _______ _______ _____ _____    ______ ____
ROOT
ATOM      1  C   LIG    1        1.282  11.252   0.000  0.00  0.00    +0.000 C 
ENDROOT
TORSDOF 0
REMARK  Name = molecules/FHOCOBKCNJYXOP-OVLDLUHVSA-N.pdb
REMARK                            x       y       z     vdW  Elec       q    Type
REMARK                         _______ _______ _______ _____ _____    ______ ____
ROOT
ATOM      1  C   LIG    1        0.971  12.719   0.000  0.00  0.00    +0.279 C 
ATOM      2  O   LIG    1        1.640  12.637   0.000  0.00  0.00    -0.279 OA
ENDROOT
TORSDOF 0
REMARK  Name = molecules/FHOCOBKCNJYXOP-OVLDLUHVSA-N.pdb
REMARK                            x       y       z     vdW  Elec       q    Type
REMARK                         _______ _______ _______ _____ _____    ______ ____
ROOT
ATOM      1  C   LIG    1        0.659  14.186   0.000  0.00  0.00    +0.005 C 
ATOM      2  C   LIG    1        0.856  13.470   0.000  0.00  0.00    -0.005 C 
ENDROOT
TORSDOF 0
REMARK  Name = molecules/FHOCOBKCNJYXOP-OVLDLUHVSA-N.pdb
REMARK                            x       y       z     vdW  Elec       q    Type
REMARK                         _______ _______ _______ _____ _____    ______ ____
ROOT
ATOM      1  C   LIG    1        1.462  16.657   0.000  0.00  0.00    +0.019 C 
ATOM      2  C   LIG    1        1.320  17.323   0.000  0.00  0.00    +0.092 C 
ENDROOT
BRANCH   2   3
ATOM      3  N   LIG    1        1.150  18.124   0.000  0.00  0.00    -0.251 NA
ATOM      4  H   LIG    1        2.085  18.268   0.000  0.00  0.00    +0.141 HD
ENDBRANCH   2   3
TORSDOF 1
REMARK  Name = molecules/FHOCOBKCNJYXOP-OVLDLUHVSA-N.pdb
REMARK                            x       y       z     vdW  Elec       q    Type
REMARK                         _______ _______ _______ _____ _____    ______ ____
ROOT
ATOM      1  N   LIG    1        2.888  16.194   0.000  0.00  0.00    -0.221 NA
ATOM      2  C   LIG    1        2.746  16.860   0.000  0.00  0.00    +0.107 C 
ATOM      3  C   LIG    1        2.746  15.360   0.000  0.00  0.00    +0.114 C 
ENDROOT
TORSDOF 0
REMARK  Name = molecules/FHOCOBKCNJYXOP-OVLDLUHVSA-N.pdb
REMARK                            x       y       z     vdW  Elec       q    Type
REMARK                         _______ _______ _______ _____ _____    ______ ____
ROOT
ATOM      1  O   LIG    1        2.809   7.119   0.000  0.00  0.00    +0.000 OA
ATOM      2  O   LIG    1        3.495   7.176   0.000  0.00  0.00    +0.000 OA
ENDROOT
TORSDOF 0
REMARK  Name = molecules/FHOCOBKCNJYXOP-OVLDLUHVSA-N.pdb
REMARK                            x       y       z     vdW  Elec       q    Type
REMARK                         _______ _______ _______ _____ _____    ______ ____
ROOT
ATOM      1  C   LIG    1        2.416   6.134   0.000  0.00  0.00    +0.000 C 
ENDROOT
TORSDOF 0
REMARK  Name = molecules/FHOCOBKCNJYXOP-OVLDLUHVSA-N.pdb
REMARK                            x       y       z     vdW  Elec       q    Type
REMARK                         _______ _______ _______ _____ _____    ______ ____
ROOT
ATOM      1  C   LIG    1        0.948   5.822   0.000  0.00  0.00    +0.000 C 
ENDROOT
TORSDOF 0
REMARK  Name = molecules/FHOCOBKCNJYXOP-OVLDLUHVSA-N.pdb
REMARK                            x       y       z     vdW  Elec       q    Type
REMARK                         _______ _______ _______ _____ _____    ______ ____
ROOT
ATOM      1  C   LIG    1       -1.426   6.326   0.000  0.00  0.00    +0.000 C 
ENDROOT
TORSDOF 0
REMARK  Name = molecules/FHOCOBKCNJYXOP-OVLDLUHVSA-N.pdb
REMARK                            x       y       z     vdW  Elec       q    Type
REMARK                         _______ _______ _______ _____ _____    ______ ____
ROOT
ATOM      1  C   LIG    1        5.510   2.396   0.000  0.00  0.00    +0.000 C 
ENDROOT
TORSDOF 0
REMARK  Name = molecules/FHOCOBKCNJYXOP-OVLDLUHVSA-N.pdb
REMARK                            x       y       z     vdW  Elec       q    Type
REMARK                         _______ _______ _______ _____ _____    ______ ____
ROOT
ATOM      1  C   LIG    1        3.731   3.552   0.000  0.00  0.00    +0.000 C 
ENDROOT
TORSDOF 0
REMARK  Name = molecules/FHOCOBKCNJYXOP-OVLDLUHVSA-N.pdb
REMARK                            x       y       z     vdW  Elec       q    Type
REMARK                         _______ _______ _______ _____ _____    ______ ____
ROOT
ATOM      1  O   HOH    1        3.102   7.084   0.000  0.00  0.00    +0.000 OA
ENDROOT
TORSDOF 0
REMARK  Name = molecules/FHOCOBKCNJYXOP-OVLDLUHVSA-N.pdb
REMARK                            x       y       z     vdW  Elec       q    Type
REMARK                         _______ _______ _______ _____ _____    ______ ____
ROOT
ATOM      1  C   LIG    1        9.779  10.204   0.000  0.00  0.00    +0.025 C 
ATOM      2  C   LIG    1        9.047  10.004   0.000  0.00  0.00    -0.057 C 
ATOM      3  C   LIG    1        8.312   9.893   0.000  0.00  0.00    +0.062 C 
ATOM      4  C   LIG    1        8.849  10.720   0.000  0.00  0.00    -0.061 C 
ATOM      5  C   LIG    1        8.735  11.471   0.000  0.00  0.00    +0.031 C 
ENDROOT
TORSDOF 0
REMARK  Name = molecules/FHOCOBKCNJYXOP-OVLDLUHVSA-N.pdb
REMARK                            x       y       z     vdW  Elec       q    Type
REMARK                         _______ _______ _______ _____ _____    ______ ____
ROOT
ATOM      1  C   LIG    1        6.845   9.581   0.000  0.00  0.00    +0.000 C 
ATOM      2  C   LIG    1        7.734   9.716   0.000  0.00  0.00    +0.000 C 
ATOM      3  C   LIG    1        6.620   8.713   0.000  0.00  0.00    +0.000 C 
ENDROOT
TORSDOF 0
REMARK  Name = molecules/FHOCOBKCNJYXOP-OVLDLUHVSA-N.pdb
REMARK                            x       y       z     vdW  Elec       q    Type
REMARK                         _______ _______ _______ _____ _____    ______ ____
ROOT
ATOM      1  C   LIG    1        5.377   9.269   0.000  0.00  0.00    +0.000 C 
ENDROOT
TORSDOF 0
REMARK  Name = molecules/FHOCOBKCNJYXOP-OVLDLUHVSA-N.pdb
REMARK                            x       y       z     vdW  Elec       q    Type
REMARK                         _______ _______ _______ _____ _____    ______ ____
ROOT
ATOM      1  N   LIG    1       12.713  10.828   0.000  0.00  0.00    -0.273 NA
ATOM      2  H   LIG    1       11.712  10.926   0.000  0.00  0.00    +0.137 HD
ATOM      3  H   LIG    1       13.943  10.816   0.000  0.00  0.00    +0.137 HD
ENDROOT
TORSDOF 0
REMARK  Name = molecules/FHOCOBKCNJYXOP-OVLDLUHVSA-N.pdb
REMARK                            x       y       z     vdW  Elec       q    Type
REMARK                         _______ _______ _______ _____ _____    ______ ____
ROOT
ATOM      1  C   LIG    1       11.246  10.516   0.000  0.00  0.00    +0.000 C 
ENDROOT
TORSDOF 0
REMARK  Name = molecules/FHOCOBKCNJYXOP-OVLDLUHVSA-N.pdb
REMARK                            x       y       z     vdW  Elec       q    Type
REMARK                         _______ _______ _______ _____ _____    ______ ____
ROOT
ATOM      1  C   LIG    1        1.127  11.227   0.000  0.00  0.00    +0.000 C 
ATOM      2  C   LIG    1        1.862  11.338   0.000  0.00  0.00    +0.000 C 
ENDROOT
TORSDOF 0
REMARK  Name = molecules/FHOCOBKCNJYXOP-OVLDLUHVSA-N.pdb
REMARK                            x       y       z     vdW  Elec       q    Type
REMARK                         _______ _______ _______ _____ _____    ______ ____
ROOT
ATOM      1  C   LIG    1        1.439   9.760   0.000  0.00  0.00    -0.000 C 
ENDROOT
TORSDOF 0
REMARK  Name = molecules/FHOCOBKCNJYXOP-OVLDLUHVSA-N.pdb
REMARK                            x       y       z     vdW  Elec       q    Type
REMARK                         _______ _______ _______ _____ _____    ______ ____
ROOT
ATOM      1  C   LIG    1       -2.078  12.846   0.000  0.00  0.00    +0.000 C 
ENDROOT
TORSDOF 0
REMARK  Name = molecules/FHOCOBKCNJYXOP-OVLDLUHVSA-N.pdb
REMARK                            x       y       z     vdW  Elec       q    Type
REMARK                         _______ _______ _______ _____ _____    ______ ____
ROOT
ATOM      1  C   LIG    1       -5.476  10.796   0.000  0.00  0.00    +0.049 C 
ATOM      2  C   LIG    1       -6.480  11.910   0.000  0.00  0.00    +0.157 C 
ATOM      3  C   LIG    1       -6.016  13.337   0.000  0.00  0.00    +0.087 C 
ATOM      4  O   LIG    1       -7.947  11.598   0.000  0.00  0.00    -0.293 OA
ENDROOT
TORSDOF 0
REMARK  Name = molecules/FHOCOBKCNJYXOP-OVLDLUHVSA-N.pdb
REMARK                            x       y       z     vdW  Elec       q    Type
REMARK                         _______ _______ _______ _____ _____    ______ ____
ROOT
ATOM      1  C   LIG    1       -0.611  13.158   0.000  0.00  0.00    -0.000 C 
ENDROOT
TORSDOF 0
REMARK  Name = molecules/FHOCOBKCNJYXOP-OVLDLUHVSA-N.pdb
REMARK                            x       y       z     vdW  Elec       q    Type
REMARK                         _______ _______ _______ _____ _____    ______ ____
ROOT
ATOM      1  O   LIG    1        1.394  12.069   0.000  0.00  0.00    -0.269 OA
ATOM      2  O   LIG    1        0.730  12.322   0.000  0.00  0.00    +0.031 OA
ENDROOT
BRANCH   1   3
ATOM      3  C   LIG    1        1.933  12.681   0.000  0.00  0.00    +0.489 C 
ATOM      4  O   LIG    1        1.658  13.355   0.000  0.00  0.00    -0.251 OA
ENDBRANCH   1   3
TORSDOF 1
REMARK  Name = molecules/FHOCOBKCNJYXOP-OVLDLUHVSA-N.pdb
REMARK                            x       y       z     vdW  Elec       q    Type
REMARK                         _______ _______ _______ _____ _____    ______ ____
ROOT
ATOM      1  C   LIG    1        3.058  13.893   0.000  0.00  0.00    +0.000 C 
ENDROOT
TORSDOF 0
REMARK  Name = molecules/FHOCOBKCNJYXOP-OVLDLUHVSA-N.pdb
REMARK                            x       y       z     vdW  Elec       q    Type
REMARK                         _______ _______ _______ _____ _____    ______ ____
ROOT
ATOM      1  C   LIG    1        0.438  16.110   0.000  0.00  0.00    +0.000 C 
ENDROOT
TORSDOF 0
REMARK  Name = molecules/FHOCOBKCNJYXOP-OVLDLUHVSA-N.pdb
REMARK                            x       y       z     vdW  Elec       q    Type
REMARK                         _______ _______ _______ _____ _____    ______ ____
ROOT
ATOM      1  C   LIG    1        6.264  12.274   0.000  0.00  0.00    +0.000 C 
ENDROOT
TORSDOF 0
REMARK  Name = molecules/FHOCOBKCNJYXOP-OVLDLUHVSA-N.pdb
REMARK                            x       y       z     vdW  Elec       q    Type
REMARK                         _______ _______ _______ _____ _____    ______ ____
ROOT
ATOM      1  C   LIG    1        3.329  11.650   0.000  0.00  0.00    +0.000 C 
ENDROOT
TORSDOF 0
REMARK  Name = molecules/FHOCOBKCNJYXOP-OVLDLUHVSA-N.pdb
REMARK                            x       y       z     vdW  Elec       q    Type
REMARK                         _______ _______ _______ _____ _____    ______ ____
ROOT
ATOM      1  O   HOH    1        1.399   9.912   0.000  0.00  0.00    +0.000 OA
ENDROOT
TORSDOF 0
REMARK  Name = molecules/FHOCOBKCNJYXOP-OVLDLUHVSA-N.pdb
REMARK                            x       y       z     vdW  Elec       q    Type
REMARK                         _______ _______ _______ _____ _____    ______ ____
ROOT
ATOM      1  C   LIG    1        4.797  11.962   0.000  0.00  0.00    +0.000 C 
ENDROOT
TORSDOF 0
REMARK  Name = molecules/FHOCOBKCNJYXOP-OVLDLUHVSA-N.pdb
REMARK                            x       y       z     vdW  Elec       q    Type
REMARK                         _______ _______ _______ _____ _____    ______ ____
ROOT
ATOM      1  O   HOH    1        6.898  13.633   0.000  0.00  0.00    -0.253 OA
ATOM      2  H   HOH    0        7.479  13.073   0.000  0.00  0.00    +0.253 HD
ENDROOT
TORSDOF 0
REMARK  Name = molecules/FHOCOBKCNJYXOP-OVLDLUHVSA-N.pdb
REMARK                            x       y       z     vdW  Elec       q    Type
REMARK                         _______ _______ _______ _____ _____    ______ ____
ROOT
ATOM      1  C   LIG    1        8.423  12.938   0.000  0.00  0.00    +0.000 C 
ENDROOT
TORSDOF 0
REMARK  Name = molecules/FHOCOBKCNJYXOP-OVLDLUHVSA-N.pdb
REMARK                            x       y       z     vdW  Elec       q    Type
REMARK                         _______ _______ _______ _____ _____    ______ ____
ROOT
ATOM      1  O   HOH    1        6.950  13.224   0.000  0.00  0.00    +0.000 OA
ENDROOT
TORSDOF 0
REMARK  Name = molecules/FHOCOBKCNJYXOP-OVLDLUHVSA-N.pdb
REMARK                            x       y       z     vdW  Elec       q    Type
REMARK                         _______ _______ _______ _____ _____    ______ ____
ROOT
ATOM      1  C   LIG    1        8.914  16.876   0.000  0.00  0.00    +0.279 C 
ATOM      2  O   LIG    1        8.328  17.537   0.000  0.00  0.00    -0.279 OA
ENDROOT
TORSDOF 0
REMARK  Name = molecules/FHOCOBKCNJYXOP-OVLDLUHVSA-N.pdb
REMARK                            x       y       z     vdW  Elec       q    Type
REMARK                         _______ _______ _______ _____ _____    ______ ____
ROOT
ATOM      1  C   LIG    1        9.226  15.409   0.000  0.00  0.00    +0.225 C 
ATOM      2  O   LIG    1        8.292  15.249   0.000  0.00  0.00    -0.225 OA
ENDROOT
TORSDOF 0
REMARK  Name = molecules/FHOCOBKCNJYXOP-OVLDLUHVSA-N.pdb
REMARK                            x       y       z     vdW  Elec       q    Type
REMARK                         _______ _______ _______ _____ _____    ______ ____
ROOT
ATOM      1  O   LIG    1        7.418  16.981   0.000  0.00  0.00    -0.348 OA
ATOM      2  C   LIG    1        6.486  16.511   0.000  0.00  0.00    +0.174 C 
ATOM      3  C   LIG    1        7.829  16.440   0.000  0.00  0.00    +0.174 C 
ENDROOT
TORSDOF 0
REMARK  Name = molecules/FHOCOBKCNJYXOP-OVLDLUHVSA-N.pdb
REMARK                            x       y       z     vdW  Elec       q    Type
REMARK                         _______ _______ _______ _____ _____    ______ ____
ROOT
ATOM      1  C   LIG    1       11.184  19.659   0.000  0.00  0.00    +0.000 C 
ENDROOT
TORSDOF 0
REMARK  Name = molecules/FHOCOBKCNJYXOP-OVLDLUHVSA-N.pdb
REMARK                            x       y       z     vdW  Elec       q    Type
REMARK                         _______ _______ _______ _____ _____    ______ ____
ROOT
ATOM      1  C   LIG    1       12.651  19.971   0.000  0.00  0.00    +0.000 C 
ENDROOT
TORSDOF 0
REMARK  Name = molecules/FHOCOBKCNJYXOP-OVLDLUHVSA-N.pdb
REMARK                            x       y       z     vdW  Elec       q    Type
REMARK                         _______ _______ _______ _____ _____    ______ ____
ROOT
ATOM      1  C   LIG    1       14.118  20.283   0.000  0.00  0.00    +0.000 C 
ENDROOT
TORSDOF 0
REMARK  Name = molecules/FHOCOBKCNJYXOP-OVLDLUHVSA-N.pdb
REMARK                            x       y       z     vdW  Elec       q    Type
REMARK                         _______ _______ _______ _____ _____    ______ ____
ROOT
ATOM      1  O   LIG    1       15.122  19.168   0.000  0.00  0.00    -0.489 OA
ATOM      2  C   LIG    1       14.306  18.931   0.000  0.00  0.00    +0.261 C 
ENDROOT
BRANCH   1   3
ATOM      3  C   LIG    1       15.732  18.468   0.000  0.00  0.00    +0.188 C 
ATOM      4  C   LIG    1       16.847  19.471   0.000  0.00  0.00    +0.040 C 
ENDBRANCH   1   3
TORSDOF 1
REMARK  Name = molecules/FHOCOBKCNJYXOP-OVLDLUHVSA-N.pdb
REMARK                            x       y       z     vdW  Elec       q    Type
REMARK                         _______ _______ _______ _____ _____    ______ ____
ROOT
ATOM      1  O   LIG    1       14.913  21.555   0.000  0.00  0.00    -0.379 OA
ATOM      2  C   LIG    1       13.994  20.398   0.000  0.00  0.00    +0.169 C 
ATOM      3  H   LIG    1       14.796  22.869   0.000  0.00  0.00    +0.211 HD
ENDROOT
TORSDOF 0
REMARK  Name = molecules/FHOCOBKCNJYXOP-OVLDLUHVSA-N.pdb
REMARK                            x       y       z     vdW  Elec       q    Type
REMARK                         _______ _______ _______ _____ _____    ______ ____
ROOT
ATOM      1  C   LIG    1        9.717  19.347   0.000  0.00  0.00    +0.000 C 
ENDROOT
TORSDOF 0
REMARK  Name = molecules/FHOCOBKCNJYXOP-OVLDLUHVSA-N.pdb
REMARK                            x       y       z     vdW  Elec       q    Type
REMARK                         _______ _______ _______ _____ _____    ______ ____
ROOT
ATOM      1  C   LIG    1        6.090  18.371   0.000  0.00  0.00    -0.005 C 
ATOM      2  C   LIG    1        5.862  19.445   0.000  0.00  0.00    +0.005 C 
ENDROOT
TORSDOF 0
REMARK  Name = molecules/FHOCOBKCNJYXOP-OVLDLUHVSA-N.pdb
REMARK                            x       y       z     vdW  Elec       q    Type
REMARK                         _______ _______ _______ _____ _____    ______ ____
ROOT
ATOM      1  C   LIG    1        5.467  21.305   0.000  0.00  0.00    +0.136 C 
ATOM      2  C   LIG    1        5.155  22.773   0.000  0.00  0.00    +0.357 C 
ATOM      3  O   LIG    1        6.270  23.776   0.000  0.00  0.00    -0.246 OA
ATOM      4  O   LIG    1        3.728  23.236   0.000  0.00  0.00    -0.246 OA
ENDROOT
TORSDOF 0
REMARK  Name = molecules/FHOCOBKCNJYXOP-OVLDLUHVSA-N.pdb
REMARK                            x       y       z     vdW  Elec       q    Type
REMARK                         _______ _______ _______ _____ _____    ______ ____
ROOT
ATOM      1  C   LIG    1        5.779  19.838   0.000  0.00  0.00    +0.217 C 
ATOM      2  O   LIG    1        7.187  20.149   0.000  0.00  0.00    -0.217 OA
ENDROOT
TORSDOF 0
REMARK  Name = molecules/FHOCOBKCNJYXOP-OVLDLUHVSA-N.pdb
REMARK                            x       y       z     vdW  Elec       q    Type
REMARK                         _______ _______ _______ _____ _____    ______ ____
ROOT
ATOM      1  C   LIG    1        9.296  16.752   0.000  0.00  0.00    +0.169 C 
ATOM      2  O   LIG    1        9.484  15.659   0.000  0.00  0.00    -0.379 OA
ATOM      3  H   LIG    1       10.096  15.849   0.000  0.00  0.00    +0.211 HD
ENDROOT
TORSDOF 0
REMARK  Name = molecules/FHOCOBKCNJYXOP-OVLDLUHVSA-N.pdb
REMARK                            x       y       z     vdW  Elec       q    Type
REMARK                         _______ _______ _______ _____ _____    ______ ____
ROOT
ATOM      1  C   LIG    1       12.231  17.376   0.000  0.00  0.00    +0.027 C 
ATOM      2  C   LIG    1       13.191  17.927   0.000  0.00  0.00    +0.105 C 
ATOM      3  N   LIG    1       12.694  18.802   0.000  0.00  0.00    -0.132 NA
ENDROOT
TORSDOF 0
REMARK  Name = molecules/FHOCOBKCNJYXOP-OVLDLUHVSA-N.pdb
REMARK                            x       y       z     vdW  Elec       q    Type
REMARK                         _______ _______ _______ _____ _____    ______ ____
ROOT
ATOM      1  O   HOH    1        6.440  14.630   0.000  0.00  0.00    -0.253 OA
ATOM      2  H   HOH    0        6.062  14.045   0.000  0.00  0.00    +0.253 HD
ENDROOT
TORSDOF 0
REMARK  Name = molecules/FHOCOBKCNJYXOP-OVLDLUHVSA-N.pdb
REMARK                            x       y       z     vdW  Elec       q    Type
REMARK                         _______ _______ _______ _____ _____    ______ ____
ROOT
ATOM      1  C   LIG    1        4.203  15.464   0.000  0.00  0.00    -0.000 C 
ENDROOT
TORSDOF 0
REMARK  Name = molecules/FHOCOBKCNJYXOP-OVLDLUHVSA-N.pdb
REMARK                            x       y       z     vdW  Elec       q    Type
REMARK                         _______ _______ _______ _____ _____    ______ ____
ROOT
ATOM      1  C   LIG    1        3.579  18.398   0.000  0.00  0.00    +0.000 C 
ENDROOT
TORSDOF 0
REMARK  Name = molecules/FHOCOBKCNJYXOP-OVLDLUHVSA-N.pdb
REMARK                            x       y       z     vdW  Elec       q    Type
REMARK                         _______ _______ _______ _____ _____    ______ ____
ROOT
ATOM      1  O   HOH    1        3.267  19.866   0.000  0.00  0.00    -0.253 OA
ATOM      2  H   HOH    0        4.279  19.890   0.000  0.00  0.00    +0.253 HD
ENDROOT
TORSDOF 0
REMARK  Name = molecules/FHOCOBKCNJYXOP-OVLDLUHVSA-N.pdb
REMARK                            x       y       z     vdW  Elec       q    Type
REMARK                         _______ _______ _______ _____ _____    ______ ____
ROOT
ATOM      1  C   LIG    1        3.891  16.931   0.000  0.00  0.00    +0.000 C 
ENDROOT
TORSDOF 0
REMARK  Name = molecules/FHOCOBKCNJYXOP-OVLDLUHVSA-N.pdb
REMARK                            x       y       z     vdW  Elec       q    Type
REMARK                         _______ _______ _______ _____ _____    ______ ____
ROOT
ATOM      1  C   LIG    1        4.867  13.305   0.000  0.00  0.00    +0.000 C 
ENDROOT
TORSDOF 0
REMARK  Name = molecules/FHOCOBKCNJYXOP-OVLDLUHVSA-N.pdb
REMARK                            x       y       z     vdW  Elec       q    Type
REMARK                         _______ _______ _______ _____ _____    ______ ____
ROOT
ATOM      1  O   HOH    1        5.050  11.816   0.000  0.00  0.00    -0.253 OA
ATOM      2  H   HOH    0        4.351  12.212   0.000  0.00  0.00    +0.253 HD
ENDROOT
TORSDOF 0
REMARK  Name = molecules/FHOCOBKCNJYXOP-OVLDLUHVSA-N.pdb
REMARK                            x       y       z     vdW  Elec       q    Type
REMARK                         _______ _______ _______ _____ _____    ______ ____
ROOT
ATOM      1  C   LIG    1        7.110  13.576   0.000  0.00  0.00    +0.279 C 
ATOM      2  O   LIG    1        7.335  12.851   0.000  0.00  0.00    -0.279 OA
ENDROOT
TORSDOF 0
REMARK  Name = molecules/FHOCOBKCNJYXOP-OVLDLUHVSA-N.pdb
REMARK                            x       y       z     vdW  Elec       q    Type
REMARK                         _______ _______ _______ _____ _____    ______ ____
ROOT
ATOM      1  C   LIG    1        6.174  17.978   0.000  0.00  0.00    +0.000 C 
ENDROOT
TORSDOF 0
REMARK  Name = molecules/FHOCOBKCNJYXOP-OVLDLUHVSA-N.pdb
REMARK                            x       y       z     vdW  Elec       q    Type
REMARK                         _______ _______ _______ _____ _____    ______ ____
ROOT
ATOM      1  O   HOH    1        4.436  19.909   0.000  0.00  0.00    +0.000 OA
ENDROOT
TORSDOF 0
REMARK  Name = molecules/FHOCOBKCNJYXOP-OVLDLUHVSA-N.pdb
REMARK                            x       y       z     vdW  Elec       q    Type
REMARK                         _______ _______ _______ _____ _____    ______ ____
ROOT
ATOM      1  C   LIG    1        6.798  15.043   0.000  0.00  0.00    +0.000 C 
ENDROOT
TORSDOF 0
REMARK  Name = molecules/FHOCOBKCNJYXOP-OVLDLUHVSA-N.pdb
REMARK                            x       y       z     vdW  Elec       q    Type
REMARK                         _______ _______ _______ _____ _____    ______ ____
ROOT
ATOM      1  C   LIG    1        6.307  11.105   0.000  0.00  0.00    +0.000 C 
ENDROOT
TORSDOF 0
REMARK  Name = molecules/FHOCOBKCNJYXOP-OVLDLUHVSA-N.pdb
REMARK                            x       y       z     vdW  Elec       q    Type
REMARK                         _______ _______ _______ _____ _____    ______ ____
ROOT
ATOM      1  C   LIG    1        9.933  12.081   0.000  0.00  0.00    +0.000 C 
ENDROOT
TORSDOF 0
REMARK  Name = molecules/FHOCOBKCNJYXOP-OVLDLUHVSA-N.pdb
REMARK                            x       y       z     vdW  Elec       q    Type
REMARK                         _______ _______ _______ _____ _____    ______ ____
ROOT
ATOM      1  C   LIG    1       10.557   9.147   0.000  0.00  0.00    +0.000 C 
ENDROOT
TORSDOF 0
REMARK  Name = molecules/FHOCOBKCNJYXOP-OVLDLUHVSA-N.pdb
REMARK                            x       y       z     vdW  Elec       q    Type
REMARK                         _______ _______ _______ _____ _____    ______ ____
ROOT
ATOM      1  C   LIG    1       10.869   7.680   0.000  0.00  0.00    -0.005 C 
ATOM      2  C   LIG    1       12.295   7.216   0.000  0.00  0.00    -0.027 C 
ATOM      3  C   LIG    1       12.607   5.749   0.000  0.00  0.00    +0.031 C 
ENDROOT
TORSDOF 0
REMARK  Name = molecules/FHOCOBKCNJYXOP-OVLDLUHVSA-N.pdb
REMARK                            x       y       z     vdW  Elec       q    Type
REMARK                         _______ _______ _______ _____ _____    ______ ____
ROOT
ATOM      1  C   LIG    1        9.754   6.676   0.000  0.00  0.00    +0.000 C 
ENDROOT
TORSDOF 0
REMARK  Name = molecules/FHOCOBKCNJYXOP-OVLDLUHVSA-N.pdb
REMARK                            x       y       z     vdW  Elec       q    Type
REMARK                         _______ _______ _______ _____ _____    ______ ____
ROOT
ATOM      1  C   LIG    1       10.066   5.209   0.000  0.00  0.00    +0.005 C 
ATOM      2  C   LIG    1       11.492   4.745   0.000  0.00  0.00    -0.005 C 
ENDROOT
TORSDOF 0
REMARK  Name = molecules/FHOCOBKCNJYXOP-OVLDLUHVSA-N.pdb
REMARK                            x       y       z     vdW  Elec       q    Type
REMARK                         _______ _______ _______ _____ _____    ______ ____
ROOT
ATOM      1  C   LIG    1       10.245  10.614   0.000  0.00  0.00    +0.000 C 
ENDROOT
TORSDOF 0
REMARK  Name = molecules/FHOCOBKCNJYXOP-OVLDLUHVSA-N.pdb
REMARK                            x       y       z     vdW  Elec       q    Type
REMARK                         _______ _______ _______ _____ _____    ______ ____
ROOT
ATOM      1  C   LIG    1        9.424  14.265   0.000  0.00  0.00    +0.000 C 
ENDROOT
TORSDOF 0
REMARK  Name = molecules/FHOCOBKCNJYXOP-OVLDLUHVSA-N.pdb
REMARK                            x       y       z     vdW  Elec       q    Type
REMARK                         _______ _______ _______ _____ _____    ______ ____
ROOT
ATOM      1  C   LIG    1       10.891  14.577   0.000  0.00  0.00    +0.000 C 
ENDROOT
TORSDOF 0
REMARK  Name = molecules/FHOCOBKCNJYXOP-OVLDLUHVSA-N.pdb
REMARK                            x       y       z     vdW  Elec       q    Type
REMARK                         _______ _______ _______ _____ _____    ______ ____
ROOT
ATOM      1  C   LIG    1       11.079  12.727   0.000  0.00  0.00    -0.000 C 
ENDROOT
TORSDOF 0
REMARK  Name = molecules/FHOCOBKCNJYXOP-OVLDLUHVSA-N.pdb
REMARK                            x       y       z     vdW  Elec       q    Type
REMARK                         _______ _______ _______ _____ _____    ______ ____
ROOT
ATOM      1  C   LIG    1        9.964  11.724   0.000  0.00  0.00    +0.000 C 
ENDROOT
TORSDOF 0
REMARK  Name = molecules/FHOCOBKCNJYXOP-OVLDLUHVSA-N.pdb
REMARK                            x       y       z     vdW  Elec       q    Type
REMARK                         _______ _______ _______ _____ _____    ______ ____
ROOT
ATOM      1  C   LIG    1        6.731  10.831   0.000  0.00  0.00    -0.000 C 
ENDROOT
TORSDOF 0
REMARK  Name = molecules/FHOCOBKCNJYXOP-OVLDLUHVSA-N.pdb
REMARK                            x       y       z     vdW  Elec       q    Type
REMARK                         _______ _______ _______ _____ _____    ______ ____
ROOT
ATOM      1  C   LIG    1       14.624  12.153   0.000  0.00  0.00    +0.000 C 
ENDROOT
TORSDOF 0
REMARK  Name = molecules/FHOCOBKCNJYXOP-OVLDLUHVSA-N.pdb
REMARK                            x       y       z     vdW  Elec       q    Type
REMARK                         _______ _______ _______ _____ _____    ______ ____
ROOT
ATOM      1  C   LIG    1       15.627  11.038   0.000  0.00  0.00    +0.136 C 
ATOM      2  C   LIG    1       16.631   9.923   0.000  0.00  0.00    +0.357 C 
ATOM      3  O   LIG    1       18.098  10.235   0.000  0.00  0.00    -0.246 OA
ATOM      4  O   LIG    1       16.168   8.497   0.000  0.00  0.00    -0.246 OA
ENDROOT
TORSDOF 0
REMARK  Name = molecules/FHOCOBKCNJYXOP-OVLDLUHVSA-N.pdb
REMARK                            x       y       z     vdW  Elec       q    Type
REMARK                         _______ _______ _______ _____ _____    ______ ____
ROOT
ATOM      1  C   LIG    1       10.961  15.920   0.000  0.00  0.00    +0.000 C 
ENDROOT
TORSDOF 0
REMARK  Name = molecules/FHOCOBKCNJYXOP-OVLDLUHVSA-N.pdb
REMARK                            x       y       z     vdW  Elec       q    Type
REMARK                         _______ _______ _______ _____ _____    ______ ____
ROOT
ATOM      1  C   LIG    1       15.108  21.402   0.000  0.00  0.00    +0.000 C 
ENDROOT
TORSDOF 0
REMARK  Name = molecules/FHOCOBKCNJYXOP-OVLDLUHVSA-N.pdb
REMARK                            x       y       z     vdW  Elec       q    Type
REMARK                         _______ _______ _______ _____ _____    ______ ____
ROOT
ATOM      1  C   LIG    1       16.535  20.938   0.000  0.00  0.00    +0.000 C 
ENDROOT
TORSDOF 0
REMARK  Name = molecules/FHOCOBKCNJYXOP-OVLDLUHVSA-N.pdb
REMARK                            x       y       z     vdW  Elec       q    Type
REMARK                         _______ _______ _______ _____ _____    ______ ____
ROOT
ATOM      1  C   LIG    1       12.076  16.924   0.000  0.00  0.00    +0.000 C 
ENDROOT
TORSDOF 0
REMARK  Name = molecules/FHOCOBKCNJYXOP-OVLDLUHVSA-N.pdb
REMARK                            x       y       z     vdW  Elec       q    Type
REMARK                         _______ _______ _______ _____ _____    ______ ____
ROOT
ATOM      1  H   UNK    1       17.278 -18.829   0.000  0.00  0.00    +0.000 HD
ENDROOT
TORSDOF 0
REMARK  Name = molecules/FHOCOBKCNJYXOP-OVLDLUHVSA-N.pdb
REMARK                            x       y       z     vdW  Elec       q    Type
REMARK                         _______ _______ _______ _____ _____    ______ ____
ROOT
ATOM      1  H   UNK    1       13.355 -14.718   0.000  0.00  0.00    +0.000 HD
ENDROOT
TORSDOF 0
REMARK  Name = molecules/FHOCOBKCNJYXOP-OVLDLUHVSA-N.pdb
REMARK                            x       y       z     vdW  Elec       q    Type
REMARK                         _______ _______ _______ _____ _____    ______ ____
ROOT
ATOM      1  H   UNK    1        8.179   2.679   0.000  0.00  0.00    +0.000 HD
ENDROOT
TORSDOF 0
REMARK  Name = molecules/FHOCOBKCNJYXOP-OVLDLUHVSA-N.pdb
REMARK                            x       y       z     vdW  Elec       q    Type
REMARK                         _______ _______ _______ _____ _____    ______ ____
ROOT
ATOM      1  H   UNK    1       -2.607   5.263   0.000  0.00  0.00    +0.000 HD
ENDROOT
TORSDOF 0
REMARK  Name = molecules/FHOCOBKCNJYXOP-OVLDLUHVSA-N.pdb
REMARK                            x       y       z     vdW  Elec       q    Type
REMARK                         _______ _______ _______ _____ _____    ______ ____
ROOT
ATOM      1  H   UNK    1        7.049   7.168   0.000  0.00  0.00    +0.000 HD
ENDROOT
TORSDOF 0
REMARK  Name = molecules/FHOCOBKCNJYXOP-OVLDLUHVSA-N.pdb
REMARK                            x       y       z     vdW  Elec       q    Type
REMARK                         _______ _______ _______ _____ _____    ______ ____
ROOT
ATOM      1  H   UNK    1        3.011  11.568   0.000  0.00  0.00    +0.000 HD
ENDROOT
TORSDOF 0
REMARK  Name = molecules/FHOCOBKCNJYXOP-OVLDLUHVSA-N.pdb
REMARK                            x       y       z     vdW  Elec       q    Type
REMARK                         _______ _______ _______ _____ _____    ______ ____
ROOT
ATOM      1  H   UNK    1       -1.624  10.986   0.000  0.00  0.00    +0.000 HD
ENDROOT
TORSDOF 0
REMARK  Name = molecules/FHOCOBKCNJYXOP-OVLDLUHVSA-N.pdb
REMARK                            x       y       z     vdW  Elec       q    Type
REMARK                         _______ _______ _______ _____ _____    ______ ____
ROOT
ATOM      1  H   UNK    1        7.880  21.509   0.000  0.00  0.00    +0.000 HD
ENDROOT
TORSDOF 0
REMARK  Name = molecules/FHOCOBKCNJYXOP-OVLDLUHVSA-N.pdb
REMARK                            x       y       z     vdW  Elec       q    Type
REMARK                         _______ _______ _______ _____ _____    ______ ____
ROOT
ATOM      1  H   UNK    1        4.829  13.517   0.000  0.00  0.00    +0.000 HD
ENDROOT
TORSDOF 0
REMARK  Name = molecules/FHOCOBKCNJYXOP-OVLDLUHVSA-N.pdb
REMARK                            x       y       z     vdW  Elec       q    Type
REMARK                         _______ _______ _______ _____ _____    ______ ____
ROOT
ATOM      1  H   UNK    1       12.994  10.846   0.000  0.00  0.00    +0.000 HD
ENDROOT
TORSDOF 0
REMARK  Name = molecules/FHOCOBKCNJYXOP-OVLDLUHVSA-N.pdb
REMARK                            x       y       z     vdW  Elec       q    Type
REMARK                         _______ _______ _______ _____ _____    ______ ____
ROOT
ATOM      1  H   UNK    1       14.574  15.940   0.000  0.00  0.00    +0.000 HD
ENDROOT
TORSDOF 0
REMARK  Name = molecules/FHOCOBKCNJYXOP-OVLDLUHVSA-N.pdb
REMARK                            x       y       z     vdW  Elec       q    Type
REMARK                         _______ _______ _______ _____ _____    ______ ____
ROOT
ATOM      1  H   UNK    1       15.440 -20.916   0.000  0.00  0.00    +0.000 HD
ENDROOT
TORSDOF 0
REMARK  Name = molecules/FHOCOBKCNJYXOP-OVLDLUHVSA-N.pdb
REMARK                            x       y       z     vdW  Elec       q    Type
REMARK                         _______ _______ _______ _____ _____    ______ ____
ROOT
ATOM      1  H   UNK    1       22.731 -16.765   0.000  0.00  0.00    +0.000 HD
ENDROOT
TORSDOF 0
REMARK  Name = molecules/FHOCOBKCNJYXOP-OVLDLUHVSA-N.pdb
REMARK                            x       y       z     vdW  Elec       q    Type
REMARK                         _______ _______ _______ _____ _____    ______ ____
ROOT
ATOM      1  H   UNK    1        5.558 -10.242   0.000  0.00  0.00    +0.000 HD
ENDROOT
TORSDOF 0
REMARK  Name = molecules/FHOCOBKCNJYXOP-OVLDLUHVSA-N.pdb
REMARK                            x       y       z     vdW  Elec       q    Type
REMARK                         _______ _______ _______ _____ _____    ______ ____
ROOT
ATOM      1  H   UNK    1       14.501  -3.823   0.000  0.00  0.00    +0.000 HD
ENDROOT
TORSDOF 0
REMARK  Name = molecules/FHOCOBKCNJYXOP-OVLDLUHVSA-N.pdb
REMARK                            x       y       z     vdW  Elec       q    Type
REMARK                         _______ _______ _______ _____ _____    ______ ____
ROOT
ATOM      1  H   UNK    1        3.498  -5.040   0.000  0.00  0.00    +0.000 HD
ENDROOT
TORSDOF 0
REMARK  Name = molecules/FHOCOBKCNJYXOP-OVLDLUHVSA-N.pdb
REMARK                            x       y       z     vdW  Elec       q    Type
REMARK                         _______ _______ _______ _____ _____    ______ ____
ROOT
ATOM      1  H   UNK    1        1.631  -3.417   0.000  0.00  0.00    +0.000 HD
ENDROOT
TORSDOF 0
REMARK  Name = molecules/FHOCOBKCNJYXOP-OVLDLUHVSA-N.pdb
REMARK                            x       y       z     vdW  Elec       q    Type
REMARK                         _______ _______ _______ _____ _____    ______ ____
ROOT
ATOM      1  H   UNK    1        2.706   0.374   0.000  0.00  0.00    +0.000 HD
ENDROOT
TORSDOF 0
REMARK  Name = molecules/FHOCOBKCNJYXOP-OVLDLUHVSA-N.pdb
REMARK                            x       y       z     vdW  Elec       q    Type
REMARK                         _______ _______ _______ _____ _____    ______ ____
ROOT
ATOM      1  H   UNK    1        8.128   3.707   0.000  0.00  0.00    +0.000 HD
ENDROOT
TORSDOF 0
REMARK  Name = molecules/FHOCOBKCNJYXOP-OVLDLUHVSA-N.pdb
REMARK                            x       y       z     vdW  Elec       q    Type
REMARK                         _______ _______ _______ _____ _____    ______ ____
ROOT
ATOM      1  H   UNK    1        9.377   3.289   0.000  0.00  0.00    +0.000 HD
ENDROOT
TORSDOF 0
REMARK  Name = molecules/FHOCOBKCNJYXOP-OVLDLUHVSA-N.pdb
REMARK                            x       y       z     vdW  Elec       q    Type
REMARK                         _______ _______ _______ _____ _____    ______ ____
ROOT
ATOM      1  H   UNK    1        9.038   2.245   0.000  0.00  0.00    +0.000 HD
ENDROOT
TORSDOF 0
REMARK  Name = molecules/FHOCOBKCNJYXOP-OVLDLUHVSA-N.pdb
REMARK                            x       y       z     vdW  Elec       q    Type
REMARK                         _______ _______ _______ _____ _____    ______ ____
ROOT
ATOM      1  H   UNK    1        6.195   7.466   0.000  0.00  0.00    +0.000 HD
ENDROOT
TORSDOF 0
REMARK  Name = molecules/FHOCOBKCNJYXOP-OVLDLUHVSA-N.pdb
REMARK                            x       y       z     vdW  Elec       q    Type
REMARK                         _______ _______ _______ _____ _____    ______ ____
ROOT
ATOM      1  H   UNK    1        4.219   9.293   0.000  0.00  0.00    +0.000 HD
ENDROOT
TORSDOF 0
REMARK  Name = molecules/FHOCOBKCNJYXOP-OVLDLUHVSA-N.pdb
REMARK                            x       y       z     vdW  Elec       q    Type
REMARK                         _______ _______ _______ _____ _____    ______ ____
ROOT
ATOM      1  H   UNK    1        1.363  10.032   0.000  0.00  0.00    +0.000 HD
ENDROOT
TORSDOF 0
REMARK  Name = molecules/FHOCOBKCNJYXOP-OVLDLUHVSA-N.pdb
REMARK                            x       y       z     vdW  Elec       q    Type
REMARK                         _______ _______ _______ _____ _____    ______ ____
ROOT
ATOM      1  H   UNK    1        3.638   3.589   0.000  0.00  0.00    +0.000 HD
ENDROOT
TORSDOF 0
REMARK  Name = molecules/FHOCOBKCNJYXOP-OVLDLUHVSA-N.pdb
REMARK                            x       y       z     vdW  Elec       q    Type
REMARK                         _______ _______ _______ _____ _____    ______ ____
ROOT
ATOM      1  H   UNK    1       -4.665   1.332   0.000  0.00  0.00    +0.000 HD
ENDROOT
TORSDOF 0
REMARK  Name = molecules/FHOCOBKCNJYXOP-OVLDLUHVSA-N.pdb
REMARK                            x       y       z     vdW  Elec       q    Type
REMARK                         _______ _______ _______ _____ _____    ______ ____
ROOT
ATOM      1  H   UNK    1       -2.489   3.768   0.000  0.00  0.00    +0.000 HD
ENDROOT
TORSDOF 0
REMARK  Name = molecules/FHOCOBKCNJYXOP-OVLDLUHVSA-N.pdb
REMARK                            x       y       z     vdW  Elec       q    Type
REMARK                         _______ _______ _______ _____ _____    ______ ____
ROOT
ATOM      1  H   UNK    1       -1.062   3.304   0.000  0.00  0.00    +0.000 HD
ENDROOT
TORSDOF 0
REMARK  Name = molecules/FHOCOBKCNJYXOP-OVLDLUHVSA-N.pdb
REMARK                            x       y       z     vdW  Elec       q    Type
REMARK                         _______ _______ _______ _____ _____    ______ ____
ROOT
ATOM      1  H   UNK    1       -8.169   2.682   0.000  0.00  0.00    +0.000 HD
ENDROOT
TORSDOF 0
REMARK  Name = molecules/FHOCOBKCNJYXOP-OVLDLUHVSA-N.pdb
REMARK                            x       y       z     vdW  Elec       q    Type
REMARK                         _______ _______ _______ _____ _____    ______ ____
ROOT
ATOM      1  H   UNK    1       -0.499  -2.405   0.000  0.00  0.00    +0.000 HD
ENDROOT
TORSDOF 0
REMARK  Name = molecules/FHOCOBKCNJYXOP-OVLDLUHVSA-N.pdb
REMARK                            x       y       z     vdW  Elec       q    Type
REMARK                         _______ _______ _______ _____ _____    ______ ____
ROOT
ATOM      1  H   UNK    1        0.129  -3.415   0.000  0.00  0.00    +0.000 HD
ENDROOT
TORSDOF 0
REMARK  Name = molecules/FHOCOBKCNJYXOP-OVLDLUHVSA-N.pdb
REMARK                            x       y       z     vdW  Elec       q    Type
REMARK                         _______ _______ _______ _____ _____    ______ ____
ROOT
ATOM      1  H   UNK    1        2.027  -4.403   0.000  0.00  0.00    +0.000 HD
ENDROOT
TORSDOF 0
REMARK  Name = molecules/FHOCOBKCNJYXOP-OVLDLUHVSA-N.pdb
REMARK                            x       y       z     vdW  Elec       q    Type
REMARK                         _______ _______ _______ _____ _____    ______ ____
ROOT
ATOM      1  H   UNK    1       -1.912  -3.107   0.000  0.00  0.00    +0.000 HD
ENDROOT
TORSDOF 0
REMARK  Name = molecules/FHOCOBKCNJYXOP-OVLDLUHVSA-N.pdb
REMARK                            x       y       z     vdW  Elec       q    Type
REMARK                         _______ _______ _______ _____ _____    ______ ____
ROOT
ATOM      1  H   UNK    1       -3.756  -3.010   0.000  0.00  0.00    +0.000 HD
ENDROOT
TORSDOF 0
REMARK  Name = molecules/FHOCOBKCNJYXOP-OVLDLUHVSA-N.pdb
REMARK                            x       y       z     vdW  Elec       q    Type
REMARK                         _______ _______ _______ _____ _____    ______ ____
ROOT
ATOM      1  H   UNK    1       -1.448  -1.174   0.000  0.00  0.00    +0.000 HD
ENDROOT
TORSDOF 0
REMARK  Name = molecules/FHOCOBKCNJYXOP-OVLDLUHVSA-N.pdb
REMARK                            x       y       z     vdW  Elec       q    Type
REMARK                         _______ _______ _______ _____ _____    ______ ____
ROOT
ATOM      1  H   UNK    1       -3.066   9.673   0.000  0.00  0.00    +0.000 HD
ENDROOT
TORSDOF 0
REMARK  Name = molecules/FHOCOBKCNJYXOP-OVLDLUHVSA-N.pdb
REMARK                            x       y       z     vdW  Elec       q    Type
REMARK                         _______ _______ _______ _____ _____    ______ ____
ROOT
ATOM      1  H   UNK    1        1.659   8.121   0.000  0.00  0.00    +0.000 HD
ENDROOT
TORSDOF 0
REMARK  Name = molecules/FHOCOBKCNJYXOP-OVLDLUHVSA-N.pdb
REMARK                            x       y       z     vdW  Elec       q    Type
REMARK                         _______ _______ _______ _____ _____    ______ ____
ROOT
ATOM      1  H   UNK    1       -2.002  12.892   0.000  0.00  0.00    +0.000 HD
ENDROOT
TORSDOF 0
REMARK  Name = molecules/FHOCOBKCNJYXOP-OVLDLUHVSA-N.pdb
REMARK                            x       y       z     vdW  Elec       q    Type
REMARK                         _______ _______ _______ _____ _____    ______ ____
ROOT
ATOM      1  H   UNK    1        1.907   3.526   0.000  0.00  0.00    +0.000 HD
ENDROOT
TORSDOF 0
REMARK  Name = molecules/FHOCOBKCNJYXOP-OVLDLUHVSA-N.pdb
REMARK                            x       y       z     vdW  Elec       q    Type
REMARK                         _______ _______ _______ _____ _____    ______ ____
ROOT
ATOM      1  H   UNK    1       -1.171   3.848   0.000  0.00  0.00    +0.000 HD
ENDROOT
TORSDOF 0
REMARK  Name = molecules/FHOCOBKCNJYXOP-OVLDLUHVSA-N.pdb
REMARK                            x       y       z     vdW  Elec       q    Type
REMARK                         _______ _______ _______ _____ _____    ______ ____
ROOT
ATOM      1  H   UNK    1       -3.140   5.928   0.000  0.00  0.00    +0.000 HD
ENDROOT
TORSDOF 0
REMARK  Name = molecules/FHOCOBKCNJYXOP-OVLDLUHVSA-N.pdb
REMARK                            x       y       z     vdW  Elec       q    Type
REMARK                         _______ _______ _______ _____ _____    ______ ____
ROOT
ATOM      1  H   UNK    1       -3.759   8.841   0.000  0.00  0.00    +0.000 HD
ENDROOT
TORSDOF 0
REMARK  Name = molecules/FHOCOBKCNJYXOP-OVLDLUHVSA-N.pdb
REMARK                            x       y       z     vdW  Elec       q    Type
REMARK                         _______ _______ _______ _____ _____    ______ ____
ROOT
ATOM      1  H   UNK    1       -8.306   5.127   0.000  0.00  0.00    +0.000 HD
ENDROOT
TORSDOF 0
REMARK  Name = molecules/FHOCOBKCNJYXOP-OVLDLUHVSA-N.pdb
REMARK                            x       y       z     vdW  Elec       q    Type
REMARK                         _______ _______ _______ _____ _____    ______ ____
ROOT
ATOM      1  H   UNK    1       -9.345  10.012   0.000  0.00  0.00    +0.000 HD
ENDROOT
TORSDOF 0
REMARK  Name = molecules/FHOCOBKCNJYXOP-OVLDLUHVSA-N.pdb
REMARK                            x       y       z     vdW  Elec       q    Type
REMARK                         _______ _______ _______ _____ _____    ______ ____
ROOT
ATOM      1  H   UNK    1       -6.718   9.159   0.000  0.00  0.00    +0.000 HD
ENDROOT
TORSDOF 0
REMARK  Name = molecules/FHOCOBKCNJYXOP-OVLDLUHVSA-N.pdb
REMARK                            x       y       z     vdW  Elec       q    Type
REMARK                         _______ _______ _______ _____ _____    ______ ____
ROOT
ATOM      1  H   UNK    1      -11.147   8.404   0.000  0.00  0.00    +0.000 HD
ENDROOT
TORSDOF 0
REMARK  Name = molecules/FHOCOBKCNJYXOP-OVLDLUHVSA-N.pdb
REMARK                            x       y       z     vdW  Elec       q    Type
REMARK                         _______ _______ _______ _____ _____    ______ ____
ROOT
ATOM      1  H   UNK    1       -2.461   9.082   0.000  0.00  0.00    +0.000 HD
ENDROOT
TORSDOF 0
REMARK  Name = molecules/FHOCOBKCNJYXOP-OVLDLUHVSA-N.pdb
REMARK                            x       y       z     vdW  Elec       q    Type
REMARK                         _______ _______ _______ _____ _____    ______ ____
ROOT
ATOM      1  H   UNK    1       -0.410  13.305   0.000  0.00  0.00    +0.000 HD
ENDROOT
TORSDOF 0
REMARK  Name = molecules/FHOCOBKCNJYXOP-OVLDLUHVSA-N.pdb
REMARK                            x       y       z     vdW  Elec       q    Type
REMARK                         _______ _______ _______ _____ _____    ______ ____
ROOT
ATOM      1  H   UNK    1        1.808  15.150   0.000  0.00  0.00    +0.000 HD
ENDROOT
TORSDOF 0
REMARK  Name = molecules/FHOCOBKCNJYXOP-OVLDLUHVSA-N.pdb
REMARK                            x       y       z     vdW  Elec       q    Type
REMARK                         _______ _______ _______ _____ _____    ______ ____
ROOT
ATOM      1  H   UNK    1       -0.783  14.600   0.000  0.00  0.00    +0.000 HD
ENDROOT
TORSDOF 0
REMARK  Name = molecules/FHOCOBKCNJYXOP-OVLDLUHVSA-N.pdb
REMARK                            x       y       z     vdW  Elec       q    Type
REMARK                         _______ _______ _______ _____ _____    ______ ____
ROOT
ATOM      1  H   UNK    1       -1.080  16.117   0.000  0.00  0.00    +0.000 HD
ENDROOT
TORSDOF 0
REMARK  Name = molecules/FHOCOBKCNJYXOP-OVLDLUHVSA-N.pdb
REMARK                            x       y       z     vdW  Elec       q    Type
REMARK                         _______ _______ _______ _____ _____    ______ ____
ROOT
ATOM      1  H   UNK    1        2.134  19.256   0.000  0.00  0.00    +0.000 HD
ENDROOT
TORSDOF 0
REMARK  Name = molecules/FHOCOBKCNJYXOP-OVLDLUHVSA-N.pdb
REMARK                            x       y       z     vdW  Elec       q    Type
REMARK                         _______ _______ _______ _____ _____    ______ ____
ROOT
ATOM      1  H   UNK    1       -1.871   4.824   0.000  0.00  0.00    +0.000 HD
ENDROOT
TORSDOF 0
REMARK  Name = molecules/FHOCOBKCNJYXOP-OVLDLUHVSA-N.pdb
REMARK                            x       y       z     vdW  Elec       q    Type
REMARK                         _______ _______ _______ _____ _____    ______ ____
ROOT
ATOM      1  H   UNK    1        3.679   2.053   0.000  0.00  0.00    +0.000 HD
ENDROOT
TORSDOF 0
REMARK  Name = molecules/FHOCOBKCNJYXOP-OVLDLUHVSA-N.pdb
REMARK                            x       y       z     vdW  Elec       q    Type
REMARK                         _______ _______ _______ _____ _____    ______ ____
ROOT
ATOM      1  H   UNK    1       10.014  11.686   0.000  0.00  0.00    +0.000 HD
ENDROOT
TORSDOF 0
REMARK  Name = molecules/FHOCOBKCNJYXOP-OVLDLUHVSA-N.pdb
REMARK                            x       y       z     vdW  Elec       q    Type
REMARK                         _______ _______ _______ _____ _____    ______ ____
ROOT
ATOM      1  H   UNK    1        8.259   8.393   0.000  0.00  0.00    +0.000 HD
ENDROOT
TORSDOF 0
REMARK  Name = molecules/FHOCOBKCNJYXOP-OVLDLUHVSA-N.pdb
REMARK                            x       y       z     vdW  Elec       q    Type
REMARK                         _______ _______ _______ _____ _____    ______ ____
ROOT
ATOM      1  H   UNK    1        7.502   8.233   0.000  0.00  0.00    +0.000 HD
ENDROOT
TORSDOF 0
REMARK  Name = molecules/FHOCOBKCNJYXOP-OVLDLUHVSA-N.pdb
REMARK                            x       y       z     vdW  Elec       q    Type
REMARK                         _______ _______ _______ _____ _____    ______ ____
ROOT
ATOM      1  H   UNK    1        4.560  10.527   0.000  0.00  0.00    +0.000 HD
ENDROOT
TORSDOF 0
REMARK  Name = molecules/FHOCOBKCNJYXOP-OVLDLUHVSA-N.pdb
REMARK                            x       y       z     vdW  Elec       q    Type
REMARK                         _______ _______ _______ _____ _____    ______ ____
ROOT
ATOM      1  H   UNK    1       13.574   9.600   0.000  0.00  0.00    +0.000 HD
ENDROOT
TORSDOF 0
REMARK  Name = molecules/FHOCOBKCNJYXOP-OVLDLUHVSA-N.pdb
REMARK                            x       y       z     vdW  Elec       q    Type
REMARK                         _______ _______ _______ _____ _____    ______ ____
ROOT
ATOM      1  H   UNK    1        3.530   7.137   0.000  0.00  0.00    +0.000 HD
ENDROOT
TORSDOF 0
REMARK  Name = molecules/FHOCOBKCNJYXOP-OVLDLUHVSA-N.pdb
REMARK                            x       y       z     vdW  Elec       q    Type
REMARK                         _______ _______ _______ _____ _____    ______ ____
ROOT
ATOM      1  H   UNK    1       -2.390  14.313   0.000  0.00  0.00    +0.000 HD
ENDROOT
TORSDOF 0
REMARK  Name = molecules/FHOCOBKCNJYXOP-OVLDLUHVSA-N.pdb
REMARK                            x       y       z     vdW  Elec       q    Type
REMARK                         _______ _______ _______ _____ _____    ______ ____
ROOT
ATOM      1  H   UNK    1       -1.428  14.416   0.000  0.00  0.00    +0.000 HD
ENDROOT
TORSDOF 0
REMARK  Name = molecules/FHOCOBKCNJYXOP-OVLDLUHVSA-N.pdb
REMARK                            x       y       z     vdW  Elec       q    Type
REMARK                         _______ _______ _______ _____ _____    ______ ____
ROOT
ATOM      1  H   UNK    1        4.246  15.334   0.000  0.00  0.00    +0.000 HD
ENDROOT
TORSDOF 0
REMARK  Name = molecules/FHOCOBKCNJYXOP-OVLDLUHVSA-N.pdb
REMARK                            x       y       z     vdW  Elec       q    Type
REMARK                         _______ _______ _______ _____ _____    ______ ____
ROOT
ATOM      1  H   UNK    1        4.246  16.886   0.000  0.00  0.00    +0.000 HD
ENDROOT
TORSDOF 0
REMARK  Name = molecules/FHOCOBKCNJYXOP-OVLDLUHVSA-N.pdb
REMARK                            x       y       z     vdW  Elec       q    Type
REMARK                         _______ _______ _______ _____ _____    ______ ____
ROOT
ATOM      1  H   UNK    1        1.930  18.694   0.000  0.00  0.00    +0.000 HD
ENDROOT
TORSDOF 0
REMARK  Name = molecules/FHOCOBKCNJYXOP-OVLDLUHVSA-N.pdb
REMARK                            x       y       z     vdW  Elec       q    Type
REMARK                         _______ _______ _______ _____ _____    ______ ____
ROOT
ATOM      1  H   UNK    1        0.021  18.073   0.000  0.00  0.00    +0.000 HD
ENDROOT
TORSDOF 0
REMARK  Name = molecules/FHOCOBKCNJYXOP-OVLDLUHVSA-N.pdb
REMARK                            x       y       z     vdW  Elec       q    Type
REMARK                         _______ _______ _______ _____ _____    ______ ____
ROOT
ATOM      1  H   UNK    1       -0.677  17.113   0.000  0.00  0.00    +0.000 HD
ENDROOT
TORSDOF 0
REMARK  Name = molecules/FHOCOBKCNJYXOP-OVLDLUHVSA-N.pdb
REMARK                            x       y       z     vdW  Elec       q    Type
REMARK                         _______ _______ _______ _____ _____    ______ ____
ROOT
ATOM      1  H   UNK    1        4.427  10.627   0.000  0.00  0.00    +0.000 HD
ENDROOT
TORSDOF 0
REMARK  Name = molecules/FHOCOBKCNJYXOP-OVLDLUHVSA-N.pdb
REMARK                            x       y       z     vdW  Elec       q    Type
REMARK                         _______ _______ _______ _____ _____    ______ ____
ROOT
ATOM      1  H   UNK    1        4.562  10.480   0.000  0.00  0.00    +0.000 HD
ENDROOT
TORSDOF 0
REMARK  Name = molecules/FHOCOBKCNJYXOP-OVLDLUHVSA-N.pdb
REMARK                            x       y       z     vdW  Elec       q    Type
REMARK                         _______ _______ _______ _____ _____    ______ ____
ROOT
ATOM      1  H   UNK    1       10.244   9.101   0.000  0.00  0.00    +0.000 HD
ENDROOT
TORSDOF 0
REMARK  Name = molecules/FHOCOBKCNJYXOP-OVLDLUHVSA-N.pdb
REMARK                            x       y       z     vdW  Elec       q    Type
REMARK                         _______ _______ _______ _____ _____    ______ ____
ROOT
ATOM      1  H   UNK    1        8.320   8.692   0.000  0.00  0.00    +0.000 HD
ENDROOT
TORSDOF 0
REMARK  Name = molecules/FHOCOBKCNJYXOP-OVLDLUHVSA-N.pdb
REMARK                            x       y       z     vdW  Elec       q    Type
REMARK                         _______ _______ _______ _____ _____    ______ ____
ROOT
ATOM      1  H   UNK    1       10.872  21.126   0.000  0.00  0.00    +0.000 HD
ENDROOT
TORSDOF 0
REMARK  Name = molecules/FHOCOBKCNJYXOP-OVLDLUHVSA-N.pdb
REMARK                            x       y       z     vdW  Elec       q    Type
REMARK                         _______ _______ _______ _____ _____    ______ ____
ROOT
ATOM      1  H   UNK    1       12.163  21.389   0.000  0.00  0.00    +0.000 HD
ENDROOT
TORSDOF 0
REMARK  Name = molecules/FHOCOBKCNJYXOP-OVLDLUHVSA-N.pdb
REMARK                            x       y       z     vdW  Elec       q    Type
REMARK                         _______ _______ _______ _____ _____    ______ ____
ROOT
ATOM      1  H   UNK    1        9.405  20.814   0.000  0.00  0.00    +0.000 HD
ENDROOT
TORSDOF 0
REMARK  Name = molecules/FHOCOBKCNJYXOP-OVLDLUHVSA-N.pdb
REMARK                            x       y       z     vdW  Elec       q    Type
REMARK                         _______ _______ _______ _____ _____    ______ ____
ROOT
ATOM      1  H   UNK    1        3.416  24.703   0.000  0.00  0.00    +0.000 HD
ENDROOT
TORSDOF 0
REMARK  Name = molecules/FHOCOBKCNJYXOP-OVLDLUHVSA-N.pdb
REMARK                            x       y       z     vdW  Elec       q    Type
REMARK                         _______ _______ _______ _____ _____    ______ ____
ROOT
ATOM      1  H   UNK    1       10.711  15.565   0.000  0.00  0.00    +0.000 HD
ENDROOT
TORSDOF 0
REMARK  Name = molecules/FHOCOBKCNJYXOP-OVLDLUHVSA-N.pdb
REMARK                            x       y       z     vdW  Elec       q    Type
REMARK                         _______ _______ _______ _____ _____    ______ ____
ROOT
ATOM      1  H   UNK    1        7.960  14.946   0.000  0.00  0.00    +0.000 HD
ENDROOT
TORSDOF 0
REMARK  Name = molecules/FHOCOBKCNJYXOP-OVLDLUHVSA-N.pdb
REMARK                            x       y       z     vdW  Elec       q    Type
REMARK                         _______ _______ _______ _____ _____    ______ ____
ROOT
ATOM      1  H   UNK    1        1.840  20.329   0.000  0.00  0.00    +0.000 HD
ENDROOT
TORSDOF 0
REMARK  Name = molecules/FHOCOBKCNJYXOP-OVLDLUHVSA-N.pdb
REMARK                            x       y       z     vdW  Elec       q    Type
REMARK                         _______ _______ _______ _____ _____    ______ ____
ROOT
ATOM      1  H   UNK    1        3.947  21.327   0.000  0.00  0.00    +0.000 HD
ENDROOT
TORSDOF 0
REMARK  Name = molecules/FHOCOBKCNJYXOP-OVLDLUHVSA-N.pdb
REMARK                            x       y       z     vdW  Elec       q    Type
REMARK                         _______ _______ _______ _____ _____    ______ ____
ROOT
ATOM      1  H   UNK    1        8.216  15.532   0.000  0.00  0.00    +0.000 HD
ENDROOT
TORSDOF 0
REMARK  Name = molecules/FHOCOBKCNJYXOP-OVLDLUHVSA-N.pdb
REMARK                            x       y       z     vdW  Elec       q    Type
REMARK                         _______ _______ _______ _____ _____    ______ ____
ROOT
ATOM      1  H   UNK    1        3.642  11.696   0.000  0.00  0.00    +0.000 HD
ENDROOT
TORSDOF 0
REMARK  Name = molecules/FHOCOBKCNJYXOP-OVLDLUHVSA-N.pdb
REMARK                            x       y       z     vdW  Elec       q    Type
REMARK                         _______ _______ _______ _____ _____    ______ ____
ROOT
ATOM      1  H   UNK    1        5.937   9.770   0.000  0.00  0.00    +0.000 HD
ENDROOT
TORSDOF 0
REMARK  Name = molecules/FHOCOBKCNJYXOP-OVLDLUHVSA-N.pdb
REMARK                            x       y       z     vdW  Elec       q    Type
REMARK                         _______ _______ _______ _____ _____    ______ ____
ROOT
ATOM      1  H   UNK    1        9.408   8.183   0.000  0.00  0.00    +0.000 HD
ENDROOT
TORSDOF 0
REMARK  Name = molecules/FHOCOBKCNJYXOP-OVLDLUHVSA-N.pdb
REMARK                            x       y       z     vdW  Elec       q    Type
REMARK                         _______ _______ _______ _____ _____    ______ ____
ROOT
ATOM      1  H   UNK    1        8.395   7.310   0.000  0.00  0.00    +0.000 HD
ENDROOT
TORSDOF 0
REMARK  Name = molecules/FHOCOBKCNJYXOP-OVLDLUHVSA-N.pdb
REMARK                            x       y       z     vdW  Elec       q    Type
REMARK                         _______ _______ _______ _____ _____    ______ ____
ROOT
ATOM      1  H   UNK    1        5.636   7.580   0.000  0.00  0.00    +0.000 HD
ENDROOT
TORSDOF 0
REMARK  Name = molecules/FHOCOBKCNJYXOP-OVLDLUHVSA-N.pdb
REMARK                            x       y       z     vdW  Elec       q    Type
REMARK                         _______ _______ _______ _____ _____    ______ ____
ROOT
ATOM      1  H   UNK    1        7.623   7.598   0.000  0.00  0.00    +0.000 HD
ENDROOT
TORSDOF 0
REMARK  Name = molecules/FHOCOBKCNJYXOP-OVLDLUHVSA-N.pdb
REMARK                            x       y       z     vdW  Elec       q    Type
REMARK                         _______ _______ _______ _____ _____    ______ ____
ROOT
ATOM      1  H   UNK    1        8.097   8.261   0.000  0.00  0.00    +0.000 HD
ENDROOT
TORSDOF 0
REMARK  Name = molecules/FHOCOBKCNJYXOP-OVLDLUHVSA-N.pdb
REMARK                            x       y       z     vdW  Elec       q    Type
REMARK                         _______ _______ _______ _____ _____    ______ ____
ROOT
ATOM      1  H   UNK    1       15.738  13.157   0.000  0.00  0.00    +0.000 HD
ENDROOT
TORSDOF 0
REMARK  Name = molecules/FHOCOBKCNJYXOP-OVLDLUHVSA-N.pdb
REMARK                            x       y       z     vdW  Elec       q    Type
REMARK                         _______ _______ _______ _____ _____    ______ ____
ROOT
ATOM      1  H   UNK    1       17.171   7.382   0.000  0.00  0.00    +0.000 HD
ENDROOT
TORSDOF 0
REMARK  Name = molecules/FHOCOBKCNJYXOP-OVLDLUHVSA-N.pdb
REMARK                            x       y       z     vdW  Elec       q    Type
REMARK                         _______ _______ _______ _____ _____    ______ ____
ROOT
ATOM      1  H   UNK    1       17.650  21.942   0.000  0.00  0.00    +0.000 HD
ENDROOT
TORSDOF 0
REMARK  Name = molecules/FHOCOBKCNJYXOP-OVLDLUHVSA-N.pdb
REMARK                            x       y       z     vdW  Elec       q    Type
REMARK                         _______ _______ _______ _____ _____    ______ ____
ROOT
ATOM      1  H   UNK    1       11.216  18.152   0.000  0.00  0.00    +0.000 HD
ENDROOT
TORSDOF 0
