REMARK  Name = molecules/FHRSHSOEWXUORL-HDJSIYSDSA-N.pdb
REMARK                            x       y       z     vdW  Elec       q    Type
REMARK                         _______ _______ _______ _____ _____    ______ ____
ROOT
ATOM      1  O   LIG    1       -0.152  -1.057   0.475  0.00  0.00    -0.426 OA
ENDROOT
BRANCH   1   2
ATOM      2  C   LIG    1       -1.387  -0.453   0.416  0.00  0.00    +0.132 A 
ATOM      3  C   LIG    1       -2.263  -0.521   1.472  0.00  0.00    +0.046 A 
ATOM      4  C   LIG    1       -3.507   0.094   1.396  0.00  0.00    +0.007 A 
ATOM      5  C   LIG    1       -3.891   0.779   0.276  0.00  0.00    -0.047 A 
ATOM      6  C   LIG    1       -2.978   0.829  -0.776  0.00  0.00    +0.007 A 
ATOM      7  C   LIG    1       -1.753   0.228  -0.710  0.00  0.00    +0.046 A 
BRANCH   5   8
ATOM      8  C   LIG    1       -5.186   1.453   0.219  0.00  0.00    +0.046 C 
BRANCH   8   9
ATOM      9  C   LIG    1       -6.278   0.777  -0.511  0.00  0.00    +0.125 C 
BRANCH   9  10
ATOM     10  C   LIG    1       -6.671  -0.540  -0.013  0.00  0.00    +0.305 C 
ATOM     11  O   LIG    1       -6.130  -1.069   0.970  0.00  0.00    -0.251 OA
BRANCH  10  12
ATOM     12  O   LIG    1       -7.695  -1.290  -0.624  0.00  0.00    -0.481 OA
ATOM     13  H   LIG    1       -8.611  -0.824  -0.678  0.00  0.00    +0.295 HD
ENDBRANCH  10  12
ENDBRANCH   9  10
ENDBRANCH   8   9
ENDBRANCH   5   8
ENDBRANCH   1   2
BRANCH   1  14
ATOM     14  C   LIG    1        0.916  -0.313   0.970  0.00  0.00    +0.315 C 
ATOM     15  O   LIG    1        0.812   0.872   1.363  0.00  0.00    -0.250 OA
BRANCH  14  16
ATOM     16  C   LIG    1        2.241  -1.027   1.011  0.00  0.00    +0.098 C 
ATOM     17  C   LIG    1        3.327  -0.164   1.551  0.00  0.00    +0.015 C 
ATOM     18  C   LIG    1        4.560  -0.361   0.660  0.00  0.00    +0.005 C 
ATOM     19  C   LIG    1        4.183   0.259  -0.669  0.00  0.00    +0.003 C 
ATOM     20  C   LIG    1        3.150  -0.618  -1.296  0.00  0.00    +0.005 C 
ATOM     21  C   LIG    1        2.522  -1.598  -0.348  0.00  0.00    +0.015 C 
BRANCH  19  22
ATOM     22  C   LIG    1        5.391   0.474  -1.549  0.00  0.00    +0.081 C 
BRANCH  22  23
ATOM     23  N   LIG    1        6.338   1.348  -0.917  0.00  0.00    -0.330 NA
ATOM     24  H   LIG    1        5.990   1.699  -0.008  0.00  0.00    +0.118 HD
ATOM     25  H   LIG    1        7.225   0.822  -0.717  0.00  0.00    +0.118 HD
ENDBRANCH  22  23
ENDBRANCH  19  22
ENDBRANCH  14  16
ENDBRANCH   1  14
TORSDOF 9
