REMARK  Name = molecules/FHXBMXJMKMWVRG-SLHNCBLASA-N.pdb
REMARK                            x       y       z     vdW  Elec       q    Type
REMARK                         _______ _______ _______ _____ _____    ______ ____
ROOT
ATOM      1  C   LIG    1       -3.017   0.268  -1.478  0.00  0.00    +0.014 C 
ATOM      2  C   LIG    1       -3.021   0.490   0.014  0.00  0.00    -0.003 C 
ATOM      3  C   LIG    1       -2.273  -0.637   0.741  0.00  0.00    +0.001 C 
ATOM      4  C   LIG    1       -3.125  -1.807   0.402  0.00  0.00    +0.007 C 
ATOM      5  C   LIG    1       -4.543  -1.257   0.328  0.00  0.00    +0.032 C 
ATOM      6  C   LIG    1       -0.863  -0.702   0.281  0.00  0.00    +0.000 C 
ATOM      7  C   LIG    1       -0.151  -1.785   1.047  0.00  0.00    +0.009 C 
ATOM      8  C   LIG    1        1.232  -1.454   1.487  0.00  0.00    +0.036 C 
ATOM      9  C   LIG    1        1.919  -0.528   0.553  0.00  0.00    -0.040 A 
ATOM     10  C   LIG    1        3.234  -0.727   0.198  0.00  0.00    +0.050 A 
ATOM     11  C   LIG    1        3.853   0.143  -0.666  0.00  0.00    +0.132 A 
ATOM     12  C   LIG    1        3.127   1.212  -1.164  0.00  0.00    +0.046 A 
ATOM     13  C   LIG    1        1.800   1.394  -0.793  0.00  0.00    +0.008 A 
ATOM     14  C   LIG    1        1.173   0.527   0.073  0.00  0.00    -0.041 A 
ATOM     15  C   LIG    1       -0.215   0.631   0.523  0.00  0.00    +0.023 C 
ATOM     16  C   LIG    1       -0.965   1.788  -0.030  0.00  0.00    +0.009 C 
ATOM     17  C   LIG    1       -4.405   0.259   0.519  0.00  0.00    +0.121 C 
ATOM     18  C   LIG    1       -2.391   1.768   0.427  0.00  0.00    +0.010 C 
ENDROOT
BRANCH  17  19
ATOM     19  O   LIG    1       -5.385   0.935  -0.187  0.00  0.00    -0.391 OA
ATOM     20  H   LIG    1       -6.232   0.842   0.340  0.00  0.00    +0.210 HD
ENDBRANCH  17  19
BRANCH  11  21
ATOM     21  O   LIG    1        5.197  -0.051  -1.036  0.00  0.00    -0.426 OA
BRANCH  21  22
ATOM     22  C   LIG    1        6.223   0.525  -0.292  0.00  0.00    +0.309 C 
ATOM     23  O   LIG    1        5.888   1.213   0.708  0.00  0.00    -0.251 OA
ATOM     24  C   LIG    1        7.666   0.341  -0.654  0.00  0.00    +0.136 C 
ENDBRANCH  21  22
ENDBRANCH  11  21
TORSDOF 3
