REMARK  Name = molecules/FIADGNVRKBPQEU-UHFFFAOYSA-N.pdb
REMARK                            x       y       z     vdW  Elec       q    Type
REMARK                         _______ _______ _______ _____ _____    ______ ____
ROOT
ATOM      1  C   LIG    1        4.553  -0.563  -1.306  0.00  0.00    +0.104 C 
ATOM      2  N   LIG    1        3.363  -0.654  -0.509  0.00  0.00    -0.305 NA
ATOM      3  C   LIG    1        3.172   0.577   0.174  0.00  0.00    +0.088 C 
ATOM      4  C   LIG    1        1.918   0.683   1.010  0.00  0.00    +0.047 C 
ATOM      5  C   LIG    1        0.770  -0.142   0.549  0.00  0.00    -0.059 C 
ATOM      6  C   LIG    1       -0.479   0.188   0.644  0.00  0.00    -0.010 C 
ATOM      7  C   LIG    1       -0.927   1.487   1.237  0.00  0.00    -0.007 A 
ATOM      8  C   LIG    1       -0.297   2.021   2.286  0.00  0.00    +0.016 A 
ATOM      9  C   LIG    1       -0.744   3.220   2.759  0.00  0.00    +0.046 A 
ATOM     10  S   LIG    1       -2.047   3.585   1.728  0.00  0.00    -0.101 S 
ATOM     11  C   LIG    1       -1.996   2.187   0.705  0.00  0.00    -0.002 A 
ATOM     12  C   LIG    1       -2.983   1.978  -0.365  0.00  0.00    +0.047 C 
ATOM     13  C   LIG    1       -2.881   0.818  -1.270  0.00  0.00    +0.041 C 
ATOM     14  C   LIG    1       -2.532  -0.495  -0.689  0.00  0.00    -0.039 A 
ATOM     15  C   LIG    1       -3.381  -1.500  -1.058  0.00  0.00    +0.004 A 
ATOM     16  C   LIG    1       -3.145  -2.772  -0.582  0.00  0.00    +0.000 A 
ATOM     17  C   LIG    1       -2.078  -3.076   0.261  0.00  0.00    +0.001 A 
ATOM     18  C   LIG    1       -1.248  -2.057   0.616  0.00  0.00    +0.009 A 
ATOM     19  C   LIG    1       -1.457  -0.799   0.160  0.00  0.00    -0.014 A 
ATOM     20  C   LIG    1        1.147  -1.384  -0.195  0.00  0.00    +0.047 C 
ATOM     21  C   LIG    1        2.192  -0.986  -1.290  0.00  0.00    +0.088 C 
ENDROOT
TORSDOF 0
