REMARK  Name = molecules/FIOAEFCJGZJUPW-ODFYUTSGSA-N.pdb
REMARK                            x       y       z     vdW  Elec       q    Type
REMARK                         _______ _______ _______ _____ _____    ______ ____
ROOT
ATOM      1  C   LIG    1       -3.842  -0.750   0.305  0.00  0.00    +0.004 C 
ATOM      2  C   LIG    1       -4.548  -0.944   1.654  0.00  0.00    +0.015 C 
ATOM      3  C   LIG    1       -5.882  -0.268   1.715  0.00  0.00    +0.032 C 
ATOM      4  C   LIG    1       -6.801  -0.676   0.593  0.00  0.00    +0.119 C 
ATOM      5  C   LIG    1       -6.142  -0.534  -0.779  0.00  0.00    +0.062 C 
ATOM      6  C   LIG    1       -2.531  -0.094   0.457  0.00  0.00    +0.004 C 
ATOM      7  C   LIG    1       -1.409  -1.074   0.724  0.00  0.00    +0.005 C 
ATOM      8  C   LIG    1       -0.104  -0.423   0.993  0.00  0.00    +0.007 C 
ATOM      9  C   LIG    1        0.274   0.649  -0.039  0.00  0.00    -0.026 C 
ATOM     10  C   LIG    1        1.290   1.592   0.474  0.00  0.00    -0.002 C 
ATOM     11  C   LIG    1        0.841   2.996   0.134  0.00  0.00    +0.004 C 
ATOM     12  C   LIG    1       -0.398   2.769  -0.707  0.00  0.00    +0.004 C 
ATOM     13  C   LIG    1       -0.932   1.568  -0.059  0.00  0.00    -0.001 C 
ATOM     14  C   LIG    1        0.441   0.053  -1.370  0.00  0.00    +0.012 C 
ATOM     15  C   LIG    1       -2.150   0.916  -0.598  0.00  0.00    +0.000 C 
ATOM     16  C   LIG    1       -3.233   1.915  -0.822  0.00  0.00    +0.031 C 
ATOM     17  C   LIG    1       -4.519   1.224  -1.018  0.00  0.00    -0.027 C 
ATOM     18  C   LIG    1       -4.801   0.040  -0.522  0.00  0.00    -0.064 C 
ENDROOT
BRANCH   1  19
ATOM     19  C   LIG    1       -3.798  -2.139  -0.313  0.00  0.00    +0.086 C 
ATOM     20  I   LIG    1       -3.008  -2.140  -2.264  0.00  0.00    -0.084 I 
ENDBRANCH   1  19
BRANCH   4  21
ATOM     21  O   LIG    1       -7.254  -1.978   0.814  0.00  0.00    -0.391 OA
ATOM     22  H   LIG    1       -8.092  -1.916   1.327  0.00  0.00    +0.210 HD
ENDBRANCH   4  21
BRANCH  10  23
ATOM     23  C   LIG    1        2.716   1.445   0.190  0.00  0.00    -0.010 C 
ATOM     24  C   LIG    1        3.196   1.843  -1.157  0.00  0.00    +0.008 C 
BRANCH  23  25
ATOM     25  C   LIG    1        3.355   0.178   0.653  0.00  0.00    +0.003 C 
BRANCH  25  26
ATOM     26  C   LIG    1        4.830   0.069   0.352  0.00  0.00    +0.001 C 
BRANCH  26  27
ATOM     27  C   LIG    1        5.405  -1.237   0.856  0.00  0.00    +0.003 C 
BRANCH  27  28
ATOM     28  C   LIG    1        6.880  -1.302   0.533  0.00  0.00    -0.017 C 
ATOM     29  C   LIG    1        7.362  -2.678   0.976  0.00  0.00    +0.007 C 
ATOM     30  C   LIG    1        7.128  -1.218  -0.958  0.00  0.00    +0.007 C 
ENDBRANCH  27  28
ENDBRANCH  26  27
ENDBRANCH  25  26
ENDBRANCH  23  25
ENDBRANCH  10  23
TORSDOF 7
