REMARK  Name = molecules/FIPWRIJSWJWJAI-UHFFFAOYSA-N.pdb
REMARK                            x       y       z     vdW  Elec       q    Type
REMARK                         _______ _______ _______ _____ _____    ______ ____
ROOT
ATOM      1  C   LIG    1       -1.303  -0.572  -0.198  0.00  0.00    +0.195 C 
ENDROOT
BRANCH   1   2
ATOM      2  C   LIG    1       -2.557   0.233  -0.379  0.00  0.00    -0.015 A 
ATOM      3  C   LIG    1       -3.744  -0.132   0.191  0.00  0.00    -0.038 A 
ATOM      4  C   LIG    1       -4.857   0.703  -0.018  0.00  0.00    +0.053 A 
ATOM      5  C   LIG    1       -4.783   1.853  -0.767  0.00  0.00    +0.167 A 
ATOM      6  O   LIG    1       -5.693   2.845  -1.133  0.00  0.00    -0.453 OA
ATOM      7  C   LIG    1       -4.957   3.932  -1.646  0.00  0.00    +0.466 C 
ATOM      8  O   LIG    1       -3.700   3.385  -2.047  0.00  0.00    -0.453 OA
ATOM      9  C   LIG    1       -3.590   2.189  -1.321  0.00  0.00    +0.167 A 
ATOM     10  C   LIG    1       -2.501   1.400  -1.133  0.00  0.00    +0.055 A 
BRANCH   3  11
ATOM     11  C   LIG    1       -3.901  -1.355   0.980  0.00  0.00    +0.035 C 
BRANCH  11  12
ATOM     12  C   LIG    1       -4.099  -2.616   0.219  0.00  0.00    +0.001 C 
ATOM     13  C   LIG    1       -5.347  -2.575  -0.655  0.00  0.00    +0.004 C 
ENDBRANCH  11  12
ENDBRANCH   3  11
ENDBRANCH   1   2
BRANCH   1  14
ATOM     14  O   LIG    1       -0.292   0.061  -0.879  0.00  0.00    -0.373 OA
BRANCH  14  15
ATOM     15  C   LIG    1        0.936  -0.539  -0.839  0.00  0.00    +0.188 C 
BRANCH  15  16
ATOM     16  C   LIG    1        1.500  -0.699   0.556  0.00  0.00    +0.188 C 
BRANCH  16  17
ATOM     17  O   LIG    1        1.609   0.588   1.102  0.00  0.00    -0.375 OA
BRANCH  17  18
ATOM     18  C   LIG    1        2.167   0.598   2.338  0.00  0.00    +0.188 C 
BRANCH  18  19
ATOM     19  C   LIG    1        3.626   0.272   2.310  0.00  0.00    +0.188 C 
BRANCH  19  20
ATOM     20  O   LIG    1        4.411   1.107   1.631  0.00  0.00    -0.377 OA
BRANCH  20  21
ATOM     21  C   LIG    1        4.397   1.360   0.335  0.00  0.00    +0.160 C 
BRANCH  21  22
ATOM     22  C   LIG    1        4.793   0.302  -0.639  0.00  0.00    +0.028 C 
BRANCH  22  23
ATOM     23  C   LIG    1        6.215  -0.182  -0.421  0.00  0.00    -0.001 C 
ATOM     24  C   LIG    1        6.508  -1.244  -1.456  0.00  0.00    +0.004 C 
ENDBRANCH  22  23
ENDBRANCH  21  22
ENDBRANCH  20  21
ENDBRANCH  19  20
ENDBRANCH  18  19
ENDBRANCH  17  18
ENDBRANCH  16  17
ENDBRANCH  15  16
ENDBRANCH  14  15
ENDBRANCH   1  14
TORSDOF 13
