REMARK  Name = molecules/FIQOFIRCTOWDOW-BJLQDIEVSA-N.pdb
REMARK                            x       y       z     vdW  Elec       q    Type
REMARK                         _______ _______ _______ _____ _____    ______ ____
ROOT
ATOM      1  N   LIG    1       -2.731  -1.447  -0.709  0.00  0.00    -0.288 N 
ATOM      2  C   LIG    1       -1.464  -1.229  -0.086  0.00  0.00    +0.234 C 
ATOM      3  C   LIG    1       -0.954  -0.031   0.591  0.00  0.00    +0.151 C 
ATOM      4  C   LIG    1       -1.812   1.178   0.285  0.00  0.00    +0.098 C 
ATOM      5  S   LIG    1       -2.486   1.119  -1.389  0.00  0.00    -0.149 S 
ATOM      6  C   LIG    1       -4.167   0.400  -1.236  0.00  0.00    +0.100 C 
ATOM      7  O   LIG    1       -0.737  -2.248  -0.167  0.00  0.00    -0.274 OA
ATOM      8  C   LIG    1       -4.031  -0.826  -0.414  0.00  0.00    +0.127 C 
ENDROOT
BRANCH   6   9
ATOM      9  C   LIG    1       -5.061   1.431  -0.635  0.00  0.00    +0.004 A 
ATOM     10  C   LIG    1       -5.332   1.755   0.664  0.00  0.00    +0.012 A 
ATOM     11  C   LIG    1       -6.198   2.773   0.882  0.00  0.00    +0.008 A 
ATOM     12  C   LIG    1       -6.724   3.385  -0.227  0.00  0.00    +0.045 A 
ATOM     13  S   LIG    1       -6.006   2.535  -1.515  0.00  0.00    -0.100 S 
ENDBRANCH   6   9
BRANCH   3  14
ATOM     14  N   LIG    1        0.394   0.328   0.308  0.00  0.00    -0.293 NA
ATOM     15  H   LIG    1        0.573   1.264   0.720  0.00  0.00    +0.123 HD
BRANCH  14  16
ATOM     16  C   LIG    1        1.428  -0.550   0.702  0.00  0.00    +0.164 C 
BRANCH  16  17
ATOM     17  C   LIG    1        1.600  -0.609   2.192  0.00  0.00    +0.324 C 
ATOM     18  O   LIG    1        0.857   0.079   2.932  0.00  0.00    -0.249 OA
BRANCH  17  19
ATOM     19  O   LIG    1        2.555  -1.399   2.802  0.00  0.00    -0.464 OA
BRANCH  19  20
ATOM     20  C   LIG    1        2.721  -1.457   4.210  0.00  0.00    +0.229 C 
ATOM     21  C   LIG    1        3.052  -0.119   4.809  0.00  0.00    +0.048 C 
ENDBRANCH  19  20
ENDBRANCH  17  19
ENDBRANCH  16  17
BRANCH  16  22
ATOM     22  C   LIG    1        2.735   0.017   0.118  0.00  0.00    +0.035 C 
BRANCH  22  23
ATOM     23  C   LIG    1        2.638   0.076  -1.403  0.00  0.00    +0.037 C 
BRANCH  23  24
ATOM     24  C   LIG    1        3.917   0.624  -1.890  0.00  0.00    -0.047 A 
ATOM     25  C   LIG    1        4.073   1.975  -2.061  0.00  0.00    +0.003 A 
ATOM     26  C   LIG    1        5.264   2.524  -2.513  0.00  0.00    +0.000 A 
ATOM     27  C   LIG    1        6.306   1.673  -2.793  0.00  0.00    +0.000 A 
ATOM     28  C   LIG    1        6.173   0.300  -2.628  0.00  0.00    +0.000 A 
ATOM     29  C   LIG    1        4.959  -0.225  -2.170  0.00  0.00    +0.003 A 
ENDBRANCH  23  24
ENDBRANCH  22  23
ENDBRANCH  16  22
ENDBRANCH  14  16
ENDBRANCH   3  14
BRANCH   1  30
ATOM     30  C   LIG    1       -2.692  -2.422  -1.777  0.00  0.00    +0.228 C 
BRANCH  30  31
ATOM     31  C   LIG    1       -2.952  -3.767  -1.249  0.00  0.00    +0.322 C 
ATOM     32  O   LIG    1       -3.158  -3.955  -0.028  0.00  0.00    -0.249 OA
BRANCH  31  33
ATOM     33  O   LIG    1       -2.973  -4.856  -2.096  0.00  0.00    -0.480 OA
ATOM     34  H   LIG    1       -2.143  -5.296  -2.493  0.00  0.00    +0.295 HD
ENDBRANCH  31  33
ENDBRANCH  30  31
ENDBRANCH   1  30
TORSDOF 12
