REMARK  Name = molecules/FIVSJYGQAIEMOC-ZGNKEGEESA-N.pdb
REMARK                            x       y       z     vdW  Elec       q    Type
REMARK                         _______ _______ _______ _____ _____    ______ ____
ROOT
ATOM      1  C   LIG    1       -1.470   0.555   0.255  0.00  0.00    +0.068 C 
ATOM      2  N   LIG    1       -2.618   0.216   1.173  0.00  0.00    -0.303 NA
ATOM      3  H   LIG    1       -2.861   1.108   1.625  0.00  0.00    +0.123 HD
ATOM      4  C   LIG    1       -3.765  -0.169   0.343  0.00  0.00    +0.107 C 
ATOM      5  C   LIG    1       -3.533  -1.636   0.010  0.00  0.00    +0.048 C 
ATOM      6  N   LIG    1       -4.041  -2.382   1.141  0.00  0.00    -0.309 N 
ATOM      7  H   LIG    1       -3.550  -2.589   2.038  0.00  0.00    +0.149 HD
ATOM      8  C   LIG    1       -5.341  -2.816   0.775  0.00  0.00    +0.214 C 
ATOM      9  O   LIG    1       -6.374  -2.904   1.514  0.00  0.00    -0.276 OA
ATOM     10  C   LIG    1       -5.235  -3.150  -0.651  0.00  0.00    +0.098 C 
ATOM     11  C   LIG    1       -2.062  -1.778  -0.207  0.00  0.00    +0.029 C 
ATOM     12  C   LIG    1       -4.299  -2.080  -1.197  0.00  0.00    +0.036 C 
ATOM     13  C   LIG    1       -1.576  -0.447  -0.828  0.00  0.00    +0.031 C 
ENDROOT
BRANCH   1  14
ATOM     14  C   LIG    1       -1.627   1.970  -0.053  0.00  0.00    -0.025 A 
ATOM     15  C   LIG    1       -1.117   2.889   0.843  0.00  0.00    +0.005 A 
ATOM     16  C   LIG    1       -1.299   4.248   0.604  0.00  0.00    +0.000 A 
ATOM     17  C   LIG    1       -1.973   4.727  -0.496  0.00  0.00    +0.000 A 
ATOM     18  C   LIG    1       -2.481   3.799  -1.383  0.00  0.00    +0.000 A 
ATOM     19  C   LIG    1       -2.300   2.447  -1.149  0.00  0.00    +0.005 A 
ENDBRANCH   1  14
BRANCH   1  20
ATOM     20  C   LIG    1       -0.201   0.369   1.018  0.00  0.00    +0.187 C 
BRANCH  20  21
ATOM     21  O   LIG    1        0.895   0.720   0.173  0.00  0.00    -0.370 OA
BRANCH  21  22
ATOM     22  C   LIG    1        2.046   0.631   0.909  0.00  0.00    +0.145 C 
ATOM     23  C   LIG    1        2.435   2.118   1.178  0.00  0.00    +0.043 C 
BRANCH  22  26
ATOM     24  C   LIG    1        4.786  -1.871   0.373  0.00  0.00    +0.056 A 
ATOM     25  C   LIG    1        3.619  -1.276   0.793  0.00  0.00    +0.018 A 
ATOM     26  C   LIG    1        3.227  -0.021   0.311  0.00  0.00    -0.018 A 
ATOM     27  C   LIG    1        4.058   0.584  -0.605  0.00  0.00    +0.018 A 
ATOM     28  C   LIG    1        5.252  -0.036  -1.030  0.00  0.00    +0.056 A 
ATOM     29  C   LIG    1        5.597  -1.258  -0.534  0.00  0.00    +0.024 A 
BRANCH  24  30
ATOM     30  C   LIG    1        5.142  -3.189   0.958  0.00  0.00    +0.417 C 
ATOM     31  F   LIG    1        5.041  -3.183   2.313  0.00  0.00    -0.166 F 
ATOM     32  F   LIG    1        6.446  -3.548   0.604  0.00  0.00    -0.166 F 
ATOM     33  F   LIG    1        4.294  -4.114   0.362  0.00  0.00    -0.166 F 
ENDBRANCH  24  30
BRANCH  28  34
ATOM     34  C   LIG    1        6.141   0.667  -1.986  0.00  0.00    +0.417 C 
ATOM     35  F   LIG    1        7.503   0.524  -1.593  0.00  0.00    -0.166 F 
ATOM     36  F   LIG    1        5.945   2.037  -1.872  0.00  0.00    -0.166 F 
ATOM     37  F   LIG    1        6.060   0.198  -3.244  0.00  0.00    -0.166 F 
ENDBRANCH  28  34
ENDBRANCH  22  26
ENDBRANCH  21  22
ENDBRANCH  20  21
ENDBRANCH   1  20
TORSDOF 7
