REMARK  Name = molecules/FJLGEFLZQAZZCD-JUFISIKESA-N.pdb
REMARK                            x       y       z     vdW  Elec       q    Type
REMARK                         _______ _______ _______ _____ _____    ______ ____
ROOT
ATOM      1  C   LIG    1       -0.902  -0.017  -0.412  0.00  0.00    +0.051 A 
ATOM      2  C   LIG    1       -1.901   0.841   0.045  0.00  0.00    +0.015 A 
ATOM      3  C   LIG    1       -2.971   0.090   0.452  0.00  0.00    +0.008 A 
ATOM      4  C   LIG    1       -4.216   0.449   0.973  0.00  0.00    +0.010 A 
ATOM      5  C   LIG    1       -5.129  -0.520   1.289  0.00  0.00    +0.001 A 
ATOM      6  C   LIG    1       -4.772  -1.825   1.076  0.00  0.00    +0.002 A 
ATOM      7  C   LIG    1       -3.524  -2.174   0.556  0.00  0.00    +0.026 A 
ATOM      8  C   LIG    1       -2.592  -1.215   0.233  0.00  0.00    +0.050 A 
ATOM      9  N   LIG    1       -1.337  -1.279  -0.287  0.00  0.00    -0.337 N 
ENDROOT
BRANCH   2  10
ATOM     10  C   LIG    1       -1.910   2.302   0.118  0.00  0.00    -0.015 A 
ATOM     11  C   LIG    1       -1.271   2.940   1.158  0.00  0.00    +0.011 A 
ATOM     12  C   LIG    1       -1.258   4.328   1.271  0.00  0.00    +0.039 A 
ATOM     13  C   LIG    1       -1.889   5.119   0.334  0.00  0.00    +0.123 A 
ATOM     14  F   LIG    1       -1.866   6.476   0.457  0.00  0.00    -0.205 F 
ATOM     15  C   LIG    1       -2.525   4.483  -0.703  0.00  0.00    +0.039 A 
ATOM     16  C   LIG    1       -2.539   3.109  -0.816  0.00  0.00    +0.011 A 
ENDBRANCH   2  10
BRANCH   9  17
ATOM     17  C   LIG    1       -0.587  -2.498  -0.568  0.00  0.00    +0.082 C 
ATOM     18  C   LIG    1       -0.803  -3.565   0.526  0.00  0.00    +0.030 C 
ATOM     19  C   LIG    1       -0.845  -3.100  -1.889  0.00  0.00    +0.030 C 
ENDBRANCH   9  17
BRANCH   1  20
ATOM     20  C   LIG    1        0.352   0.526  -0.897  0.00  0.00    +0.025 C 
ATOM     21  C   LIG    1        1.296  -0.048  -1.595  0.00  0.00    +0.006 C 
BRANCH  21  22
ATOM     22  C   LIG    1        2.542   0.682  -2.004  0.00  0.00    +0.140 C 
BRANCH  22  23
ATOM     23  O   LIG    1        3.268  -0.107  -2.855  0.00  0.00    -0.388 OA
ATOM     24  H   LIG    1        3.175  -1.067  -2.735  0.00  0.00    +0.210 HD
ENDBRANCH  22  23
BRANCH  22  25
ATOM     25  C   LIG    1        3.387   1.077  -0.836  0.00  0.00    +0.067 C 
BRANCH  25  26
ATOM     26  C   LIG    1        3.833  -0.150  -0.031  0.00  0.00    +0.128 C 
BRANCH  26  27
ATOM     27  O   LIG    1        2.698  -0.819   0.408  0.00  0.00    -0.391 OA
ATOM     28  H   LIG    1        2.715  -0.840   1.395  0.00  0.00    +0.210 HD
ENDBRANCH  26  27
BRANCH  26  29
ATOM     29  C   LIG    1        4.687   0.287   1.144  0.00  0.00    +0.151 C 
BRANCH  29  30
ATOM     30  C   LIG    1        5.113  -0.886   1.913  0.00  0.00    +0.307 C 
ATOM     31  O   LIG    1        5.830  -0.775   2.938  0.00  0.00    -0.251 OA
BRANCH  30  32
ATOM     32  O   LIG    1        4.727  -2.149   1.518  0.00  0.00    -0.481 OA
ATOM     33  H   LIG    1        5.342  -2.925   1.722  0.00  0.00    +0.295 HD
ENDBRANCH  30  32
ENDBRANCH  29  30
ENDBRANCH  26  29
ENDBRANCH  25  26
ENDBRANCH  22  25
ENDBRANCH  21  22
ENDBRANCH   1  20
TORSDOF 11
