REMARK  Name = molecules/FJZZPCZKBUKGGU-AUSIDOKSSA-N.pdb
REMARK                            x       y       z     vdW  Elec       q    Type
REMARK                         _______ _______ _______ _____ _____    ______ ____
ROOT
ATOM      1  C   LIG    1       -1.005  -1.007  -0.682  0.00  0.00    +0.120 C 
ENDROOT
BRANCH   1   2
ATOM      2  N   LIG    1       -0.061   0.019  -1.053  0.00  0.00    -0.308 N 
ATOM      3  C   LIG    1        1.089   0.239  -0.272  0.00  0.00    +0.213 C 
ATOM      4  O   LIG    1        1.296  -0.464   0.752  0.00  0.00    -0.276 OA
ATOM      5  H   LIG    1       -0.241   0.587  -1.896  0.00  0.00    +0.149 HD
BRANCH   3   6
ATOM      6  C   LIG    1        2.036   1.289  -0.661  0.00  0.00    +0.096 C 
BRANCH   6   7
ATOM      7  C   LIG    1        3.329   1.228   0.199  0.00  0.00    +0.009 C 
BRANCH   7   8
ATOM      8  C   LIG    1        4.046  -0.032  -0.028  0.00  0.00    +0.000 C 
BRANCH   8   9
ATOM      9  C   LIG    1        5.213  -0.455   0.711  0.00  0.00    +0.000 C 
BRANCH   9  10
ATOM     10  C   LIG    1        6.517   0.169   0.815  0.00  0.00    -0.000 C 
BRANCH  10  11
ATOM     11  C   LIG    1        6.786   1.460   1.446  0.00  0.00    -0.003 C 
ATOM     12  C   LIG    1        6.226   2.711   0.897  0.00  0.00    +0.004 C 
ENDBRANCH  10  11
ENDBRANCH   9  10
ENDBRANCH   8   9
ENDBRANCH   7   8
ENDBRANCH   6   7
ENDBRANCH   3   6
ENDBRANCH   1   2
BRANCH   1  13
ATOM     13  C   LIG    1       -2.418  -0.548  -0.785  0.00  0.00    +0.166 C 
BRANCH  13  14
ATOM     14  C   LIG    1       -2.790   0.542   0.147  0.00  0.00    -0.014 A 
ATOM     15  C   LIG    1       -2.074   0.889   1.272  0.00  0.00    +0.010 A 
ATOM     16  C   LIG    1       -2.494   1.920   2.100  0.00  0.00    +0.050 A 
ATOM     17  C   LIG    1       -3.642   2.651   1.853  0.00  0.00    +0.162 A 
ATOM     18  O   LIG    1       -4.064   3.680   2.677  0.00  0.00    -0.485 OA
ATOM     19  C   LIG    1       -5.116   4.556   2.320  0.00  0.00    +0.270 C 
ATOM     20  C   LIG    1       -6.112   3.917   1.403  0.00  0.00    +0.270 C 
ATOM     21  O   LIG    1       -5.524   3.044   0.474  0.00  0.00    -0.485 OA
ATOM     22  C   LIG    1       -4.365   2.312   0.732  0.00  0.00    +0.162 A 
ATOM     23  C   LIG    1       -3.949   1.290  -0.091  0.00  0.00    +0.055 A 
ENDBRANCH  13  14
BRANCH  13  24
ATOM     24  O   LIG    1       -2.656  -0.162  -2.126  0.00  0.00    -0.385 OA
ATOM     25  H   LIG    1       -2.447   0.800  -2.210  0.00  0.00    +0.210 HD
ENDBRANCH  13  24
ENDBRANCH   1  13
BRANCH   1  26
ATOM     26  C   LIG    1       -0.843  -2.113  -1.753  0.00  0.00    +0.109 C 
BRANCH  26  27
ATOM     27  N   LIG    1       -1.780  -3.144  -1.429  0.00  0.00    -0.300 NA
ATOM     28  C   LIG    1       -1.466  -3.825  -0.190  0.00  0.00    +0.084 C 
ATOM     29  C   LIG    1       -2.441  -5.010  -0.241  0.00  0.00    +0.017 C 
ATOM     30  C   LIG    1       -2.657  -5.249  -1.719  0.00  0.00    +0.017 C 
ATOM     31  C   LIG    1       -1.734  -4.245  -2.385  0.00  0.00    +0.084 C 
ENDBRANCH  26  27
ENDBRANCH   1  26
TORSDOF 12
