REMARK  Name = molecules/FKDHHVKWGRFRTG-VOTSOKGWSA-N.pdb
REMARK                            x       y       z     vdW  Elec       q    Type
REMARK                         _______ _______ _______ _____ _____    ______ ____
ROOT
ATOM      1  N   LIG    1        1.072   0.616  -0.221  0.00  0.00    -0.107 NA
ATOM      2  C   LIG    1        2.092  -0.180   0.146  0.00  0.00    +0.211 C 
ATOM      3  C   LIG    1        3.233   0.571   0.265  0.00  0.00    +0.234 C 
ATOM      4  N   LIG    1        4.392   0.151   0.596  0.00  0.00    -0.268 NA
ATOM      5  H   LIG    1        4.514  -0.861   0.802  0.00  0.00    +0.190 HD
ATOM      6  O   LIG    1        2.857   1.799  -0.036  0.00  0.00    -0.352 OA
ATOM      7  N   LIG    1        1.589   1.816  -0.319  0.00  0.00    +0.070 NA
ENDROOT
BRANCH   1  12
ATOM      8  C   LIG    1       -1.629  -1.238   0.850  0.00  0.00    +0.176 C 
ATOM      9  O   LIG    1       -2.443  -0.164   0.951  0.00  0.00    -0.377 OA
ATOM     10  C   LIG    1       -2.558   0.704  -0.066  0.00  0.00    +0.176 C 
ATOM     11  C   LIG    1       -1.317   1.050  -0.825  0.00  0.00    +0.132 C 
ATOM     12  N   LIG    1       -0.219   0.165  -0.427  0.00  0.00    -0.218 NA
ATOM     13  C   LIG    1       -0.639  -1.212  -0.277  0.00  0.00    +0.132 C 
ENDBRANCH   1  12
TORSDOF 1
