REMARK  Name = molecules/FKENQMMABCRJMK-RITPCOANSA-N.pdb
REMARK                            x       y       z     vdW  Elec       q    Type
REMARK                         _______ _______ _______ _____ _____    ______ ____
ROOT
ATOM      1  C   LIG    1       -2.031  -0.140   1.453  0.00  0.00    +0.038 C 
ATOM      2  C   LIG    1       -1.058  -0.246   0.306  0.00  0.00    +0.113 C 
ATOM      3  S   LIG    1        0.029  -1.642   0.684  0.00  0.00    -0.004 S 
ATOM      4  O   LIG    1        0.391  -1.684   2.114  0.00  0.00    -0.172 OA
ATOM      5  O   LIG    1       -0.568  -2.875   0.137  0.00  0.00    -0.172 OA
ATOM      6  C   LIG    1        1.303  -1.080  -0.382  0.00  0.00    +0.229 C 
ATOM      7  C   LIG    1        2.666  -0.817   0.132  0.00  0.00    +0.142 C 
ATOM      8  C   LIG    1        2.475   0.376  -0.796  0.00  0.00    +0.221 C 
ATOM      9  O   LIG    1        3.139   1.020  -1.625  0.00  0.00    -0.275 OA
ATOM     10  N   LIG    1        1.180   0.380  -0.246  0.00  0.00    -0.263 N 
ATOM     11  C   LIG    1       -0.031   0.835   0.301  0.00  0.00    +0.213 C 
ATOM     12  C   LIG    1       -1.738  -0.446  -1.012  0.00  0.00    +0.038 C 
ENDROOT
BRANCH  11  13
ATOM     13  C   LIG    1       -0.478   2.047  -0.428  0.00  0.00    +0.328 C 
ATOM     14  O   LIG    1       -1.536   2.635  -0.121  0.00  0.00    -0.249 OA
BRANCH  13  15
ATOM     15  O   LIG    1        0.279   2.545  -1.467  0.00  0.00    -0.479 OA
ATOM     16  H   LIG    1        1.051   3.172  -1.194  0.00  0.00    +0.295 HD
ENDBRANCH  13  15
ENDBRANCH  11  13
TORSDOF 2
