REMARK  Name = molecules/FKHUGQZRBPETJR-FZKCHLSLSA-N.pdb
REMARK                            x       y       z     vdW  Elec       q    Type
REMARK                         _______ _______ _______ _____ _____    ______ ____
ROOT
ATOM      1  C   LIG    1        8.867  -0.397   0.000  0.00  0.00    +0.169 C 
ATOM      2  C   LIG    1       10.277  -0.910   0.000  0.00  0.00    +0.294 C 
ATOM      3  O   LIG    1       11.686  -1.423   0.000  0.00  0.00    -0.293 OA
ENDROOT
BRANCH   1   5
ATOM      4  C   LIG    1        6.617   0.902   0.000  0.00  0.00    +0.040 C 
ATOM      5  C   LIG    1        7.367  -0.397   0.000  0.00  0.00    +0.169 C 
BRANCH   5   6
ATOM      6  O   LIG    1        7.628  -1.874   0.000  0.00  0.00    -0.377 OA
ATOM      7  H   LIG    1        8.607  -1.874   0.000  0.00  0.00    +0.211 HD
ENDBRANCH   5   6
ENDBRANCH   1   5
BRANCH   1   8
ATOM      8  O   LIG    1        9.617   0.902   0.000  0.00  0.00    -0.505 OA
ATOM      9  H   LIG    1       10.790   0.500   0.000  0.00  0.00    +0.292 HD
ENDBRANCH   1   8
TORSDOF 3
REMARK  Name = molecules/FKHUGQZRBPETJR-FZKCHLSLSA-N.pdb
REMARK                            x       y       z     vdW  Elec       q    Type
REMARK                         _______ _______ _______ _____ _____    ______ ____
ROOT
ATOM      1  C   LIG    1        7.367   2.201   0.000  0.00  0.00    +0.000 C 
ENDROOT
TORSDOF 0
REMARK  Name = molecules/FKHUGQZRBPETJR-FZKCHLSLSA-N.pdb
REMARK                            x       y       z     vdW  Elec       q    Type
REMARK                         _______ _______ _______ _____ _____    ______ ____
ROOT
ATOM      1  C   LIG    1        2.587  -3.004   0.000  0.00  0.00    +0.268 C 
ATOM      2  O   LIG    1        2.449  -2.219   0.000  0.00  0.00    -0.269 OA
ATOM      3  O   LIG    1        1.619  -1.856   0.000  0.00  0.00    -0.266 OA
ATOM      4  C   LIG    1        0.542  -2.046   0.000  0.00  0.00    +0.289 C 
ATOM      5  N   LIG    1       -0.423  -0.896   0.000  0.00  0.00    -0.083 NA
ATOM      6  C   LIG    1        0.029  -3.455   0.000  0.00  0.00    +0.139 C 
ATOM      7  N   LIG    1        1.438  -3.968   0.000  0.00  0.00    -0.220 NA
ENDROOT
BRANCH   1   8
ATOM      8  C   LIG    1        3.997  -3.517   0.000  0.00  0.00    +0.184 C 
ATOM      9  C   LIG    1        5.406  -4.030   0.000  0.00  0.00    +0.040 C 
BRANCH   8  11
ATOM     10  C   LIG    1        3.546  -0.958   0.000  0.00  0.00    +0.264 C 
ATOM     11  N   LIG    1        4.510  -2.107   0.000  0.00  0.00    -0.203 NA
ATOM     12  O   LIG    1        2.673  -1.112   0.000  0.00  0.00    -0.271 OA
BRANCH  10  13
ATOM     13  C   LIG    1        4.059   0.451   0.000  0.00  0.00    +0.239 C 
BRANCH  13  14
ATOM     14  O   LIG    1        5.468  -0.062   0.000  0.00  0.00    -0.379 OA
ATOM     15  H   LIG    1        5.958  -0.910   0.000  0.00  0.00    +0.211 HD
ENDBRANCH  13  14
ENDBRANCH  10  13
ENDBRANCH   8  11
ENDBRANCH   1   8
BRANCH   6  16
ATOM     16  C   LIG    1       -0.484  -4.865   0.000  0.00  0.00    +0.051 C 
ATOM     17  C   LIG    1       -0.998  -6.274   0.000  0.00  0.00    +0.006 C 
ENDBRANCH   6  16
TORSDOF 5
REMARK  Name = molecules/FKHUGQZRBPETJR-FZKCHLSLSA-N.pdb
REMARK                            x       y       z     vdW  Elec       q    Type
REMARK                         _______ _______ _______ _____ _____    ______ ____
ROOT
ATOM      1  N   LIG    1        5.958   2.714   0.000  0.00  0.00    -0.163 NA
ATOM      2  H   LIG    1        6.071   1.887   0.000  0.00  0.00    +0.163 HD
ENDROOT
TORSDOF 0
REMARK  Name = molecules/FKHUGQZRBPETJR-FZKCHLSLSA-N.pdb
REMARK                            x       y       z     vdW  Elec       q    Type
REMARK                         _______ _______ _______ _____ _____    ______ ____
ROOT
ATOM      1  C   LIG    1        8.867   2.201   0.000  0.00  0.00    +0.176 C 
ATOM      2  O   LIG    1        8.607   3.679   0.000  0.00  0.00    -0.386 OA
ATOM      3  H   LIG    1        7.628   3.679   0.000  0.00  0.00    +0.210 HD
ENDROOT
TORSDOF 0
REMARK  Name = molecules/FKHUGQZRBPETJR-FZKCHLSLSA-N.pdb
REMARK                            x       y       z     vdW  Elec       q    Type
REMARK                         _______ _______ _______ _____ _____    ______ ____
ROOT
ATOM      1  C   LIG    1        5.697   4.192   0.000  0.00  0.00    +0.185 C 
ATOM      2  O   LIG    1        6.846   5.156   0.000  0.00  0.00    -0.229 OA
ATOM      3  C   LIG    1        4.288   4.705   0.000  0.00  0.00    +0.044 C 
ENDROOT
TORSDOF 0
REMARK  Name = molecules/FKHUGQZRBPETJR-FZKCHLSLSA-N.pdb
REMARK                            x       y       z     vdW  Elec       q    Type
REMARK                         _______ _______ _______ _____ _____    ______ ____
ROOT
ATOM      1  C   LIG    1        4.572   1.861   0.000  0.00  0.00    +0.000 C 
ENDROOT
TORSDOF 0
REMARK  Name = molecules/FKHUGQZRBPETJR-FZKCHLSLSA-N.pdb
REMARK                            x       y       z     vdW  Elec       q    Type
REMARK                         _______ _______ _______ _____ _____    ______ ____
ROOT
ATOM      1  C   LIG    1       -1.510  -7.684   0.000  0.00  0.00    +0.217 C 
ATOM      2  O   LIG    1       -0.942  -8.903   0.000  0.00  0.00    -0.221 OA
ENDROOT
BRANCH   2   3
ATOM      3  O   LIG    1       -0.297  -8.565   0.000  0.00  0.00    -0.249 OA
ATOM      4  H   LIG    1        0.467  -9.416   0.000  0.00  0.00    +0.253 HD
ENDBRANCH   2   3
TORSDOF 1
REMARK  Name = molecules/FKHUGQZRBPETJR-FZKCHLSLSA-N.pdb
REMARK                            x       y       z     vdW  Elec       q    Type
REMARK                         _______ _______ _______ _____ _____    ______ ____
ROOT
ATOM      1  C   UNK    1      -15.926  -6.214   0.000  0.00  0.00    +0.000 C 
ENDROOT
BRANCH   1   2
ATOM      2  C   UNK    1      -17.336  -5.701   0.000  0.00  0.00    +0.000 C 
BRANCH   2   3
ATOM      3  C   UNK    1      -18.745  -5.188   0.000  0.00  0.00    +0.000 C 
BRANCH   3   4
ATOM      4  C   UNK    1      -20.155  -4.675   0.000  0.00  0.00    +0.000 C 
BRANCH   4   5
ATOM      5  C   UNK    1      -21.564  -4.162   0.000  0.00  0.00    -0.000 C 
BRANCH   5   6
ATOM      6  C   UNK    1      -22.974  -3.648   0.000  0.00  0.00    -0.000 C 
BRANCH   6   7
ATOM      7  C   UNK    1      -24.383  -3.135   0.000  0.00  0.00    -0.000 C 
BRANCH   7   8
ATOM      8  C   UNK    1      -25.793  -2.623   0.000  0.00  0.00    -0.000 C 
BRANCH   8   9
ATOM      9  C   UNK    1      -27.202  -2.109   0.000  0.00  0.00    -0.000 C 
BRANCH   9  10
ATOM     10  C   UNK    1      -28.612  -1.596   0.000  0.00  0.00    -0.000 C 
BRANCH  10  11
ATOM     11  C   UNK    1      -30.021  -1.083   0.000  0.00  0.00    -0.000 C 
BRANCH  11  12
ATOM     12  C   UNK    1      -31.431  -0.570   0.000  0.00  0.00    -0.000 C 
BRANCH  12  13
ATOM     13  C   UNK    1      -32.841  -0.057   0.000  0.00  0.00    -0.000 C 
BRANCH  13  14
ATOM     14  C   UNK    1      -34.250   0.456   0.000  0.00  0.00    -0.003 C 
ATOM     15  C   UNK    1      -35.660   0.969   0.000  0.00  0.00    +0.004 C 
ENDBRANCH  13  14
ENDBRANCH  12  13
ENDBRANCH  11  12
ENDBRANCH  10  11
ENDBRANCH   9  10
ENDBRANCH   8   9
ENDBRANCH   7   8
ENDBRANCH   6   7
ENDBRANCH   5   6
ENDBRANCH   4   5
ENDBRANCH   3   4
ENDBRANCH   2   3
ENDBRANCH   1   2
BRANCH   1  16
ATOM     16  C   UNK    1      -14.517  -6.727   0.000  0.00  0.00    +0.009 C 
BRANCH  16  17
ATOM     17  C   UNK    1      -13.107  -7.240   0.000  0.00  0.00    +0.097 C 
BRANCH  17  19
ATOM     18  N   UNK    1      -10.548  -6.789   0.000  0.00  0.00    -0.218 NA
ATOM     19  C   UNK    1      -11.697  -7.753   0.000  0.00  0.00    +0.232 C 
ATOM     20  O   UNK    1      -11.437  -9.230   0.000  0.00  0.00    -0.274 OA
BRANCH  18  21
ATOM     21  C   UNK    1       -9.139  -7.302   0.000  0.00  0.00    +0.131 C 
BRANCH  21  22
ATOM     22  C   UNK    1       -7.729  -7.815   0.000  0.00  0.00    +0.021 C 
BRANCH  22  23
ATOM     23  C   UNK    1       -6.320  -8.328   0.000  0.00  0.00    +0.003 C 
BRANCH  23  24
ATOM     24  C   UNK    1       -4.910  -8.841   0.000  0.00  0.00    +0.025 C 
BRANCH  24  26
ATOM     25  N   UNK    1       -2.988  -7.944   0.000  0.00  0.00    -0.137 NA
ATOM     26  C   UNK    1       -3.501  -9.354   0.000  0.00  0.00    +0.134 C 
BRANCH  26  27
ATOM     27  C   UNK    1       -2.091  -9.867   0.000  0.00  0.00    +0.195 C 
ATOM     28  O   UNK    1       -1.831 -11.344   0.000  0.00  0.00    -0.219 OA
ENDBRANCH  26  27
ENDBRANCH  24  26
ENDBRANCH  23  24
ENDBRANCH  22  23
ENDBRANCH  21  22
ENDBRANCH  18  21
ENDBRANCH  17  19
ENDBRANCH  16  17
ENDBRANCH   1  16
TORSDOF 22
REMARK  Name = molecules/FKHUGQZRBPETJR-FZKCHLSLSA-N.pdb
REMARK                            x       y       z     vdW  Elec       q    Type
REMARK                         _______ _______ _______ _____ _____    ______ ____
ROOT
ATOM      1  H   UNK    1        4.539   2.226   0.000  0.00  0.00    +0.000 HD
ENDROOT
TORSDOF 0
REMARK  Name = molecules/FKHUGQZRBPETJR-FZKCHLSLSA-N.pdb
REMARK                            x       y       z     vdW  Elec       q    Type
REMARK                         _______ _______ _______ _____ _____    ______ ____
ROOT
ATOM      1  H   UNK    1        6.370  -2.691   0.000  0.00  0.00    +0.000 HD
ENDROOT
TORSDOF 0
REMARK  Name = molecules/FKHUGQZRBPETJR-FZKCHLSLSA-N.pdb
REMARK                            x       y       z     vdW  Elec       q    Type
REMARK                         _______ _______ _______ _____ _____    ______ ____
ROOT
ATOM      1  H   UNK    1        9.756   4.643   0.000  0.00  0.00    +0.000 HD
ENDROOT
TORSDOF 0
REMARK  Name = molecules/FKHUGQZRBPETJR-FZKCHLSLSA-N.pdb
REMARK                            x       y       z     vdW  Elec       q    Type
REMARK                         _______ _______ _______ _____ _____    ______ ____
ROOT
ATOM      1  H   UNK    1        3.162   2.374   0.000  0.00  0.00    +0.000 HD
ENDROOT
TORSDOF 0
REMARK  Name = molecules/FKHUGQZRBPETJR-FZKCHLSLSA-N.pdb
REMARK                            x       y       z     vdW  Elec       q    Type
REMARK                         _______ _______ _______ _____ _____    ______ ____
ROOT
ATOM      1  H   UNK    1        5.944  -1.669   0.000  0.00  0.00    +0.000 HD
ENDROOT
TORSDOF 0
REMARK  Name = molecules/FKHUGQZRBPETJR-FZKCHLSLSA-N.pdb
REMARK                            x       y       z     vdW  Elec       q    Type
REMARK                         _______ _______ _______ _____ _____    ______ ____
ROOT
ATOM      1  H   UNK    1       12.835  -0.459   0.000  0.00  0.00    +0.000 HD
ENDROOT
TORSDOF 0
REMARK  Name = molecules/FKHUGQZRBPETJR-FZKCHLSLSA-N.pdb
REMARK                            x       y       z     vdW  Elec       q    Type
REMARK                         _______ _______ _______ _____ _____    ______ ____
ROOT
ATOM      1  H   UNK    1        1.877  -5.403   0.000  0.00  0.00    +0.000 HD
ENDROOT
TORSDOF 0
REMARK  Name = molecules/FKHUGQZRBPETJR-FZKCHLSLSA-N.pdb
REMARK                            x       y       z     vdW  Elec       q    Type
REMARK                         _______ _______ _______ _____ _____    ______ ____
ROOT
ATOM      1  H   UNK    1        0.090   0.513   0.000  0.00  0.00    +0.000 HD
ENDROOT
TORSDOF 0
REMARK  Name = molecules/FKHUGQZRBPETJR-FZKCHLSLSA-N.pdb
REMARK                            x       y       z     vdW  Elec       q    Type
REMARK                         _______ _______ _______ _____ _____    ______ ____
ROOT
ATOM      1  H   UNK    1       -1.900  -1.157   0.000  0.00  0.00    +0.000 HD
ENDROOT
TORSDOF 0
REMARK  Name = molecules/FKHUGQZRBPETJR-FZKCHLSLSA-N.pdb
REMARK                            x       y       z     vdW  Elec       q    Type
REMARK                         _______ _______ _______ _____ _____    ______ ____
ROOT
ATOM      1  H   UNK    1       -3.805  -6.686   0.000  0.00  0.00    +0.000 HD
ENDROOT
TORSDOF 0
REMARK  Name = molecules/FKHUGQZRBPETJR-FZKCHLSLSA-N.pdb
REMARK                            x       y       z     vdW  Elec       q    Type
REMARK                         _______ _______ _______ _____ _____    ______ ____
ROOT
ATOM      1  H   UNK    1      -10.809  -5.311   0.000  0.00  0.00    +0.000 HD
ENDROOT
TORSDOF 0
