REMARK  Name = molecules/FKNXQNWAXFXVNW-WBMJQRKESA-N.pdb
REMARK                            x       y       z     vdW  Elec       q    Type
REMARK                         _______ _______ _______ _____ _____    ______ ____
ROOT
ATOM      1  C   LIG    1       -0.935  -0.150  -0.138  0.00  0.00    -0.008 A 
ATOM      2  C   LIG    1       -1.284  -1.350   0.441  0.00  0.00    +0.010 A 
ATOM      3  C   LIG    1       -2.530  -1.518   1.012  0.00  0.00    +0.048 A 
ATOM      4  C   LIG    1       -3.439  -0.491   1.010  0.00  0.00    +0.141 A 
ATOM      5  C   LIG    1       -3.127   0.729   0.440  0.00  0.00    +0.091 A 
ATOM      6  N   LIG    1       -4.027   1.729   0.444  0.00  0.00    -0.319 N 
ATOM      7  H   LIG    1       -4.964   1.603   0.873  0.00  0.00    +0.169 HD
ATOM      8  C   LIG    1       -3.672   2.886  -0.121  0.00  0.00    +0.249 A 
ATOM      9  O   LIG    1       -4.494   3.856  -0.138  0.00  0.00    -0.268 OA
ATOM     10  C   LIG    1       -2.446   3.103  -0.701  0.00  0.00    +0.071 A 
ATOM     11  C   LIG    1       -1.526   2.072  -0.703  0.00  0.00    +0.016 A 
ATOM     12  C   LIG    1       -1.861   0.886  -0.135  0.00  0.00    +0.008 A 
ENDROOT
BRANCH   4  13
ATOM     13  O   LIG    1       -4.711  -0.669   1.595  0.00  0.00    -0.505 OA
ATOM     14  H   LIG    1       -4.928  -1.563   2.008  0.00  0.00    +0.292 HD
ENDBRANCH   4  13
BRANCH   1  15
ATOM     15  C   LIG    1        0.394   0.050  -0.760  0.00  0.00    +0.162 C 
BRANCH  15  16
ATOM     16  O   LIG    1        0.178   0.245  -2.121  0.00  0.00    -0.386 OA
ATOM     17  H   LIG    1       -0.727  -0.055  -2.348  0.00  0.00    +0.210 HD
ENDBRANCH  15  16
BRANCH  15  18
ATOM     18  C   LIG    1        1.315  -1.137  -0.612  0.00  0.00    +0.087 C 
BRANCH  18  19
ATOM     19  N   LIG    1        1.633  -1.489   0.713  0.00  0.00    -0.308 NA
ATOM     20  H   LIG    1        1.753  -2.513   0.852  0.00  0.00    +0.123 HD
BRANCH  19  21
ATOM     21  C   LIG    1        2.314  -0.676   1.597  0.00  0.00    +0.048 C 
ATOM     22  C   LIG    1        1.686   0.562   2.117  0.00  0.00    +0.023 C 
ATOM     23  C   LIG    1        3.750  -0.306   1.188  0.00  0.00    +0.023 C 
ENDBRANCH  19  21
ENDBRANCH  18  19
BRANCH  18  24
ATOM     24  C   LIG    1        2.479  -1.040  -1.542  0.00  0.00    +0.018 C 
ATOM     25  C   LIG    1        2.036  -1.011  -2.982  0.00  0.00    +0.005 C 
ENDBRANCH  18  24
ENDBRANCH  15  18
ENDBRANCH   1  15
TORSDOF 7
