REMARK  Name = molecules/FKRSSPOQAMALKA-CUPIEXAXSA-N.pdb
REMARK                            x       y       z     vdW  Elec       q    Type
REMARK                         _______ _______ _______ _____ _____    ______ ____
ROOT
ATOM      1  C   LIG    1        2.997  -1.215  -0.256  0.00  0.00    -0.000 A 
ATOM      2  C   LIG    1        2.637  -0.851   1.023  0.00  0.00    +0.010 A 
ATOM      3  C   LIG    1        1.351  -0.385   1.319  0.00  0.00    +0.009 A 
ATOM      4  C   LIG    1        0.400  -0.278   0.331  0.00  0.00    -0.018 A 
ATOM      5  C   LIG    1        0.756  -0.641  -0.947  0.00  0.00    +0.009 A 
ATOM      6  C   LIG    1        2.030  -1.100  -1.231  0.00  0.00    +0.010 A 
ENDROOT
BRANCH   1  10
ATOM      7  C   LIG    1        6.409  -2.354  -0.295  0.00  0.00    +0.128 A 
ATOM      8  N   LIG    1        5.308  -1.927   0.347  0.00  0.00    -0.340 N 
ATOM      9  H   LIG    1        5.151  -1.774   1.362  0.00  0.00    +0.167 HD
ATOM     10  C   LIG    1        4.340  -1.697  -0.576  0.00  0.00    +0.066 A 
ATOM     11  C   LIG    1        4.861  -1.989  -1.818  0.00  0.00    +0.139 A 
ATOM     12  N   LIG    1        6.128  -2.389  -1.617  0.00  0.00    -0.238 NA
BRANCH   7  19
ATOM     13  C   LIG    1        8.915  -0.764   1.341  0.00  0.00    +0.237 C 
ATOM     14  O   LIG    1        9.141  -0.228   2.490  0.00  0.00    -0.274 OA
ATOM     15  N   LIG    1        8.179  -1.984   1.366  0.00  0.00    -0.290 N 
ATOM     16  C   LIG    1        7.787  -2.699   2.600  0.00  0.00    +0.108 C 
ATOM     17  C   LIG    1        7.713  -4.144   2.261  0.00  0.00    +0.021 C 
ATOM     18  C   LIG    1        7.535  -4.184   0.774  0.00  0.00    +0.032 C 
ATOM     19  C   LIG    1        7.709  -2.766   0.281  0.00  0.00    +0.142 C 
BRANCH  13  20
ATOM     20  C   LIG    1        9.414  -0.101   0.133  0.00  0.00    +0.165 C 
BRANCH  20  21
ATOM     21  N   LIG    1        9.827   1.267   0.507  0.00  0.00    -0.270 N 
ATOM     22  H   LIG    1       10.333   1.425   1.387  0.00  0.00    +0.153 HD
ATOM     23  C   LIG    1        9.529   2.371  -0.334  0.00  0.00    +0.401 C 
ATOM     24  O   LIG    1        8.917   2.135  -1.395  0.00  0.00    -0.226 OA
BRANCH  23  25
ATOM     25  O   LIG    1        9.888   3.660  -0.025  0.00  0.00    -0.454 OA
ATOM     26  C   LIG    1        9.564   4.705  -0.913  0.00  0.00    +0.282 C 
ENDBRANCH  23  25
ENDBRANCH  20  21
BRANCH  20  27
ATOM     27  C   LIG    1       10.698  -0.804  -0.379  0.00  0.00    +0.012 C 
ATOM     28  C   LIG    1       11.771  -0.741   0.697  0.00  0.00    +0.009 C 
ATOM     29  C   LIG    1       11.175  -0.118  -1.639  0.00  0.00    +0.009 C 
ENDBRANCH  20  27
ENDBRANCH  13  20
ENDBRANCH   7  19
ENDBRANCH   1  10
BRANCH   4  30
ATOM     30  C   LIG    1       -0.971   0.191   0.639  0.00  0.00    -0.018 A 
ATOM     31  C   LIG    1       -1.529  -0.019   1.875  0.00  0.00    +0.009 A 
ATOM     32  C   LIG    1       -2.811   0.396   2.156  0.00  0.00    +0.010 A 
ATOM     33  C   LIG    1       -3.583   1.036   1.218  0.00  0.00    -0.000 A 
ATOM     34  C   LIG    1       -3.017   1.247  -0.030  0.00  0.00    +0.010 A 
ATOM     35  C   LIG    1       -1.726   0.831  -0.319  0.00  0.00    +0.009 A 
BRANCH  33  36
ATOM     36  C   LIG    1       -4.935   1.507   1.485  0.00  0.00    +0.066 A 
ATOM     37  C   LIG    1       -5.583   1.512   2.714  0.00  0.00    +0.139 A 
ATOM     38  N   LIG    1       -6.811   2.066   2.493  0.00  0.00    -0.238 NA
ATOM     39  C   LIG    1       -6.946   2.396   1.205  0.00  0.00    +0.128 A 
ATOM     40  N   LIG    1       -5.767   2.037   0.609  0.00  0.00    -0.340 N 
ATOM     41  H   LIG    1       -5.585   2.183  -0.408  0.00  0.00    +0.167 HD
BRANCH  39  42
ATOM     42  C   LIG    1       -8.040   3.023   0.541  0.00  0.00    +0.142 C 
ATOM     43  C   LIG    1       -9.201   3.535   1.325  0.00  0.00    +0.032 C 
ATOM     44  C   LIG    1       -9.988   4.217   0.180  0.00  0.00    +0.021 C 
ATOM     45  C   LIG    1       -9.290   3.819  -1.114  0.00  0.00    +0.108 C 
ATOM     46  N   LIG    1       -8.700   2.468  -0.596  0.00  0.00    -0.290 N 
ATOM     47  C   LIG    1       -9.062   1.305  -1.234  0.00  0.00    +0.237 C 
ATOM     48  O   LIG    1       -9.527   1.581  -2.487  0.00  0.00    -0.274 OA
BRANCH  47  49
ATOM     49  C   LIG    1       -9.104  -0.105  -0.969  0.00  0.00    +0.165 C 
BRANCH  49  50
ATOM     50  N   LIG    1       -8.651  -0.882  -2.129  0.00  0.00    -0.270 N 
ATOM     51  H   LIG    1       -7.642  -0.886  -2.330  0.00  0.00    +0.153 HD
ATOM     52  C   LIG    1       -9.549  -1.598  -2.936  0.00  0.00    +0.401 C 
ATOM     53  O   LIG    1      -10.794  -1.581  -2.673  0.00  0.00    -0.226 OA
BRANCH  52  54
ATOM     54  O   LIG    1       -9.154  -2.347  -4.035  0.00  0.00    -0.454 OA
ATOM     55  C   LIG    1      -10.135  -3.032  -4.779  0.00  0.00    +0.282 C 
ENDBRANCH  52  54
ENDBRANCH  49  50
BRANCH  49  56
ATOM     56  C   LIG    1       -8.686  -0.713   0.304  0.00  0.00    +0.012 C 
ATOM     57  C   LIG    1       -9.480  -0.179   1.450  0.00  0.00    +0.009 C 
ATOM     58  C   LIG    1       -7.231  -0.921   0.520  0.00  0.00    +0.009 C 
ENDBRANCH  49  56
ENDBRANCH  47  49
ENDBRANCH  39  42
ENDBRANCH  33  36
ENDBRANCH   4  30
TORSDOF 13
