REMARK  Name = molecules/FLKWNFFCSSJANB-UHFFFAOYSA-N.pdb
REMARK                            x       y       z     vdW  Elec       q    Type
REMARK                         _______ _______ _______ _____ _____    ______ ____
ROOT
ATOM      1  N   LIG    1       -0.583   0.440  -0.642  0.00  0.00    -0.302 NA
ATOM      2  C   LIG    1       -0.105  -0.859  -0.747  0.00  0.00    +0.086 C 
ATOM      3  C   LIG    1        1.211  -1.037  -0.079  0.00  0.00    +0.040 C 
ATOM      4  C   LIG    1        1.986   0.159   0.290  0.00  0.00    +0.095 C 
ATOM      5  C   LIG    1        1.615   1.468  -0.329  0.00  0.00    +0.040 C 
ATOM      6  C   LIG    1        0.310   1.444  -1.072  0.00  0.00    +0.086 C 
ENDROOT
BRANCH   4   7
ATOM      7  N   LIG    1        3.419  -0.106   0.092  0.00  0.00    -0.289 N 
ATOM      8  C   LIG    1        4.392  -0.183   1.031  0.00  0.00    +0.337 A 
ATOM      9  O   LIG    1        4.158  -0.026   2.277  0.00  0.00    -0.246 OA
ATOM     10  N   LIG    1        5.584  -0.439   0.472  0.00  0.00    -0.231 N 
ATOM     11  C   LIG    1        6.841  -0.590   1.091  0.00  0.00    +0.235 C 
ATOM     12  O   LIG    1        7.861  -0.840   0.351  0.00  0.00    -0.272 OA
ATOM     13  C   LIG    1        5.329  -0.522  -0.870  0.00  0.00    +0.078 A 
ATOM     14  C   LIG    1        6.163  -0.762  -1.940  0.00  0.00    +0.028 A 
ATOM     15  C   LIG    1        5.679  -0.800  -3.252  0.00  0.00    +0.002 A 
ATOM     16  C   LIG    1        4.339  -0.590  -3.444  0.00  0.00    +0.002 A 
ATOM     17  C   LIG    1        3.507  -0.352  -2.397  0.00  0.00    +0.028 A 
ATOM     18  C   LIG    1        3.981  -0.314  -1.104  0.00  0.00    +0.071 A 
BRANCH  11  19
ATOM     19  C   LIG    1        7.110  -0.486   2.522  0.00  0.00    +0.096 C 
ATOM     20  C   LIG    1        7.780   0.845   2.839  0.00  0.00    +0.014 C 
ENDBRANCH  11  19
ENDBRANCH   4   7
BRANCH   1  21
ATOM     21  C   LIG    1       -1.823   0.784  -0.134  0.00  0.00    +0.086 C 
BRANCH  21  22
ATOM     22  C   LIG    1       -2.641  -0.429   0.245  0.00  0.00    +0.046 C 
BRANCH  22  23
ATOM     23  C   LIG    1       -3.973   0.116   0.761  0.00  0.00    +0.108 C 
BRANCH  23  24
ATOM     24  C   LIG    1       -4.930  -0.960   1.092  0.00  0.00    -0.023 A 
ATOM     25  C   LIG    1       -4.647  -1.868   2.084  0.00  0.00    +0.005 A 
ATOM     26  C   LIG    1       -5.512  -2.891   2.423  0.00  0.00    +0.000 A 
ATOM     27  C   LIG    1       -6.715  -3.048   1.773  0.00  0.00    +0.000 A 
ATOM     28  C   LIG    1       -7.029  -2.155   0.774  0.00  0.00    +0.000 A 
ATOM     29  C   LIG    1       -6.145  -1.127   0.442  0.00  0.00    +0.005 A 
ENDBRANCH  23  24
BRANCH  23  30
ATOM     30  C   LIG    1       -4.516   1.048  -0.277  0.00  0.00    -0.023 A 
ATOM     31  C   LIG    1       -4.900   2.321   0.079  0.00  0.00    +0.005 A 
ATOM     32  C   LIG    1       -5.399   3.221  -0.821  0.00  0.00    +0.000 A 
ATOM     33  C   LIG    1       -5.520   2.833  -2.133  0.00  0.00    +0.000 A 
ATOM     34  C   LIG    1       -5.142   1.563  -2.517  0.00  0.00    +0.000 A 
ATOM     35  C   LIG    1       -4.644   0.674  -1.604  0.00  0.00    +0.005 A 
ENDBRANCH  23  30
BRANCH  23  36
ATOM     36  C   LIG    1       -3.629   0.946   1.926  0.00  0.00    +0.079 C 
ATOM     37  N   LIG    1       -3.340   1.589   2.851  0.00  0.00    -0.195 NA
ENDBRANCH  23  36
ENDBRANCH  22  23
ENDBRANCH  21  22
ENDBRANCH   1  21
TORSDOF 8
