REMARK  Name = molecules/FMHHVULEAZTJMA-UHFFFAOYSA-N.pdb
REMARK                            x       y       z     vdW  Elec       q    Type
REMARK                         _______ _______ _______ _____ _____    ______ ____
ROOT
ATOM      1  C   LIG    1        0.898  -2.839  -0.223  0.00  0.00    +0.051 C 
ATOM      2  C   LIG    1        0.476  -1.412  -0.243  0.00  0.00    +0.035 A 
ATOM      3  C   LIG    1        1.414  -0.399  -0.145  0.00  0.00    +0.142 A 
ATOM      4  O   LIG    1        2.723  -0.373  -0.027  0.00  0.00    -0.460 OA
ATOM      5  C   LIG    1        3.174   0.840   0.030  0.00  0.00    +0.103 A 
ATOM      6  C   LIG    1        4.593   1.312   0.163  0.00  0.00    +0.086 C 
ATOM      7  C   LIG    1        2.086   1.685  -0.057  0.00  0.00    +0.053 A 
ATOM      8  C   LIG    1        0.954   0.905  -0.169  0.00  0.00    +0.021 A 
ATOM      9  C   LIG    1       -0.399   1.165  -0.287  0.00  0.00    +0.023 A 
ATOM     10  C   LIG    1       -1.322   0.136  -0.384  0.00  0.00    +0.022 A 
ATOM     11  C   LIG    1       -2.668   0.409  -0.501  0.00  0.00    -0.033 A 
ATOM     12  C   LIG    1       -3.191   1.801  -0.530  0.00  0.00    +0.045 C 
ATOM     13  C   LIG    1       -3.515  -0.686  -0.592  0.00  0.00    +0.096 A 
ATOM     14  C   LIG    1       -3.032  -1.984  -0.565  0.00  0.00    +0.337 A 
ATOM     15  O   LIG    1       -1.754  -2.164  -0.453  0.00  0.00    -0.422 OA
ATOM     16  O   LIG    1       -3.845  -2.934  -0.651  0.00  0.00    -0.245 OA
ATOM     17  C   LIG    1       -0.878  -1.166  -0.361  0.00  0.00    +0.146 A 
ENDROOT
TORSDOF 0
