REMARK  Name = molecules/FMJSMJQBSVNSBF-IBGZPJMESA-N.pdb
REMARK                            x       y       z     vdW  Elec       q    Type
REMARK                         _______ _______ _______ _____ _____    ______ ____
ROOT
ATOM      1  C   LIG    1       -2.587   0.132   0.923  0.00  0.00    +0.014 C 
ATOM      2  C   LIG    1       -1.768   1.073   1.330  0.00  0.00    +0.144 C 
ENDROOT
BRANCH   1   3
ATOM      3  C   LIG    1       -3.774  -0.242   1.719  0.00  0.00    -0.016 A 
ATOM      4  C   LIG    1       -4.601   0.758   2.212  0.00  0.00    +0.008 A 
ATOM      5  C   LIG    1       -5.746   0.478   2.952  0.00  0.00    +0.001 A 
ATOM      6  C   LIG    1       -6.096  -0.827   3.219  0.00  0.00    +0.000 A 
ATOM      7  C   LIG    1       -5.287  -1.826   2.736  0.00  0.00    +0.001 A 
ATOM      8  C   LIG    1       -4.132  -1.530   1.990  0.00  0.00    +0.008 A 
ENDBRANCH   1   3
BRANCH   1   9
ATOM      9  C   LIG    1       -2.369  -0.482  -0.377  0.00  0.00    -0.016 A 
ATOM     10  C   LIG    1       -1.973  -1.773  -0.593  0.00  0.00    +0.008 A 
ATOM     11  C   LIG    1       -1.845  -2.302  -1.885  0.00  0.00    +0.001 A 
ATOM     12  C   LIG    1       -2.121  -1.514  -2.982  0.00  0.00    +0.000 A 
ATOM     13  C   LIG    1       -2.514  -0.228  -2.745  0.00  0.00    +0.001 A 
ATOM     14  C   LIG    1       -2.645   0.304  -1.484  0.00  0.00    +0.008 A 
ENDBRANCH   1   9
BRANCH   2  15
ATOM     15  C   LIG    1       -1.993   1.758   2.575  0.00  0.00    +0.107 C 
ATOM     16  N   LIG    1       -2.154   2.322   3.596  0.00  0.00    -0.191 NA
ENDBRANCH   2  15
BRANCH   2  17
ATOM     17  C   LIG    1       -0.607   1.430   0.544  0.00  0.00    +0.350 C 
ATOM     18  O   LIG    1        0.147   2.370   1.007  0.00  0.00    -0.244 OA
BRANCH  17  19
ATOM     19  O   LIG    1       -0.212   0.881  -0.643  0.00  0.00    -0.460 OA
BRANCH  19  20
ATOM     20  C   LIG    1        0.904   1.227  -1.386  0.00  0.00    +0.236 C 
BRANCH  20  21
ATOM     21  C   LIG    1        2.224   0.975  -0.563  0.00  0.00    +0.026 C 
BRANCH  21  22
ATOM     22  C   LIG    1        2.150  -0.469  -0.203  0.00  0.00    +0.003 C 
ATOM     23  C   LIG    1        2.138  -1.430  -1.344  0.00  0.00    +0.004 C 
ENDBRANCH  21  22
BRANCH  21  24
ATOM     24  C   LIG    1        3.288   1.396  -1.515  0.00  0.00    +0.007 C 
BRANCH  24  25
ATOM     25  C   LIG    1        4.699   1.355  -1.131  0.00  0.00    +0.000 C 
BRANCH  25  26
ATOM     26  C   LIG    1        5.314   0.043  -0.781  0.00  0.00    -0.003 C 
ATOM     27  C   LIG    1        6.823   0.250  -0.486  0.00  0.00    +0.004 C 
ENDBRANCH  25  26
ENDBRANCH  24  25
ENDBRANCH  21  24
ENDBRANCH  20  21
ENDBRANCH  19  20
ENDBRANCH  17  19
ENDBRANCH   2  17
TORSDOF 11
