REMARK  Name = molecules/FMRHJJZUHUTGKE-LBPRGKRZSA-N.pdb
REMARK                            x       y       z     vdW  Elec       q    Type
REMARK                         _______ _______ _______ _____ _____    ______ ____
ROOT
ATOM      1  C   LIG    1        2.374  -0.545   1.204  0.00  0.00    +0.343 C 
ATOM      2  O   LIG    1        2.321  -1.293   2.182  0.00  0.00    -0.245 OA
ENDROOT
BRANCH   1   3
ATOM      3  C   LIG    1        3.597  -0.209   0.514  0.00  0.00    +0.100 A 
ATOM      4  C   LIG    1        4.822  -0.700   0.895  0.00  0.00    +0.131 A 
ATOM      5  C   LIG    1        6.005  -0.356   0.204  0.00  0.00    +0.046 A 
ATOM      6  C   LIG    1        5.888   0.490  -0.867  0.00  0.00    +0.004 A 
ATOM      7  C   LIG    1        4.680   1.008  -1.284  0.00  0.00    +0.001 A 
ATOM      8  C   LIG    1        3.546   0.660  -0.599  0.00  0.00    +0.018 A 
BRANCH   4   9
ATOM      9  O   LIG    1        4.973  -1.545   1.956  0.00  0.00    -0.506 OA
ATOM     10  H   LIG    1        4.341  -1.932   2.589  0.00  0.00    +0.292 HD
ENDBRANCH   4   9
ENDBRANCH   1   3
BRANCH   1  11
ATOM     11  O   LIG    1        1.179  -0.006   0.756  0.00  0.00    -0.461 OA
BRANCH  11  12
ATOM     12  C   LIG    1       -0.050  -0.276   1.360  0.00  0.00    +0.236 C 
BRANCH  12  13
ATOM     13  C   LIG    1       -1.158   0.506   0.580  0.00  0.00    +0.026 C 
BRANCH  13  14
ATOM     14  C   LIG    1       -1.040   0.173  -0.849  0.00  0.00    +0.003 C 
ATOM     15  C   LIG    1       -1.249  -1.255  -1.228  0.00  0.00    +0.004 C 
ENDBRANCH  13  14
BRANCH  13  16
ATOM     16  C   LIG    1       -2.396   0.162   1.282  0.00  0.00    +0.007 C 
BRANCH  16  17
ATOM     17  C   LIG    1       -3.718   0.684   0.890  0.00  0.00    +0.000 C 
BRANCH  17  18
ATOM     18  C   LIG    1       -4.216   0.242  -0.426  0.00  0.00    -0.003 C 
ATOM     19  C   LIG    1       -5.611   0.816  -0.724  0.00  0.00    +0.004 C 
ENDBRANCH  17  18
ENDBRANCH  16  17
ENDBRANCH  13  16
ENDBRANCH  12  13
ENDBRANCH  11  12
ENDBRANCH   1  11
TORSDOF 9
