REMARK  Name = molecules/FMTDIUIBLCQGJB-SEYHBJAFSA-N.pdb
REMARK                            x       y       z     vdW  Elec       q    Type
REMARK                         _______ _______ _______ _____ _____    ______ ____
ROOT
ATOM      1  C   LIG    1       -2.434  -0.915   0.179  0.00  0.00    +0.129 C 
ATOM      2  C   LIG    1       -3.449   0.132   0.364  0.00  0.00    +0.127 C 
ATOM      3  C   LIG    1       -3.164   1.447   0.425  0.00  0.00    +0.121 C 
ATOM      4  C   LIG    1       -1.764   1.812   0.287  0.00  0.00    +0.211 C 
ATOM      5  O   LIG    1       -1.295   2.763   0.960  0.00  0.00    -0.288 OA
ATOM      6  C   LIG    1       -0.989   0.990  -0.678  0.00  0.00    +0.190 C 
ATOM      7  C   LIG    1        0.399   1.485  -0.685  0.00  0.00    +0.141 C 
ATOM      8  C   LIG    1        1.482   0.781  -0.488  0.00  0.00    +0.046 C 
ATOM      9  C   LIG    1        1.332  -0.658  -0.225  0.00  0.00    +0.060 C 
ATOM     10  C   LIG    1        0.022  -0.834   0.536  0.00  0.00    +0.020 C 
ATOM     11  C   LIG    1        2.451  -1.303   0.477  0.00  0.00    +0.154 C 
ATOM     12  C   LIG    1        3.756  -0.647   0.345  0.00  0.00    +0.014 A 
ATOM     13  C   LIG    1        4.882  -1.404   0.747  0.00  0.00    +0.048 A 
ATOM     14 CL   LIG    1        4.632  -3.042   1.332  0.00  0.00    -0.083 Cl
ATOM     15  C   LIG    1        6.125  -0.841   0.669  0.00  0.00    +0.024 A 
ATOM     16  C   LIG    1        6.306   0.425   0.215  0.00  0.00    +0.047 A 
ATOM     17  C   LIG    1        5.212   1.203  -0.191  0.00  0.00    +0.128 A 
ATOM     18  C   LIG    1        3.955   0.622  -0.108  0.00  0.00    +0.070 A 
ATOM     19  C   LIG    1        2.813   1.411  -0.552  0.00  0.00    +0.197 C 
ATOM     20  O   LIG    1        2.876   2.589  -0.986  0.00  0.00    -0.287 OA
ATOM     21  C   LIG    1       -1.133  -0.476  -0.410  0.00  0.00    +0.061 C 
ENDROOT
BRANCH   3  22
ATOM     22  C   LIG    1       -4.195   2.450   0.665  0.00  0.00    +0.248 C 
ATOM     23  O   LIG    1       -5.390   2.123   0.783  0.00  0.00    -0.270 OA
ATOM     24  N   LIG    1       -3.807   3.809   0.760  0.00  0.00    -0.325 N 
ATOM     25  H   LIG    1       -4.271   4.480   1.411  0.00  0.00    +0.145 HD
ATOM     26  H   LIG    1       -3.027   4.131   0.148  0.00  0.00    +0.145 HD
ENDBRANCH   3  22
BRANCH   1  28
ATOM     27  C   LIG    1       -2.088  -3.159  -0.590  0.00  0.00    +0.105 C 
ATOM     28  N   LIG    1       -3.022  -2.019  -0.558  0.00  0.00    -0.299 NA
ATOM     29  C   LIG    1       -4.251  -2.496   0.079  0.00  0.00    +0.105 C 
ENDBRANCH   1  28
BRANCH   2  30
ATOM     30  O   LIG    1       -4.830  -0.118   0.495  0.00  0.00    -0.509 OA
ATOM     31  H   LIG    1       -5.355   0.160  -0.345  0.00  0.00    +0.292 HD
ENDBRANCH   2  30
BRANCH  11  32
ATOM     32  O   LIG    1        2.212  -1.476   1.853  0.00  0.00    -0.387 OA
ATOM     33  H   LIG    1        2.034  -0.572   2.249  0.00  0.00    +0.210 HD
ENDBRANCH  11  32
BRANCH  17  34
ATOM     34  O   LIG    1        5.426   2.453  -0.635  0.00  0.00    -0.506 OA
ATOM     35  H   LIG    1        4.934   3.206  -0.968  0.00  0.00    +0.292 HD
ENDBRANCH  17  34
BRANCH   7  36
ATOM     36  O   LIG    1        0.545   2.864  -0.934  0.00  0.00    -0.507 OA
ATOM     37  H   LIG    1        0.068   3.332  -1.686  0.00  0.00    +0.292 HD
ENDBRANCH   7  36
BRANCH   6  38
ATOM     38  O   LIG    1       -1.508   1.245  -1.971  0.00  0.00    -0.373 OA
ATOM     39  H   LIG    1       -1.067   0.659  -2.634  0.00  0.00    +0.211 HD
ENDBRANCH   6  38
TORSDOF 7
