REMARK  Name = molecules/FNHKPVJBJVTLMP-UHFFFAOYSA-N.pdb
REMARK                            x       y       z     vdW  Elec       q    Type
REMARK                         _______ _______ _______ _____ _____    ______ ____
ROOT
ATOM      1  C   LIG    1       -0.585   0.893   2.574  0.00  0.00    +0.131 A 
ATOM      2  C   LIG    1        0.642   0.317   3.015  0.00  0.00    +0.048 A 
ATOM      3  C   LIG    1        1.610  -0.075   2.144  0.00  0.00    +0.030 A 
ATOM      4  C   LIG    1        1.420   0.072   0.746  0.00  0.00    +0.070 A 
ATOM      5  C   LIG    1        0.242   0.622   0.354  0.00  0.00    +0.148 A 
ATOM      6  F   LIG    1        0.057   0.797  -1.011  0.00  0.00    -0.203 F 
ATOM      7  C   LIG    1       -0.736   1.023   1.218  0.00  0.00    +0.086 A 
ENDROOT
BRANCH   4   8
ATOM      8  N   LIG    1        2.225  -0.572  -0.129  0.00  0.00    -0.267 N 
ATOM      9  H   LIG    1        3.221   0.326   0.190  0.00  0.00    +0.156 HD
ATOM     10  C   LIG    1        3.033  -1.198  -0.988  0.00  0.00    +0.308 C 
ATOM     11  O   LIG    1        4.272  -0.902  -1.280  0.00  0.00    -0.252 OA
ATOM     12  N   LIG    1        2.623  -2.383  -1.751  0.00  0.00    -0.269 N 
ATOM     13  H   LIG    1        1.709  -2.831  -1.671  0.00  0.00    +0.156 HD
BRANCH  12  14
ATOM     14  C   LIG    1        3.595  -2.931  -2.647  0.00  0.00    +0.035 A 
ATOM     15  C   LIG    1        4.097  -4.199  -2.572  0.00  0.00    +0.025 A 
ATOM     16  C   LIG    1        5.147  -4.660  -3.336  0.00  0.00    +0.022 A 
ATOM     17  C   LIG    1        5.706  -3.754  -4.227  0.00  0.00    +0.053 A 
ATOM     18  C   LIG    1        5.252  -2.478  -4.361  0.00  0.00    +0.075 A 
ATOM     19 CL   LIG    1        7.069  -4.299  -5.199  0.00  0.00    -0.083 Cl
ATOM     20  C   LIG    1        4.188  -2.048  -3.571  0.00  0.00    +0.037 A 
BRANCH  18  21
ATOM     21  C   LIG    1        5.875  -1.514  -5.282  0.00  0.00    +0.419 C 
ATOM     22  F   LIG    1        7.183  -1.186  -4.849  0.00  0.00    -0.166 F 
ATOM     23  F   LIG    1        5.177  -0.373  -5.473  0.00  0.00    -0.166 F 
ATOM     24  F   LIG    1        6.151  -2.211  -6.493  0.00  0.00    -0.166 F 
ENDBRANCH  18  21
ENDBRANCH  12  14
ENDBRANCH   4   8
BRANCH   1  25
ATOM     25  O   LIG    1       -1.493   1.260   3.485  0.00  0.00    -0.456 OA
BRANCH  25  26
ATOM     26  C   LIG    1       -2.879   1.155   3.398  0.00  0.00    +0.132 A 
ATOM     27  C   LIG    1       -3.564   0.051   3.840  0.00  0.00    +0.066 A 
ATOM     28  C   LIG    1       -4.939   0.002   3.727  0.00  0.00    +0.115 A 
ATOM     29  N   LIG    1       -5.597   1.064   3.181  0.00  0.00    -0.250 NA
ATOM     30  C   LIG    1       -5.004   2.171   2.734  0.00  0.00    +0.129 A 
ATOM     31  C   LIG    1       -3.603   2.176   2.859  0.00  0.00    +0.079 A 
BRANCH  30  32
ATOM     32  C   LIG    1       -5.656   3.369   2.251  0.00  0.00    +0.262 C 
ATOM     33  O   LIG    1       -4.965   4.468   2.146  0.00  0.00    -0.269 OA
ATOM     34  N   LIG    1       -7.032   3.500   1.864  0.00  0.00    -0.313 N 
ATOM     35  H   LIG    1       -7.700   2.773   1.883  0.00  0.00    +0.149 HD
ATOM     36  C   LIG    1       -7.422   4.867   1.443  0.00  0.00    +0.128 C 
ENDBRANCH  30  32
ENDBRANCH  25  26
ENDBRANCH   1  25
TORSDOF 6
