REMARK  Name = molecules/FNYLWPVRPXGIIP-UHFFFAOYSA-N.pdb
REMARK                            x       y       z     vdW  Elec       q    Type
REMARK                         _______ _______ _______ _____ _____    ______ ____
ROOT
ATOM      1  C   LIG    1        2.527  -1.505   0.224  0.00  0.00    +0.149 A 
ATOM      2  N   LIG    1        3.848  -1.241   0.203  0.00  0.00    -0.198 NA
ATOM      3  C   LIG    1        4.316   0.018   0.057  0.00  0.00    +0.216 A 
ATOM      4  N   LIG    1        3.466   1.053  -0.074  0.00  0.00    -0.193 NA
ATOM      5  C   LIG    1        2.144   0.852  -0.061  0.00  0.00    +0.187 A 
ATOM      6  N   LIG    1        1.275   1.894  -0.192  0.00  0.00    -0.209 NA
ATOM      7  C   LIG    1       -0.063   1.612  -0.170  0.00  0.00    +0.145 A 
ATOM      8  C   LIG    1       -0.519   0.327  -0.020  0.00  0.00    +0.111 A 
ATOM      9  N   LIG    1        0.334  -0.699   0.110  0.00  0.00    -0.237 NA
ATOM     10  C   LIG    1        1.675  -0.438   0.089  0.00  0.00    +0.148 A 
ENDROOT
BRANCH   8  11
ATOM     11  C   LIG    1       -1.959   0.076  -0.006  0.00  0.00    +0.004 A 
ATOM     12  C   LIG    1       -2.788   0.861   0.758  0.00  0.00    +0.010 A 
ATOM     13  C   LIG    1       -4.145   0.633   0.784  0.00  0.00    +0.001 A 
ATOM     14  C   LIG    1       -4.709  -0.389   0.044  0.00  0.00    +0.000 A 
ATOM     15  C   LIG    1       -3.855  -1.165  -0.716  0.00  0.00    +0.001 A 
ATOM     16  C   LIG    1       -2.500  -0.946  -0.749  0.00  0.00    +0.010 A 
ENDBRANCH   8  11
BRANCH   1  17
ATOM     17  N   LIG    1        2.014  -2.836   0.379  0.00  0.00    -0.341 N 
ATOM     18  H   LIG    1        2.301  -3.423   1.192  0.00  0.00    +0.144 HD
ATOM     19  H   LIG    1        1.348  -3.265  -0.300  0.00  0.00    +0.144 HD
ENDBRANCH   1  17
BRANCH   3  20
ATOM     20  N   LIG    1        5.698   0.299   0.035  0.00  0.00    -0.327 N 
ATOM     21  H   LIG    1        6.083   1.143   0.490  0.00  0.00    +0.145 HD
ATOM     22  H   LIG    1        6.345  -0.348  -0.444  0.00  0.00    +0.145 HD
ENDBRANCH   3  20
BRANCH   7  23
ATOM     23  N   LIG    1       -1.020   2.644  -0.306  0.00  0.00    -0.341 N 
ATOM     24  H   LIG    1       -0.903   3.571   0.145  0.00  0.00    +0.144 HD
ATOM     25  H   LIG    1       -1.869   2.467  -0.877  0.00  0.00    +0.144 HD
ENDBRANCH   7  23
TORSDOF 4
