REMARK  Name = molecules/FOIPWTMKYXWFGC-UHFFFAOYSA-N.pdb
REMARK                            x       y       z     vdW  Elec       q    Type
REMARK                         _______ _______ _______ _____ _____    ______ ____
ROOT
ATOM      1  C   LIG    1       -0.435  -0.679  -1.412  0.00  0.00    +0.227 C 
ENDROOT
BRANCH   1   2
ATOM      2  N   LIG    1       -1.567  -0.258  -0.631  0.00  0.00    -0.263 N 
ATOM      3  C   LIG    1       -2.886  -0.454  -1.204  0.00  0.00    +0.242 C 
BRANCH   2   4
ATOM      4  C   LIG    1       -1.491   0.332   0.650  0.00  0.00    +0.378 C 
ATOM      5  N   LIG    1       -1.556  -0.479   1.806  0.00  0.00    -0.289 N 
ATOM      6  H   LIG    1       -1.041  -0.162   2.665  0.00  0.00    +0.255 HD
ATOM      7  H   LIG    1       -2.074  -1.368   1.877  0.00  0.00    +0.255 HD
BRANCH   4   8
ATOM      8  N   LIG    1       -1.364   1.598   0.782  0.00  0.00    -0.130 NA
ATOM      9  H   LIG    1       -1.310   2.017   1.732  0.00  0.00    +0.306 HD
ENDBRANCH   4   8
ENDBRANCH   2   4
ENDBRANCH   1   2
BRANCH   1  10
ATOM     10  C   LIG    1        0.879  -0.424  -0.714  0.00  0.00    +0.209 C 
BRANCH  10  11
ATOM     11  O   LIG    1        1.074   0.921  -0.437  0.00  0.00    -0.284 OA
BRANCH  11  12
ATOM     12  P   LIG    1        2.591   1.035   0.345  0.00  0.00    +0.472 P 
ATOM     13  O   LIG    1        3.192   2.392   0.203  0.00  0.00    -0.228 OA
BRANCH  12  14
ATOM     14  O   LIG    1        2.448   0.586   1.972  0.00  0.00    -0.303 OA
ATOM     15  H   LIG    1        3.320   0.176   2.260  0.00  0.00    +0.222 HD
ENDBRANCH  12  14
BRANCH  12  16
ATOM     16  O   LIG    1        3.609  -0.073  -0.468  0.00  0.00    -0.303 OA
ATOM     17  H   LIG    1        4.533   0.131  -0.166  0.00  0.00    +0.222 HD
ENDBRANCH  12  16
ENDBRANCH  11  12
ENDBRANCH  10  11
ENDBRANCH   1  10
TORSDOF 8
