REMARK  Name = molecules/FOYWNSCCNCUEPU-UHFFFAOYSA-N.pdb
REMARK                            x       y       z     vdW  Elec       q    Type
REMARK                         _______ _______ _______ _____ _____    ______ ____
ROOT
ATOM      1  C   LIG    1        2.519  -1.200   0.257  0.00  0.00    +0.219 A 
ATOM      2  N   LIG    1        2.137  -2.499   0.342  0.00  0.00    -0.221 NA
ATOM      3  C   LIG    1        0.847  -2.843   0.287  0.00  0.00    +0.144 A 
ATOM      4  C   LIG    1       -0.143  -1.888   0.140  0.00  0.00    +0.114 A 
ATOM      5  N   LIG    1       -1.451  -2.185   0.071  0.00  0.00    -0.211 NA
ATOM      6  C   LIG    1       -2.434  -1.297  -0.078  0.00  0.00    +0.220 A 
ATOM      7  N   LIG    1       -2.034   0.006  -0.163  0.00  0.00    -0.197 NA
ATOM      8  C   LIG    1       -0.743   0.367  -0.100  0.00  0.00    +0.153 A 
ATOM      9  C   LIG    1        0.254  -0.568   0.055  0.00  0.00    +0.134 A 
ATOM     10  N   LIG    1        1.558  -0.272   0.116  0.00  0.00    -0.209 NA
ENDROOT
BRANCH   8  11
ATOM     11  N   LIG    1       -0.345   1.742  -0.198  0.00  0.00    -0.313 N 
ATOM     12  C   LIG    1       -0.749   2.753   0.750  0.00  0.00    +0.106 C 
ATOM     13  C   LIG    1       -1.277   4.004   0.108  0.00  0.00    +0.019 C 
ATOM     14  C   LIG    1       -0.525   4.409  -1.130  0.00  0.00    +0.003 C 
ATOM     15  C   LIG    1       -0.318   3.233  -2.042  0.00  0.00    +0.019 C 
ATOM     16  C   LIG    1        0.512   2.178  -1.304  0.00  0.00    +0.106 C 
ENDBRANCH   8  11
BRANCH   1  17
ATOM     17  N   LIG    1        3.906  -0.873   0.335  0.00  0.00    -0.295 N 
BRANCH  17  18
ATOM     18  C   LIG    1        4.625  -0.936   1.587  0.00  0.00    +0.136 C 
BRANCH  18  19
ATOM     19  C   LIG    1        5.037   0.398   2.130  0.00  0.00    +0.174 C 
BRANCH  19  20
ATOM     20  O   LIG    1        3.968   1.233   2.375  0.00  0.00    -0.393 OA
ATOM     21  H   LIG    1        4.282   1.989   2.967  0.00  0.00    +0.209 HD
ENDBRANCH  19  20
ENDBRANCH  18  19
ENDBRANCH  17  18
BRANCH  17  22
ATOM     22  C   LIG    1        4.587  -0.451  -0.859  0.00  0.00    +0.136 C 
BRANCH  22  23
ATOM     23  C   LIG    1        5.652  -1.424  -1.325  0.00  0.00    +0.174 C 
BRANCH  23  24
ATOM     24  O   LIG    1        6.260  -0.943  -2.478  0.00  0.00    -0.393 OA
ATOM     25  H   LIG    1        6.239  -1.661  -3.166  0.00  0.00    +0.209 HD
ENDBRANCH  23  24
ENDBRANCH  22  23
ENDBRANCH  17  22
ENDBRANCH   1  17
BRANCH   6  26
ATOM     26  N   LIG    1       -3.804  -1.639  -0.196  0.00  0.00    -0.295 N 
BRANCH  26  27
ATOM     27  C   LIG    1       -4.427  -2.553   0.706  0.00  0.00    +0.136 C 
BRANCH  27  28
ATOM     28  C   LIG    1       -3.569  -3.025   1.838  0.00  0.00    +0.174 C 
BRANCH  28  29
ATOM     29  O   LIG    1       -3.142  -1.940   2.636  0.00  0.00    -0.393 OA
ATOM     30  H   LIG    1       -3.969  -1.540   3.027  0.00  0.00    +0.209 HD
ENDBRANCH  28  29
ENDBRANCH  27  28
ENDBRANCH  26  27
BRANCH  26  31
ATOM     31  C   LIG    1       -4.548  -1.059  -1.273  0.00  0.00    +0.136 C 
BRANCH  31  32
ATOM     32  C   LIG    1       -5.614  -0.090  -0.890  0.00  0.00    +0.174 C 
BRANCH  32  33
ATOM     33  O   LIG    1       -6.613  -0.579  -0.086  0.00  0.00    -0.393 OA
ATOM     34  H   LIG    1       -7.070  -1.331  -0.530  0.00  0.00    +0.209 HD
ENDBRANCH  32  33
ENDBRANCH  31  32
ENDBRANCH  26  31
ENDBRANCH   6  26
TORSDOF 15
