REMARK  Name = molecules/FPCCSQOGAWCVBH-UHFFFAOYSA-N.pdb
REMARK                            x       y       z     vdW  Elec       q    Type
REMARK                         _______ _______ _______ _____ _____    ______ ____
ROOT
ATOM      1  C   LIG    1       -1.026  -0.128  -0.515  0.00  0.00    +0.106 C 
ENDROOT
BRANCH   1   2
ATOM      2  N   LIG    1        0.285  -0.771  -0.523  0.00  0.00    -0.301 NA
ATOM      3  C   LIG    1        0.617  -1.358   0.706  0.00  0.00    +0.085 C 
ATOM      4  C   LIG    1        1.997  -1.281   1.221  0.00  0.00    +0.027 C 
ATOM      5  C   LIG    1        2.915  -0.369   0.428  0.00  0.00    +0.063 C 
ATOM      6  C   LIG    1        2.615  -0.635  -1.041  0.00  0.00    +0.027 C 
ATOM      7  C   LIG    1        1.247  -0.069  -1.272  0.00  0.00    +0.085 C 
BRANCH   5   8
ATOM      8  C   LIG    1        4.329  -0.590   0.751  0.00  0.00    +0.166 C 
ATOM      9  O   LIG    1        4.592  -1.560   1.543  0.00  0.00    -0.292 OA
BRANCH   8  10
ATOM     10  C   LIG    1        5.455   0.181   0.256  0.00  0.00    +0.018 A 
ATOM     11  C   LIG    1        6.764  -0.170   0.543  0.00  0.00    +0.014 A 
ATOM     12  C   LIG    1        7.819   0.565   0.053  0.00  0.00    +0.039 A 
ATOM     13  C   LIG    1        7.589   1.671  -0.737  0.00  0.00    +0.123 A 
ATOM     14  C   LIG    1        6.311   2.029  -1.027  0.00  0.00    +0.039 A 
ATOM     15  F   LIG    1        8.643   2.379  -1.208  0.00  0.00    -0.205 F 
ATOM     16  C   LIG    1        5.236   1.288  -0.533  0.00  0.00    +0.014 A 
ENDBRANCH   8  10
ENDBRANCH   5   8
ENDBRANCH   1   2
BRANCH   1  17
ATOM     17  C   LIG    1       -2.061  -1.218  -0.396  0.00  0.00    +0.145 C 
BRANCH  17  30
ATOM     18  O   LIG    1       -3.413  -0.488   1.856  0.00  0.00    -0.267 OA
ATOM     19  C   LIG    1       -4.028  -0.329   0.772  0.00  0.00    +0.264 A 
ATOM     20  C   LIG    1       -5.305   0.191   0.816  0.00  0.00    +0.063 A 
ATOM     21  C   LIG    1       -5.945   0.548   1.977  0.00  0.00    +0.015 A 
ATOM     22  C   LIG    1       -7.222   1.068   2.002  0.00  0.00    +0.001 A 
ATOM     23  C   LIG    1       -7.862   1.226   0.790  0.00  0.00    +0.002 A 
ATOM     24  C   LIG    1       -7.242   0.874  -0.410  0.00  0.00    +0.026 A 
ATOM     25  C   LIG    1       -5.960   0.355  -0.397  0.00  0.00    +0.056 A 
ATOM     26  N   LIG    1       -5.323   0.002  -1.527  0.00  0.00    -0.307 N 
ATOM     27  C   LIG    1       -4.077  -0.502  -1.527  0.00  0.00    +0.330 A 
ATOM     28  O   LIG    1       -3.580  -0.796  -2.645  0.00  0.00    -0.246 OA
ATOM     29  H   LIG    1       -5.845   0.139  -2.419  0.00  0.00    +0.170 HD
ATOM     30  N   LIG    1       -3.407  -0.677  -0.379  0.00  0.00    -0.259 N 
ENDBRANCH  17  30
ENDBRANCH   1  17
TORSDOF 5
