REMARK  Name = molecules/FPHLBGOJWPEVME-SNVBAGLBSA-N.pdb
REMARK                            x       y       z     vdW  Elec       q    Type
REMARK                         _______ _______ _______ _____ _____    ______ ____
ROOT
ATOM      1  C   LIG    1        0.924  -1.174  -1.210  0.00  0.00    -0.034 A 
ATOM      2  C   LIG    1        1.245  -0.113  -0.369  0.00  0.00    +0.006 A 
ATOM      3  C   LIG    1        0.472   0.174   0.737  0.00  0.00    +0.023 A 
ATOM      4  C   LIG    1       -0.634  -0.599   1.017  0.00  0.00    +0.027 A 
ATOM      5  C   LIG    1       -0.976  -1.671   0.184  0.00  0.00    +0.023 A 
ATOM      6  C   LIG    1       -0.183  -1.932  -0.913  0.00  0.00    +0.006 A 
ENDROOT
BRANCH   1   8
ATOM      7  C   LIG    1        1.677  -0.333  -3.381  0.00  0.00    +0.024 C 
ATOM      8  C   LIG    1        1.730  -1.496  -2.389  0.00  0.00    +0.124 C 
BRANCH   8   9
ATOM      9  C   LIG    1        3.128  -1.843  -2.060  0.00  0.00    +0.312 C 
ATOM     10  O   LIG    1        3.480  -1.830  -0.857  0.00  0.00    -0.250 OA
BRANCH   9  11
ATOM     11  O   LIG    1        4.055  -2.179  -3.027  0.00  0.00    -0.480 OA
ATOM     12  H   LIG    1        4.987  -2.489  -2.817  0.00  0.00    +0.295 HD
ENDBRANCH   9  11
ENDBRANCH   8   9
ENDBRANCH   1   8
BRANCH   4  13
ATOM     13  N   LIG    1       -1.451  -0.324   2.142  0.00  0.00    -0.340 N 
ATOM     14  H   LIG    1       -2.118  -1.106   2.453  0.00  0.00    +0.146 HD
BRANCH  13  15
ATOM     15  C   LIG    1       -1.440   0.912   2.875  0.00  0.00    +0.131 C 
BRANCH  15  16
ATOM     16  C   LIG    1       -2.166   1.971   2.137  0.00  0.00    -0.063 C 
ATOM     17  C   LIG    1       -3.236   2.531   2.739  0.00  0.00    +0.009 C 
ATOM     18  C   LIG    1       -1.755   2.422   0.779  0.00  0.00    +0.040 C 
ENDBRANCH  15  16
ENDBRANCH  13  15
ENDBRANCH   4  13
TORSDOF 6
