REMARK  Name = molecules/FPIPGXGPPPQFEQ-OVSJKPMPSA-N.pdb
REMARK                            x       y       z     vdW  Elec       q    Type
REMARK                         _______ _______ _______ _____ _____    ______ ____
ROOT
ATOM      1  C   LIG    1       -1.642   0.077   0.842  0.00  0.00    +0.004 C 
ATOM      2  C   LIG    1       -0.609  -0.043   0.058  0.00  0.00    +0.003 C 
ENDROOT
BRANCH   1   3
ATOM      3  C   LIG    1       -3.035  -0.184   0.556  0.00  0.00    -0.043 C 
ATOM      4  C   LIG    1       -3.910   0.042   1.583  0.00  0.00    -0.069 C 
ATOM      5  C   LIG    1       -3.355   0.524   2.870  0.00  0.00    +0.039 C 
ATOM      6  C   LIG    1       -5.354  -0.166   1.439  0.00  0.00    +0.031 C 
ATOM      7  C   LIG    1       -5.724  -1.373   0.629  0.00  0.00    +0.005 C 
ATOM      8  C   LIG    1       -4.609  -1.824  -0.263  0.00  0.00    +0.011 C 
ATOM      9  C   LIG    1       -3.692  -0.658  -0.652  0.00  0.00    -0.010 C 
ATOM     10  C   LIG    1       -4.572   0.492  -1.166  0.00  0.00    +0.016 C 
ATOM     11  C   LIG    1       -2.876  -1.145  -1.794  0.00  0.00    +0.016 C 
ENDBRANCH   1   3
BRANCH   2  12
ATOM     12  C   LIG    1        0.761   0.247   0.449  0.00  0.00    -0.050 C 
ATOM     13  C   LIG    1        1.049   0.726   1.801  0.00  0.00    +0.044 C 
ATOM     14  C   LIG    1        1.728   0.087  -0.419  0.00  0.00    +0.003 C 
BRANCH  14  15
ATOM     15  C   LIG    1        3.140   0.336  -0.172  0.00  0.00    +0.001 C 
ATOM     16  C   LIG    1        4.070   0.157  -1.091  0.00  0.00    +0.003 C 
BRANCH  16  17
ATOM     17  C   LIG    1        5.487   0.392  -0.888  0.00  0.00    -0.052 C 
ATOM     18  C   LIG    1        6.097   0.862   0.371  0.00  0.00    +0.043 C 
ATOM     19  C   LIG    1        6.321   0.169  -1.913  0.00  0.00    +0.004 C 
BRANCH  19  20
ATOM     20  C   LIG    1        7.782   0.375  -1.816  0.00  0.00    +0.183 C 
BRANCH  20  21
ATOM     21  O   LIG    1        8.168   1.344  -2.771  0.00  0.00    -0.391 OA
ATOM     22  H   LIG    1        9.155   1.328  -2.873  0.00  0.00    +0.210 HD
ENDBRANCH  20  21
ENDBRANCH  19  20
ENDBRANCH  16  17
ENDBRANCH  14  15
ENDBRANCH   2  12
TORSDOF 6
