REMARK  Name = molecules/FPOHNWQLNRZRFC-ZHACJKMWSA-N.pdb
REMARK                            x       y       z     vdW  Elec       q    Type
REMARK                         _______ _______ _______ _____ _____    ______ ____
ROOT
ATOM      1  N   LIG    1       -0.464   0.145   1.000  0.00  0.00    -0.312 NA
ATOM      2  H   LIG    1       -0.241  -0.835   0.792  0.00  0.00    +0.122 HD
ENDROOT
BRANCH   1   3
ATOM      3  C   LIG    1       -1.882   0.325   0.917  0.00  0.00    +0.086 C 
BRANCH   3   4
ATOM      4  C   LIG    1       -2.453  -0.057  -0.435  0.00  0.00    +0.052 C 
BRANCH   4   5
ATOM      5  C   LIG    1       -3.923   0.170  -0.381  0.00  0.00    -0.018 A 
ATOM      6  C   LIG    1       -4.811  -0.691   0.269  0.00  0.00    +0.003 A 
ATOM      7  C   LIG    1       -4.621  -1.862   0.966  0.00  0.00    +0.010 A 
ATOM      8  C   LIG    1       -5.699  -2.516   1.514  0.00  0.00    +0.001 A 
ATOM      9  C   LIG    1       -6.951  -1.954   1.333  0.00  0.00    +0.002 A 
ATOM     10  C   LIG    1       -7.155  -0.784   0.638  0.00  0.00    +0.026 A 
ATOM     11  C   LIG    1       -6.061  -0.123   0.085  0.00  0.00    +0.047 A 
ATOM     12  N   LIG    1       -5.955   1.009  -0.629  0.00  0.00    -0.358 N 
ATOM     13  H   LIG    1       -6.719   1.650  -0.924  0.00  0.00    +0.166 HD
ATOM     14  C   LIG    1       -4.659   1.204  -0.923  0.00  0.00    +0.017 A 
ATOM     15  C   LIG    1       -4.057   2.323  -1.693  0.00  0.00    +0.063 C 
ENDBRANCH   4   5
ENDBRANCH   3   4
ENDBRANCH   1   3
BRANCH   1  16
ATOM     16  C   LIG    1        0.252   1.071   0.162  0.00  0.00    +0.116 C 
BRANCH  16  17
ATOM     17  C   LIG    1        1.721   0.882   0.249  0.00  0.00    -0.034 A 
ATOM     18  C   LIG    1        2.530   1.579   1.117  0.00  0.00    +0.005 A 
ATOM     19  C   LIG    1        3.888   1.389   1.178  0.00  0.00    +0.008 A 
ATOM     20  C   LIG    1        4.526   0.468   0.354  0.00  0.00    -0.025 A 
ATOM     21  C   LIG    1        3.730  -0.234  -0.518  0.00  0.00    +0.008 A 
ATOM     22  C   LIG    1        2.349  -0.031  -0.570  0.00  0.00    +0.005 A 
BRANCH  20  23
ATOM     23  C   LIG    1        5.971   0.312   0.463  0.00  0.00    +0.013 C 
ATOM     24  C   LIG    1        6.651  -0.529  -0.274  0.00  0.00    +0.070 C 
BRANCH  24  25
ATOM     25  C   LIG    1        8.121  -0.631  -0.103  0.00  0.00    +0.259 C 
ATOM     26  O   LIG    1        8.717   0.080   0.740  0.00  0.00    -0.269 OA
ATOM     27  N   LIG    1        8.855  -1.535  -0.895  0.00  0.00    -0.194 N 
ATOM     28  H   LIG    1        8.365  -2.144  -1.613  0.00  0.00    +0.183 HD
BRANCH  27  29
ATOM     29  O   LIG    1       10.193  -1.689  -0.803  0.00  0.00    -0.295 OA
ATOM     30  H   LIG    1       10.456  -2.595  -0.480  0.00  0.00    +0.241 HD
ENDBRANCH  27  29
ENDBRANCH  24  25
ENDBRANCH  20  23
ENDBRANCH  16  17
ENDBRANCH   1  16
TORSDOF 8
