REMARK  Name = molecules/FPTOUQZVCUIPHY-UHFFFAOYSA-N.pdb
REMARK                            x       y       z     vdW  Elec       q    Type
REMARK                         _______ _______ _______ _____ _____    ______ ____
ROOT
ATOM      1  C   LIG    1        0.173   1.404  -0.125  0.00  0.00    +0.216 C 
ENDROOT
BRANCH   1   2
ATOM      2  C   LIG    1       -0.645   1.992   0.971  0.00  0.00    -0.001 A 
ATOM      3  C   LIG    1       -0.373   1.861   2.311  0.00  0.00    +0.007 A 
ATOM      4  C   LIG    1       -1.199   2.445   3.268  0.00  0.00    +0.000 A 
ATOM      5  C   LIG    1       -2.311   3.170   2.905  0.00  0.00    +0.000 A 
ATOM      6  C   LIG    1       -2.588   3.303   1.562  0.00  0.00    +0.000 A 
ATOM      7  C   LIG    1       -1.756   2.716   0.621  0.00  0.00    +0.007 A 
ENDBRANCH   1   2
BRANCH   1   8
ATOM      8  C   LIG    1        0.599   2.583  -0.972  0.00  0.00    -0.001 A 
ATOM      9  C   LIG    1        1.302   3.620  -0.410  0.00  0.00    +0.007 A 
ATOM     10  C   LIG    1        1.711   4.719  -1.140  0.00  0.00    +0.000 A 
ATOM     11  C   LIG    1        1.404   4.785  -2.486  0.00  0.00    +0.000 A 
ATOM     12  C   LIG    1        0.703   3.752  -3.050  0.00  0.00    +0.000 A 
ATOM     13  C   LIG    1        0.296   2.651  -2.306  0.00  0.00    +0.007 A 
ENDBRANCH   1   8
BRANCH   1  14
ATOM     14  C   LIG    1        1.420   0.812   0.358  0.00  0.00    +0.349 C 
ATOM     15  O   LIG    1        2.237   1.420   1.107  0.00  0.00    -0.247 OA
BRANCH  14  16
ATOM     16  O   LIG    1        1.774  -0.473   0.005  0.00  0.00    -0.461 OA
BRANCH  16  17
ATOM     17  C   LIG    1        2.974  -1.113   0.434  0.00  0.00    +0.247 C 
BRANCH  17  18
ATOM     18  C   LIG    1        2.978  -2.488  -0.177  0.00  0.00    +0.125 C 
BRANCH  18  19
ATOM     19  N   LIG    1        4.111  -3.276   0.147  0.00  0.00    -0.305 NA
ATOM     20  C   LIG    1        4.226  -3.696   1.502  0.00  0.00    +0.104 C 
ATOM     21  C   LIG    1        4.424  -4.303  -0.797  0.00  0.00    +0.104 C 
ENDBRANCH  18  19
ENDBRANCH  17  18
ENDBRANCH  16  17
ENDBRANCH  14  16
ENDBRANCH   1  14
BRANCH   1  22
ATOM     22  O   LIG    1       -0.659   0.571  -0.844  0.00  0.00    -0.353 OA
BRANCH  22  23
ATOM     23  C   LIG    1       -1.137  -0.439  -0.067  0.00  0.00    +0.165 C 
BRANCH  23  24
ATOM     24  C   LIG    1       -2.066  -1.376  -0.822  0.00  0.00    +0.014 C 
BRANCH  24  25
ATOM     25  C   LIG    1       -2.518  -2.438   0.152  0.00  0.00    +0.002 C 
ATOM     26  C   LIG    1       -3.446  -3.443  -0.446  0.00  0.00    +0.004 C 
ENDBRANCH  24  25
BRANCH  24  27
ATOM     27  C   LIG    1       -3.265  -0.686  -1.382  0.00  0.00    +0.002 C 
ATOM     28  C   LIG    1       -4.140  -0.026  -0.372  0.00  0.00    +0.004 C 
ENDBRANCH  24  27
ENDBRANCH  23  24
ENDBRANCH  22  23
ENDBRANCH   1  22
TORSDOF 12
