REMARK  Name = molecules/FPVKHBSQESCIEP-JQCXWYLXSA-N.pdb
REMARK                            x       y       z     vdW  Elec       q    Type
REMARK                         _______ _______ _______ _____ _____    ______ ____
ROOT
ATOM      1  C   LIG    1        3.937   0.303  -0.189  0.00  0.00    +0.187 C 
ATOM      2  C   LIG    1        2.518   0.535   0.155  0.00  0.00    +0.111 A 
ATOM      3  N   LIG    1        1.965   1.709   0.520  0.00  0.00    -0.236 NA
ATOM      4  C   LIG    1        0.649   1.511   0.751  0.00  0.00    +0.203 A 
ATOM      5  N   LIG    1        0.351   0.217   0.536  0.00  0.00    -0.291 N 
ATOM      6  C   LIG    1        1.502  -0.399   0.166  0.00  0.00    +0.131 A 
ATOM      7  N   LIG    1        1.607  -1.788  -0.153  0.00  0.00    -0.290 N 
ATOM      8  H   LIG    1        0.753  -2.342  -0.004  0.00  0.00    +0.154 HD
ATOM      9  C   LIG    1        2.755  -2.490  -0.650  0.00  0.00    +0.181 C 
ATOM     10  N   LIG    1        3.778  -1.912  -1.199  0.00  0.00    -0.273 NA
ATOM     11  C   LIG    1        4.056  -0.512  -1.457  0.00  0.00    +0.180 C 
ENDROOT
BRANCH   5  12
ATOM     12  C1* LIG    1       -0.931  -0.455   0.658  0.00  0.00    +0.224 C 
ATOM     13  C2* LIG    1       -1.765   0.278   1.668  0.00  0.00    +0.088 C 
ATOM     14  C3* LIG    1       -2.859   0.872   0.772  0.00  0.00    +0.150 C 
ATOM     15  C4* LIG    1       -2.961  -0.243  -0.269  0.00  0.00    +0.175 C 
ATOM     16  O4* LIG    1       -1.624  -0.494  -0.530  0.00  0.00    -0.348 OA
BRANCH  14  17
ATOM     17  O3* LIG    1       -4.034   1.077   1.447  0.00  0.00    -0.389 OA
ATOM     18  H3* LIG    1       -4.269   2.053   1.336  0.00  0.00    +0.210 HD
ENDBRANCH  14  17
BRANCH  15  19
ATOM     19  C5* LIG    1       -3.591   0.264  -1.544  0.00  0.00    +0.190 C 
BRANCH  19  20
ATOM     20  O5* LIG    1       -4.946   0.545  -1.377  0.00  0.00    -0.392 OA
ATOM     21  H5* LIG    1       -5.355   0.036  -0.645  0.00  0.00    +0.210 HD
ENDBRANCH  19  20
ENDBRANCH  15  19
ENDBRANCH   5  12
BRANCH   1  22
ATOM     22  O   LIG    1        4.660   1.474  -0.229  0.00  0.00    -0.384 OA
ATOM     23  H   LIG    1        5.225   1.627   0.580  0.00  0.00    +0.210 HD
ENDBRANCH   1  22
TORSDOF 5
