REMARK  Name = molecules/FQQIIPAOSKSOJM-UHFFFAOYSA-N.pdb
REMARK                            x       y       z     vdW  Elec       q    Type
REMARK                         _______ _______ _______ _____ _____    ______ ____
ROOT
ATOM      1  N   LIG    1        0.241   0.661  -0.744  0.00  0.00    -0.339 N 
ATOM      2  C   LIG    1        0.024   1.826  -0.088  0.00  0.00    +0.050 A 
ATOM      3  C   LIG    1       -1.171   1.651   0.588  0.00  0.00    +0.005 A 
ATOM      4  C   LIG    1       -1.658   2.680   1.350  0.00  0.00    +0.010 A 
ATOM      5  C   LIG    1       -0.951   3.865   1.428  0.00  0.00    +0.001 A 
ATOM      6  C   LIG    1        0.234   4.017   0.748  0.00  0.00    +0.002 A 
ATOM      7  C   LIG    1       -1.682   0.381   0.344  0.00  0.00    -0.005 A 
ATOM      8  C   LIG    1       -2.881  -0.328   0.784  0.00  0.00    +0.121 C 
ATOM      9  N   LIG    1       -3.343  -1.345  -0.091  0.00  0.00    -0.301 NA
ATOM     10  C   LIG    1       -3.777  -2.554   0.566  0.00  0.00    +0.105 C 
ATOM     11  C   LIG    1       -2.546  -1.626  -1.231  0.00  0.00    +0.090 C 
ATOM     12  C   LIG    1       -1.041  -1.584  -0.939  0.00  0.00    +0.069 C 
ATOM     13  C   LIG    1        0.760   2.990  -0.038  0.00  0.00    +0.026 A 
ATOM     14  C   LIG    1       -0.758  -0.198  -0.497  0.00  0.00    +0.026 A 
ENDROOT
BRANCH   1  15
ATOM     15  C   LIG    1        1.380   0.372  -1.597  0.00  0.00    +0.157 C 
BRANCH  15  16
ATOM     16  C   LIG    1        2.499  -0.264  -0.806  0.00  0.00    -0.028 A 
ATOM     17  C   LIG    1        3.496   0.489  -0.227  0.00  0.00    +0.005 A 
ATOM     18  C   LIG    1        4.534  -0.066   0.505  0.00  0.00    +0.000 A 
ATOM     19  C   LIG    1        4.551  -1.434   0.649  0.00  0.00    +0.000 A 
ATOM     20  C   LIG    1        3.566  -2.210   0.079  0.00  0.00    +0.000 A 
ATOM     21  C   LIG    1        2.551  -1.629  -0.641  0.00  0.00    +0.005 A 
ENDBRANCH  15  16
ENDBRANCH   1  15
TORSDOF 2
