REMARK  Name = molecules/FRIZVHMAECRUBR-KIWWSDKQSA-N.pdb
REMARK                            x       y       z     vdW  Elec       q    Type
REMARK                         _______ _______ _______ _____ _____    ______ ____
ROOT
ATOM      1  C   LIG    1        1.252   1.502  -0.344  0.00  0.00    +0.170 A 
ATOM      2  C   LIG    1        0.155   0.630  -0.223  0.00  0.00    +0.075 A 
ATOM      3  C   LIG    1        0.423  -0.796  -0.159  0.00  0.00    +0.163 C 
ATOM      4  N   LIG    1       -0.644  -1.687   0.111  0.00  0.00    -0.295 N 
ATOM      5  C   LIG    1       -0.269  -2.979   0.743  0.00  0.00    +0.132 C 
ATOM      6  C   LIG    1       -2.027  -1.541  -0.137  0.00  0.00    +0.250 C 
ATOM      7  C   LIG    1       -2.759  -0.282  -0.076  0.00  0.00    +0.074 A 
ATOM      8  C   LIG    1       -4.116  -0.506   0.026  0.00  0.00    +0.027 A 
ATOM      9  C   LIG    1       -4.987   0.557   0.106  0.00  0.00    +0.015 A 
ATOM     10  C   LIG    1       -4.513   1.852   0.087  0.00  0.00    +0.003 A 
ATOM     11  C   LIG    1       -3.142   2.092  -0.016  0.00  0.00    +0.027 A 
ATOM     12  I   LIG    1       -4.830  -2.499   0.055  0.00  0.00    -0.043 I 
ATOM     13  C   LIG    1       -2.277   1.026  -0.097  0.00  0.00    +0.061 A 
ATOM     14  O   LIG    1       -2.658  -2.594  -0.433  0.00  0.00    -0.270 OA
ATOM     15  N   LIG    1       -0.919   1.446  -0.203  0.00  0.00    -0.300 N 
ATOM     16  C   LIG    1       -0.541   2.721  -0.302  0.00  0.00    +0.205 A 
ATOM     17  N   LIG    1        0.818   2.759  -0.390  0.00  0.00    -0.228 NA
ENDROOT
BRANCH   1  18
ATOM     18  C   LIG    1        2.673   1.103  -0.415  0.00  0.00    +0.360 C 
ATOM     19  O   LIG    1        3.569   1.972  -0.518  0.00  0.00    -0.243 OA
BRANCH  18  20
ATOM     20  O   LIG    1        3.078  -0.218  -0.372  0.00  0.00    -0.460 OA
BRANCH  20  21
ATOM     21  C   LIG    1        4.423  -0.636  -0.438  0.00  0.00    +0.229 C 
ATOM     22  C   LIG    1        5.204  -0.043   0.721  0.00  0.00    +0.048 C 
ENDBRANCH  20  21
ENDBRANCH  18  20
ENDBRANCH   1  18
TORSDOF 3
