REMARK  Name = molecules/FRPJXPJMRWBBIH-RBRWEJTLSA-N.pdb
REMARK                            x       y       z     vdW  Elec       q    Type
REMARK                         _______ _______ _______ _____ _____    ______ ____
ROOT
ATOM      1  C   LIG    1       -3.840  -1.685  -0.829  0.00  0.00    +0.014 C 
ATOM      2  C   LIG    1       -4.341  -0.284  -0.710  0.00  0.00    -0.003 C 
ATOM      3  C   LIG    1       -4.041   0.322   0.668  0.00  0.00    +0.001 C 
ATOM      4  C   LIG    1       -4.911  -0.490   1.551  0.00  0.00    +0.007 C 
ATOM      5  C   LIG    1       -6.136  -0.824   0.701  0.00  0.00    +0.032 C 
ATOM      6  C   LIG    1       -2.583   0.208   0.891  0.00  0.00    +0.000 C 
ATOM      7  C   LIG    1       -2.108   0.565   2.258  0.00  0.00    +0.009 C 
ATOM      8  C   LIG    1       -0.707   0.015   2.420  0.00  0.00    +0.036 C 
ATOM      9  C   LIG    1        0.099   0.482   1.263  0.00  0.00    -0.040 A 
ATOM     10  C   LIG    1        1.485   0.358   1.398  0.00  0.00    +0.050 A 
ATOM     11  C   LIG    1        2.323   0.762   0.383  0.00  0.00    +0.134 A 
ATOM     12  C   LIG    1        1.787   1.288  -0.768  0.00  0.00    +0.047 A 
ATOM     13  C   LIG    1        0.410   1.406  -0.889  0.00  0.00    +0.008 A 
ATOM     14  C   LIG    1       -0.448   1.008   0.114  0.00  0.00    -0.041 A 
ATOM     15  C   LIG    1       -1.894   1.164  -0.089  0.00  0.00    +0.023 C 
ATOM     16  C   LIG    1       -2.304   0.934  -1.500  0.00  0.00    +0.009 C 
ATOM     17  C   LIG    1       -5.832  -0.281  -0.691  0.00  0.00    +0.121 C 
ATOM     18  C   LIG    1       -3.741   0.656  -1.720  0.00  0.00    +0.010 C 
ENDROOT
BRANCH  17  19
ATOM     19  O   LIG    1       -6.293  -1.114  -1.688  0.00  0.00    -0.391 OA
ATOM     20  H   LIG    1       -7.121  -0.819  -2.118  0.00  0.00    +0.210 HD
ENDBRANCH  17  19
BRANCH  11  21
ATOM     21  O   LIG    1        3.725   0.649   0.492  0.00  0.00    -0.411 OA
BRANCH  21  22
ATOM     22  C   LIG    1        4.405  -0.462   0.091  0.00  0.00    +0.408 C 
ATOM     23  N   LIG    1        5.870  -0.480   0.248  0.00  0.00    -0.265 N 
ATOM     24  O   LIG    1        3.795  -1.435  -0.397  0.00  0.00    -0.226 OA
BRANCH  23  25
ATOM     25  C   LIG    1        6.430   0.692   0.815  0.00  0.00    +0.127 C 
BRANCH  25  26
ATOM     26  C   LIG    1        6.718   1.890   0.037  0.00  0.00    +0.127 C 
ATOM     27 CL   LIG    1        7.901   1.853  -1.238  0.00  0.00    -0.124 Cl
ENDBRANCH  25  26
ENDBRANCH  23  25
BRANCH  23  28
ATOM     28  C   LIG    1        6.523  -1.730   0.023  0.00  0.00    +0.127 C 
BRANCH  28  29
ATOM     29  C   LIG    1        6.856  -2.180  -1.335  0.00  0.00    +0.127 C 
ATOM     30 CL   LIG    1        8.005  -1.225  -2.229  0.00  0.00    -0.124 Cl
ENDBRANCH  28  29
ENDBRANCH  23  28
ENDBRANCH  21  22
ENDBRANCH  11  21
TORSDOF 7
