REMARK  Name = molecules/FRQGJOFRWIILCX-UHFFFAOYSA-N.pdb
REMARK                            x       y       z     vdW  Elec       q    Type
REMARK                         _______ _______ _______ _____ _____    ______ ____
ROOT
ATOM      1  C   LIG    1        0.643  -0.038   0.212  0.00  0.00    -0.006 C 
ATOM      2  C   LIG    1       -0.356  -0.926   0.300  0.00  0.00    -0.018 C 
ENDROOT
BRANCH   1   3
ATOM      3  C   LIG    1        1.941  -0.415   0.783  0.00  0.00    -0.017 A 
ATOM      4  C   LIG    1        2.478   0.245   1.827  0.00  0.00    +0.012 A 
ATOM      5  C   LIG    1        3.744  -0.094   2.330  0.00  0.00    +0.046 A 
ATOM      6  C   LIG    1        4.428  -1.110   1.742  0.00  0.00    +0.120 A 
ATOM      7  C   LIG    1        3.893  -1.792   0.678  0.00  0.00    +0.046 A 
ATOM      8  C   LIG    1        2.668  -1.459   0.195  0.00  0.00    +0.012 A 
BRANCH   6   9
ATOM      9  O   LIG    1        5.675  -1.462   2.220  0.00  0.00    -0.495 OA
ATOM     10  C   LIG    1        6.483  -2.494   1.707  0.00  0.00    +0.277 C 
ENDBRANCH   6   9
ENDBRANCH   1   3
BRANCH   2  11
ATOM     11  C   LIG    1       -1.632  -0.620  -0.335  0.00  0.00    -0.020 A 
ATOM     12  C   LIG    1       -2.237   0.601  -0.165  0.00  0.00    +0.012 A 
ATOM     13  C   LIG    1       -3.471   0.873  -0.756  0.00  0.00    +0.046 A 
ATOM     14  C   LIG    1       -4.125  -0.089  -1.537  0.00  0.00    +0.120 A 
ATOM     15  C   LIG    1       -3.513  -1.305  -1.701  0.00  0.00    +0.046 A 
ATOM     16  C   LIG    1       -2.293  -1.576  -1.118  0.00  0.00    +0.012 A 
BRANCH  14  17
ATOM     17  O   LIG    1       -5.363   0.212  -2.120  0.00  0.00    -0.495 OA
ATOM     18  C   LIG    1       -5.921   1.490  -1.899  0.00  0.00    +0.277 C 
ENDBRANCH  14  17
ENDBRANCH   2  11
BRANCH   1  19
ATOM     19  C   LIG    1        0.510   1.195  -0.512  0.00  0.00    -0.017 A 
ATOM     20  C   LIG    1        0.821   2.414  -0.036  0.00  0.00    +0.012 A 
ATOM     21  C   LIG    1        0.632   3.565  -0.803  0.00  0.00    +0.046 A 
ATOM     22  C   LIG    1        0.114   3.494  -2.090  0.00  0.00    +0.120 A 
ATOM     23  C   LIG    1       -0.205   2.257  -2.586  0.00  0.00    +0.046 A 
ATOM     24  C   LIG    1       -0.009   1.138  -1.810  0.00  0.00    +0.012 A 
BRANCH  22  25
ATOM     25  O   LIG    1       -0.073   4.628  -2.844  0.00  0.00    -0.495 OA
ATOM     26  C   LIG    1       -0.588   4.616  -4.139  0.00  0.00    +0.277 C 
ENDBRANCH  22  25
ENDBRANCH   1  19
BRANCH   2  27
ATOM     27  C   LIG    1       -0.131  -2.156   1.061  0.00  0.00    +0.120 C 
BRANCH  27  28
ATOM     28  N   LIG    1       -1.083  -2.296   2.167  0.00  0.00    -0.304 NA
ATOM     29  C   LIG    1       -0.856  -1.274   3.169  0.00  0.00    +0.104 C 
ATOM     30  C   LIG    1       -0.747  -3.573   2.805  0.00  0.00    +0.104 C 
ENDBRANCH  27  28
ENDBRANCH   2  27
TORSDOF 8
