REMARK  Name = molecules/FSIRXIHZBIXHKT-NHYWBVRUSA-N.pdb
REMARK                            x       y       z     vdW  Elec       q    Type
REMARK                         _______ _______ _______ _____ _____    ______ ____
ROOT
ATOM      1  C   UNK A  0        0.373   0.100   0.921  0.00  0.00    -0.044 A 
ATOM      2  C   UNK A  0       -0.212   1.226   1.431  0.00  0.00    +0.004 A 
ATOM      3  C   UNK A  0       -1.576   1.414   1.327  0.00  0.00    +0.013 A 
ATOM      4  C   UNK A  0       -2.416   0.489   0.713  0.00  0.00    +0.037 A 
ATOM      5  C   UNK A  0       -1.806  -0.638   0.206  0.00  0.00    +0.013 A 
ATOM      6  C   UNK A  0       -0.433  -0.834   0.306  0.00  0.00    +0.004 A 
ENDROOT
BRANCH   4   7
ATOM      7  C   UNK A  0       -3.849   0.707   0.611  0.00  0.00    +0.245 C 
ATOM      8  O   UNK A  0       -4.314   1.797   1.006  0.00  0.00    -0.270 OA
ATOM      9  N   GLU A  1       -4.685  -0.286   0.082  0.00  0.00    -0.298 N 
ATOM     10  H   GLU A  1       -4.410  -1.222  -0.272  0.00  0.00    +0.150 HD
BRANCH   9  11
ATOM     11  CA  GLU A  1       -6.133  -0.003   0.005  0.00  0.00    +0.182 C 
BRANCH  11  12
ATOM     12  C   GLU A  1       -6.851  -0.981   0.878  0.00  0.00    +0.325 C 
ATOM     13  OXT GLU A  1       -6.153  -1.867   1.440  0.00  0.00    -0.249 OA
BRANCH  12  14
ATOM     14  O   GLU A  1       -8.207  -0.987   1.117  0.00  0.00    -0.479 OA
ATOM     15  H   GLU A  1       -8.682  -1.835   1.321  0.00  0.00    +0.295 HD
ENDBRANCH  12  14
ENDBRANCH  11  12
BRANCH  11  16
ATOM     16  CB  GLU A  1       -6.489  -0.292  -1.429  0.00  0.00    +0.045 C 
BRANCH  16  17
ATOM     17  CG  GLU A  1       -7.932  -0.042  -1.688  0.00  0.00    +0.123 C 
BRANCH  17  18
ATOM     18  CD  GLU A  1       -8.281   1.357  -1.426  0.00  0.00    +0.305 C 
ATOM     19  OE1 GLU A  1       -9.512   1.661  -1.485  0.00  0.00    -0.251 OA
BRANCH  18  20
ATOM     20  OE2 GLU A  1       -7.399   2.378  -1.121  0.00  0.00    -0.481 OA
ATOM     21  HE2 GLU A  1       -7.612   3.139  -0.501  0.00  0.00    +0.295 HD
ENDBRANCH  18  20
ENDBRANCH  17  18
ENDBRANCH  16  17
ENDBRANCH  11  16
ENDBRANCH   9  11
ENDBRANCH   4   7
BRANCH   1  22
ATOM     22  C   UNK A  0        1.850  -0.181   0.987  0.00  0.00    +0.025 C 
BRANCH  22  23
ATOM     23  C   UNK A  0        2.139  -1.349   1.842  0.00  0.00    +0.005 C 
ATOM     24  C   UNK A  0        3.571  -1.667   2.100  0.00  0.00    +0.004 C 
ENDBRANCH  22  23
BRANCH  22  25
ATOM     25  C   UNK A  0        2.326  -0.233  -0.413  0.00  0.00    +0.065 C 
BRANCH  25  29
ATOM     26  C   UNK A  0        6.761   1.631  -0.753  0.00  0.00    +0.149 A 
ATOM     27  C   UNK A  0        5.919   0.523  -0.800  0.00  0.00    +0.148 A 
ATOM     28  N   UNK A  0        4.611   0.679  -0.560  0.00  0.00    -0.243 NA
ATOM     29  C   UNK A  0        3.771  -0.386  -0.601  0.00  0.00    +0.061 A 
ATOM     30  C   UNK A  0        4.295  -1.639  -0.896  0.00  0.00    +0.136 A 
ATOM     31  N   UNK A  0        5.595  -1.817  -1.139  0.00  0.00    -0.232 NA
ATOM     32  C   UNK A  0        6.416  -0.747  -1.093  0.00  0.00    +0.185 A 
ATOM     33  N   UNK A  0        7.733  -0.842  -1.325  0.00  0.00    -0.193 NA
ATOM     34  C   UNK A  0        8.564   0.212  -1.285  0.00  0.00    +0.216 A 
ATOM     35  N   UNK A  0        8.062   1.421  -1.001  0.00  0.00    -0.198 NA
BRANCH  26  36
ATOM     36  N   UNK A  0        6.234   2.911  -0.453  0.00  0.00    -0.341 N 
ATOM     37  H   UNK A  0        6.333   3.276   0.513  0.00  0.00    +0.144 HD
ATOM     38  H   UNK A  0        5.754   3.497  -1.162  0.00  0.00    +0.144 HD
ENDBRANCH  26  36
BRANCH  34  39
ATOM     39  N   UNK A  0        9.949   0.078  -1.534  0.00  0.00    -0.327 N 
ATOM     40  H   UNK A  0       10.623   0.510  -0.882  0.00  0.00    +0.145 HD
ATOM     41  H   UNK A  0       10.275  -0.443  -2.354  0.00  0.00    +0.145 HD
ENDBRANCH  34  39
ENDBRANCH  25  29
ENDBRANCH  22  25
ENDBRANCH   1  22
TORSDOF 14
