REMARK  Name = molecules/FSKFPVLPFLJRQB-AWEZNQCLSA-N.pdb
REMARK                            x       y       z     vdW  Elec       q    Type
REMARK                         _______ _______ _______ _____ _____    ______ ____
ROOT
ATOM      1  C   LIG    1        1.078   1.611  -1.204  0.00  0.00    +0.167 C 
ATOM      2  O   LIG    1        1.276   2.330  -2.212  0.00  0.00    -0.292 OA
ENDROOT
BRANCH   1   3
ATOM      3  C   LIG    1        2.273   1.034  -0.560  0.00  0.00    +0.018 A 
ATOM      4  C   LIG    1        2.206   0.332   0.619  0.00  0.00    +0.011 A 
ATOM      5  C   LIG    1        3.306  -0.237   1.232  0.00  0.00    +0.004 A 
ATOM      6  C   LIG    1        4.524  -0.077   0.610  0.00  0.00    -0.050 A 
ATOM      7  C   LIG    1        5.748  -0.650   1.192  0.00  0.00    +0.044 C 
ATOM      8  C   LIG    1        4.621   0.625  -0.578  0.00  0.00    +0.004 A 
ATOM      9  C   LIG    1        3.515   1.179  -1.165  0.00  0.00    +0.011 A 
ENDBRANCH   1   3
BRANCH   1  10
ATOM     10  C   LIG    1       -0.300   1.386  -0.739  0.00  0.00    +0.071 C 
ATOM     11  C   LIG    1       -1.202   2.374  -1.433  0.00  0.00    +0.017 C 
BRANCH  10  12
ATOM     12  C   LIG    1       -0.713  -0.035  -0.965  0.00  0.00    +0.095 C 
BRANCH  12  13
ATOM     13  N   LIG    1       -2.021  -0.357  -0.543  0.00  0.00    -0.302 NA
ATOM     14  C   LIG    1       -2.224  -0.349   0.846  0.00  0.00    +0.084 C 
ATOM     15  C   LIG    1       -3.572  -0.709   1.352  0.00  0.00    +0.015 C 
ATOM     16  C   LIG    1       -4.492  -1.346   0.369  0.00  0.00    +0.002 C 
ATOM     17  C   LIG    1       -3.599  -2.155  -0.585  0.00  0.00    +0.015 C 
ATOM     18  C   LIG    1       -2.851  -1.109  -1.383  0.00  0.00    +0.084 C 
ENDBRANCH  12  13
ENDBRANCH  10  12
ENDBRANCH   1  10
TORSDOF 4
