REMARK  Name = molecules/FSQKKOOTNAMONP-UHFFFAOYSA-N.pdb
REMARK                            x       y       z     vdW  Elec       q    Type
REMARK                         _______ _______ _______ _____ _____    ______ ____
ROOT
ATOM      1  C   LIG    1       -2.697   0.518  -0.362  0.00  0.00    +0.263 C 
ATOM      2  N   LIG    1       -1.373   0.512   0.082  0.00  0.00    -0.280 N 
ATOM      3  C   LIG    1       -0.599  -0.560   0.409  0.00  0.00    +0.028 A 
ATOM      4  C   LIG    1        0.675  -0.137   0.761  0.00  0.00    -0.008 A 
ATOM      5  C   LIG    1        0.663   1.234   0.641  0.00  0.00    +0.008 A 
ATOM      6  C   LIG    1        1.667   2.172   0.866  0.00  0.00    +0.056 A 
ATOM      7  C   LIG    1        1.422   3.493   0.677  0.00  0.00    +0.121 A 
ATOM      8  C   LIG    1        0.183   3.909   0.264  0.00  0.00    +0.048 A 
ATOM      9  C   LIG    1       -0.828   2.986   0.036  0.00  0.00    +0.030 A 
ATOM     10  C   LIG    1       -0.940  -2.006   0.402  0.00  0.00    +0.064 C 
ATOM     11  C   LIG    1       -0.600   1.643   0.221  0.00  0.00    +0.057 A 
ATOM     12  O   LIG    1       -3.181   1.653  -0.747  0.00  0.00    -0.267 OA
ENDROOT
BRANCH   1  13
ATOM     13  C   LIG    1       -3.581  -0.646  -0.429  0.00  0.00    +0.040 A 
ATOM     14  C   LIG    1       -3.922  -1.419   0.644  0.00  0.00    +0.015 A 
ATOM     15  C   LIG    1       -4.762  -2.519   0.549  0.00  0.00    +0.021 A 
ATOM     16  C   LIG    1       -5.293  -2.878  -0.672  0.00  0.00    +0.041 A 
ATOM     17 CL   LIG    1       -6.359  -4.270  -0.813  0.00  0.00    -0.084 Cl
ATOM     18  C   LIG    1       -4.954  -2.105  -1.764  0.00  0.00    +0.021 A 
ATOM     19  C   LIG    1       -4.112  -1.004  -1.651  0.00  0.00    +0.015 A 
ENDBRANCH   1  13
BRANCH   7  20
ATOM     20  O   LIG    1        2.431   4.410   0.905  0.00  0.00    -0.495 OA
ATOM     21  C   LIG    1        2.180   5.775   0.711  0.00  0.00    +0.277 C 
ENDBRANCH   7  20
BRANCH   4  22
ATOM     22  C   LIG    1        1.825  -0.971   1.172  0.00  0.00    +0.158 C 
BRANCH  22  23
ATOM     23  C   LIG    1        2.495  -1.630   0.054  0.00  0.00    +0.312 C 
ATOM     24  O   LIG    1        2.094  -1.462  -1.121  0.00  0.00    -0.250 OA
BRANCH  23  25
ATOM     25  O   LIG    1        3.584  -2.452   0.273  0.00  0.00    -0.453 OA
BRANCH  25  26
ATOM     26  C   LIG    1        4.283  -3.118  -0.753  0.00  0.00    +0.352 C 
BRANCH  26  27
ATOM     27  C   LIG    1        4.850  -2.119  -1.693  0.00  0.00    +0.343 C 
ATOM     28  O   LIG    1        5.512  -2.559  -2.679  0.00  0.00    -0.247 OA
BRANCH  27  29
ATOM     29  O   LIG    1        4.649  -0.771  -1.476  0.00  0.00    -0.478 OA
ATOM     30  H   LIG    1        5.358  -0.267  -0.950  0.00  0.00    +0.295 HD
ENDBRANCH  27  29
ENDBRANCH  26  27
ENDBRANCH  25  26
ENDBRANCH  23  25
ENDBRANCH  22  23
ENDBRANCH   4  22
TORSDOF 8
