REMARK  Name = molecules/FTALBRSUTCGOEG-UHFFFAOYSA-N.pdb
REMARK                            x       y       z     vdW  Elec       q    Type
REMARK                         _______ _______ _______ _____ _____    ______ ____
ROOT
ATOM      1  C   LIG    1        3.207   0.134   0.449  0.00  0.00    +0.157 A 
ATOM      2  S   LIG    1        2.044   0.099   1.725  0.00  0.00    -0.053 S 
ATOM      3  C   LIG    1        0.638  -0.169   0.789  0.00  0.00    +0.044 A 
ATOM      4  C   LIG    1       -0.731  -0.324   1.036  0.00  0.00    +0.063 A 
ATOM      5  C   LIG    1       -1.623  -0.533   0.008  0.00  0.00    +0.131 A 
ATOM      6  C   LIG    1       -1.069  -0.574  -1.253  0.00  0.00    +0.048 A 
ATOM      7  C   LIG    1        0.249  -0.427  -1.522  0.00  0.00    +0.032 A 
ATOM      8  C   LIG    1        1.165  -0.214  -0.476  0.00  0.00    +0.080 A 
ATOM      9  N   LIG    1        2.448  -0.058  -0.596  0.00  0.00    -0.225 NA
ENDROOT
BRANCH   1  10
ATOM     10  N   LIG    1        4.635   0.328   0.540  0.00  0.00    -0.337 N 
ATOM     11  H   LIG    1        4.975   1.281   0.804  0.00  0.00    +0.144 HD
ATOM     12  H   LIG    1        5.257  -0.477   0.343  0.00  0.00    +0.144 HD
ENDBRANCH   1  10
BRANCH   5  13
ATOM     13  O   LIG    1       -2.983  -0.696   0.160  0.00  0.00    -0.406 OA
BRANCH  13  14
ATOM     14  C   LIG    1       -3.809   0.479   0.122  0.00  0.00    +0.575 C 
ATOM     15  F   LIG    1       -3.407   1.330   1.157  0.00  0.00    -0.133 F 
ATOM     16  F   LIG    1       -5.125   0.163   0.364  0.00  0.00    -0.133 F 
ATOM     17  F   LIG    1       -3.605   1.155  -1.043  0.00  0.00    -0.133 F 
ENDBRANCH  13  14
ENDBRANCH   5  13
TORSDOF 3
