REMARK  Name = molecules/FTOAOBMCPZCFFF-UHFFFAOYSA-N.pdb
REMARK                            x       y       z     vdW  Elec       q    Type
REMARK                         _______ _______ _______ _____ _____    ______ ____
ROOT
ATOM      1  C   LIG    1        0.192  -0.148   0.128  0.00  0.00    +0.123 C 
ATOM      2  C   LIG    1       -0.255  -1.264   0.965  0.00  0.00    +0.235 C 
ATOM      3  O   LIG    1        0.475  -2.193   1.396  0.00  0.00    -0.274 OA
ATOM      4  N   LIG    1       -1.640  -1.277   1.310  0.00  0.00    -0.239 N 
ATOM      5  H   LIG    1       -1.988  -1.754   2.195  0.00  0.00    +0.159 HD
ATOM      6  C   LIG    1       -2.619  -0.651   0.482  0.00  0.00    +0.312 C 
ATOM      7  O   LIG    1       -3.844  -0.642   0.751  0.00  0.00    -0.252 OA
ATOM      8  N   LIG    1       -2.155  -0.013  -0.703  0.00  0.00    -0.239 N 
ATOM      9  H   LIG    1       -2.809   0.472  -1.370  0.00  0.00    +0.159 HD
ATOM     10  C   LIG    1       -0.764  -0.026  -1.005  0.00  0.00    +0.235 C 
ATOM     11  O   LIG    1       -0.352   0.064  -2.197  0.00  0.00    -0.274 OA
ENDROOT
BRANCH   1  12
ATOM     12  C   LIG    1        1.609  -0.221  -0.318  0.00  0.00    +0.022 C 
ATOM     13  C   LIG    1        1.968  -1.404  -1.142  0.00  0.00    +0.005 C 
ENDBRANCH   1  12
BRANCH   1  14
ATOM     14  C   LIG    1        0.036   1.129   0.952  0.00  0.00    +0.022 C 
ATOM     15  C   LIG    1        0.377   2.319   0.119  0.00  0.00    +0.005 C 
ENDBRANCH   1  14
TORSDOF 2
