REMARK  Name = molecules/FTQDJVZNPJRVPG-XWEVEMRCSA-N.pdb
REMARK                            x       y       z     vdW  Elec       q    Type
REMARK                         _______ _______ _______ _____ _____    ______ ____
ROOT
ATOM      1  C   LIG    1       -0.250  -2.020   0.088  0.00  0.00    +0.013 C 
ATOM      2  C   LIG    1        0.068  -0.668   0.626  0.00  0.00    -0.013 C 
ATOM      3  C   LIG    1        0.952  -0.827   1.822  0.00  0.00    +0.008 C 
ATOM      4  C   LIG    1        2.323  -1.333   1.423  0.00  0.00    +0.005 C 
ATOM      5  C   LIG    1        2.855  -0.356   0.401  0.00  0.00    +0.005 C 
ATOM      6  C   LIG    1        4.314  -0.486   0.285  0.00  0.00    +0.006 C 
ATOM      7  C   LIG    1        4.882  -0.294   1.706  0.00  0.00    +0.015 C 
ATOM      8  C   LIG    1        4.850  -1.771  -0.217  0.00  0.00    +0.015 C 
ATOM      9  C   LIG    1        4.867   0.716  -0.493  0.00  0.00    +0.182 C 
ATOM     10  C   LIG    1        4.148   0.770  -1.794  0.00  0.00    +0.046 C 
ATOM     11  C   LIG    1        2.662   0.846  -1.698  0.00  0.00    +0.011 C 
ATOM     12  C   LIG    1        2.062  -0.303  -0.870  0.00  0.00    -0.018 C 
ATOM     13  C   LIG    1        2.119  -1.492  -1.735  0.00  0.00    +0.012 C 
ATOM     14  C   LIG    1       -1.204   0.072   1.073  0.00  0.00    -0.004 C 
ATOM     15  C   LIG    1       -1.820  -0.441   2.301  0.00  0.00    +0.012 C 
ATOM     16  C   LIG    1       -3.144   0.214   2.554  0.00  0.00    +0.008 C 
ATOM     17  C   LIG    1       -4.100   0.226   1.418  0.00  0.00    -0.025 C 
ATOM     18  C   LIG    1       -5.375  -0.485   1.917  0.00  0.00    +0.012 C 
ATOM     19  C   LIG    1       -4.426   1.581   0.894  0.00  0.00    +0.008 C 
ATOM     20  C   LIG    1       -5.489   1.566  -0.163  0.00  0.00    +0.018 C 
ATOM     21  C   LIG    1       -5.398   0.509  -1.172  0.00  0.00    +0.065 C 
ATOM     22  C   LIG    1       -4.521  -0.667  -0.875  0.00  0.00    +0.026 C 
ATOM     23  C   LIG    1       -4.913   1.111  -2.492  0.00  0.00    +0.023 C 
ATOM     24  C   LIG    1       -3.550  -0.553   0.218  0.00  0.00    +0.023 C 
ATOM     25  C   LIG    1       -0.881   1.514   1.278  0.00  0.00    +0.016 C 
ATOM     26  C   LIG    1       -2.187  -0.163  -0.058  0.00  0.00    -0.056 C 
ATOM     27  C   LIG    1       -1.687  -0.018  -1.282  0.00  0.00    +0.046 C 
ATOM     28  C   LIG    1       -0.282   0.344  -1.539  0.00  0.00    +0.160 C 
ATOM     29  O   LIG    1       -0.046   0.784  -2.693  0.00  0.00    -0.292 OA
ATOM     30  C   LIG    1        0.692   0.166  -0.467  0.00  0.00    +0.073 C 
ENDROOT
BRANCH  21  31
ATOM     31  C   LIG    1       -6.817   0.088  -1.500  0.00  0.00    +0.311 C 
ATOM     32  O   LIG    1       -7.795   0.458  -0.836  0.00  0.00    -0.250 OA
BRANCH  31  33
ATOM     33  O   LIG    1       -7.029  -0.747  -2.589  0.00  0.00    -0.480 OA
ATOM     34  H   LIG    1       -7.637  -1.555  -2.525  0.00  0.00    +0.295 HD
ENDBRANCH  31  33
ENDBRANCH  21  31
BRANCH   9  35
ATOM     35  O   LIG    1        6.246   0.547  -0.755  0.00  0.00    -0.461 OA
BRANCH  35  36
ATOM     36  C   LIG    1        7.229   1.423  -0.361  0.00  0.00    +0.304 C 
ATOM     37  O   LIG    1        6.895   2.453   0.280  0.00  0.00    -0.251 OA
ATOM     38  C   LIG    1        8.671   1.225  -0.647  0.00  0.00    +0.136 C 
ENDBRANCH  35  36
ENDBRANCH   9  35
TORSDOF 4
