REMARK  Name = molecules/FUBBGQLTSCSAON-PBFPGSCMSA-N.pdb
REMARK                            x       y       z     vdW  Elec       q    Type
REMARK                         _______ _______ _______ _____ _____    ______ ____
ROOT
ATOM      1  CA  LIG    1       -2.571   2.022  -0.069  0.00  0.00    +0.125 C 
ATOM      2  C   LIG    1       -3.290   0.951  -0.337  0.00  0.00    +0.006 C 
ATOM      3  C   LIG    1       -2.746  -0.220  -1.093  0.00  0.00    +0.107 C 
ATOM      4  S   LIG    1       -1.458   0.191  -2.281  0.00  0.00    -0.131 S 
ATOM      5  C   LIG    1       -0.766   1.775  -1.806  0.00  0.00    +0.169 C 
ATOM      6  CA  LIG    1        0.670   1.722  -1.314  0.00  0.00    +0.191 C 
ATOM      7  C   LIG    1        0.134   2.413  -0.108  0.00  0.00    +0.244 C 
ATOM      8  O   LIG    1        0.753   3.010   0.824  0.00  0.00    -0.273 OA
ATOM      9  N   LIG    1       -1.195   2.103  -0.489  0.00  0.00    -0.249 N 
ENDROOT
BRANCH   6  10
ATOM     10  N   LIG    1        1.208   0.424  -1.093  0.00  0.00    -0.300 N 
ATOM     11  H   LIG    1        0.674  -0.288  -0.569  0.00  0.00    +0.150 HD
ATOM     12  C   LIG    1        2.493   0.077  -1.588  0.00  0.00    +0.235 C 
ATOM     13  O   LIG    1        3.163   0.943  -2.235  0.00  0.00    -0.274 OA
BRANCH  12  14
ATOM     14  CA  LIG    1        3.076  -1.262  -1.375  0.00  0.00    +0.168 C 
BRANCH  14  15
ATOM     15  C   LIG    1        4.230  -1.222  -0.420  0.00  0.00    -0.022 A 
ATOM     16  C   LIG    1        4.698  -2.430   0.084  0.00  0.00    +0.005 A 
ATOM     17  C   LIG    1        5.754  -2.466   0.960  0.00  0.00    +0.000 A 
ATOM     18  C   LIG    1        6.365  -1.314   1.353  0.00  0.00    +0.000 A 
ATOM     19  C   LIG    1        5.898  -0.126   0.853  0.00  0.00    +0.000 A 
ATOM     20  C   LIG    1        4.838  -0.058  -0.029  0.00  0.00    +0.005 A 
ENDBRANCH  14  15
BRANCH  14  21
ATOM     21  N   LIG    1        2.082  -2.145  -0.761  0.00  0.00    -0.316 NA
ATOM     22  H1  LIG    1        2.138  -1.991   0.267  0.00  0.00    +0.119 HD
ATOM     23  H2  LIG    1        2.328  -3.139  -0.950  0.00  0.00    +0.119 HD
ENDBRANCH  14  21
ENDBRANCH  12  14
ENDBRANCH   6  10
BRANCH   1  24
ATOM     24  C   LIG    1       -3.044   3.186   0.646  0.00  0.00    +0.351 C 
ATOM     25  OXT LIG    1       -4.196   3.283   1.085  0.00  0.00    -0.244 OA
BRANCH  24  26
ATOM     26  O   LIG    1       -2.241   4.320   0.915  0.00  0.00    -0.476 OA
ATOM     27  H   LIG    1       -2.235   5.122   0.306  0.00  0.00    +0.295 HD
ENDBRANCH  24  26
ENDBRANCH   1  24
BRANCH   2  28
ATOM     28  C   LIG    1       -4.693   0.854   0.085  0.00  0.00    +0.266 C 
BRANCH  28  29
ATOM     29  O   LIG    1       -5.061  -0.146   0.951  0.00  0.00    -0.460 OA
BRANCH  29  30
ATOM     30  C   LIG    1       -5.145  -1.459   0.899  0.00  0.00    +0.304 C 
ATOM     31  C   LIG    1       -5.600  -2.256   2.127  0.00  0.00    +0.136 C 
ATOM     32  O   LIG    1       -4.868  -2.101  -0.118  0.00  0.00    -0.251 OA
ENDBRANCH  29  30
ENDBRANCH  28  29
ENDBRANCH   2  28
TORSDOF 9
