REMARK  Name = molecules/FUBVWMNBEHXPSU-UHFFFAOYSA-N.pdb
REMARK                            x       y       z     vdW  Elec       q    Type
REMARK                         _______ _______ _______ _____ _____    ______ ____
ROOT
ATOM      1  C   LIG    1        3.004  -0.800   1.537  0.00  0.00    +0.038 A 
ATOM      2  C   LIG    1        3.427  -0.236   2.714  0.00  0.00    +0.024 A 
ATOM      3  C   LIG    1        2.590   0.638   3.340  0.00  0.00    +0.019 A 
ATOM      4  C   LIG    1        1.376   0.925   2.800  0.00  0.00    +0.035 A 
ATOM      5  S   LIG    1        0.354   2.179   3.607  0.00  0.00    -0.086 S 
ATOM      6  C   LIG    1       -0.629   2.835   2.339  0.00  0.00    +0.035 A 
ATOM      7  C   LIG    1       -1.240   4.029   2.435  0.00  0.00    +0.017 A 
ATOM      8  C   LIG    1       -2.115   4.562   1.587  0.00  0.00    +0.001 A 
ATOM      9  C   LIG    1       -2.518   3.861   0.403  0.00  0.00    +0.002 A 
ATOM     10  C   LIG    1       -1.858   2.620   0.337  0.00  0.00    +0.025 A 
ATOM     11  C   LIG    1       -0.982   2.087   1.175  0.00  0.00    +0.055 A 
ATOM     12  N   LIG    1       -0.245   0.893   0.856  0.00  0.00    -0.238 N 
ATOM     13  C   LIG    1       -0.663   0.075  -0.208  0.00  0.00    +0.225 C 
ATOM     14  O   LIG    1       -0.286  -1.225   0.072  0.00  0.00    -0.275 OA
ATOM     15  C   LIG    1        0.866   0.416   1.658  0.00  0.00    +0.057 A 
ATOM     16  C   LIG    1        1.718  -0.487   0.997  0.00  0.00    +0.048 A 
ENDROOT
BRANCH   1  18
ATOM     17  C   LIG    1        4.726  -2.042  -0.167  0.00  0.00    +0.405 C 
ATOM     18  N   LIG    1        3.869  -1.424   0.682  0.00  0.00    -0.251 N 
ATOM     19  H   LIG    1        3.171  -2.564   0.823  0.00  0.00    +0.158 HD
ATOM     20  O   LIG    1        4.662  -3.233  -0.564  0.00  0.00    -0.226 OA
BRANCH  17  21
ATOM     21  O   LIG    1        5.832  -1.303  -0.686  0.00  0.00    -0.450 OA
BRANCH  21  23
ATOM     22  C   LIG    1        7.735  -0.689  -1.884  0.00  0.00    +0.048 C 
ATOM     23  C   LIG    1        6.777  -1.819  -1.563  0.00  0.00    +0.230 C 
ENDBRANCH  21  23
ENDBRANCH  17  21
ENDBRANCH   1  18
BRANCH  13  24
ATOM     24  C   LIG    1       -1.317   0.080  -1.475  0.00  0.00    +0.112 C 
BRANCH  24  25
ATOM     25  C   LIG    1       -2.311  -1.143  -1.527  0.00  0.00    +0.094 C 
BRANCH  25  26
ATOM     26  N   LIG    1       -3.296  -0.854  -0.488  0.00  0.00    -0.298 NA
ATOM     27  C   LIG    1       -3.998  -2.020  -0.043  0.00  0.00    +0.112 C 
ATOM     28  C   LIG    1       -5.412  -2.220  -0.306  0.00  0.00    +0.175 C 
ATOM     29  O   LIG    1       -6.142  -1.126  -0.691  0.00  0.00    -0.377 OA
ATOM     30  C   LIG    1       -5.439  -0.379  -1.599  0.00  0.00    +0.175 C 
ATOM     31  C   LIG    1       -4.211   0.176  -0.974  0.00  0.00    +0.112 C 
ENDBRANCH  25  26
ENDBRANCH  24  25
ENDBRANCH  13  24
TORSDOF 6
