REMARK  Name = molecules/FUSNMLFNXJSCDI-UHFFFAOYSA-N.pdb
REMARK                            x       y       z     vdW  Elec       q    Type
REMARK                         _______ _______ _______ _____ _____    ______ ____
ROOT
ATOM      1  O   LIG    1        0.136   0.588   1.521  0.00  0.00    -0.435 OA
ENDROOT
BRANCH   1   2
ATOM      2  C   LIG    1       -1.175   0.459   1.082  0.00  0.00    +0.131 A 
ATOM      3  C   LIG    1       -1.748  -0.793   1.126  0.00  0.00    +0.054 A 
ATOM      4  C   LIG    1       -3.049  -1.061   0.718  0.00  0.00    -0.014 A 
ATOM      5  C   LIG    1       -3.591  -2.321   0.775  0.00  0.00    +0.008 A 
ATOM      6  C   LIG    1       -4.877  -2.559   0.366  0.00  0.00    +0.001 A 
ATOM      7  C   LIG    1       -5.602  -1.478  -0.104  0.00  0.00    +0.001 A 
ATOM      8  C   LIG    1       -5.070  -0.210  -0.166  0.00  0.00    +0.008 A 
ATOM      9  C   LIG    1       -3.778   0.028   0.245  0.00  0.00    -0.018 A 
ATOM     10  C   LIG    1       -3.232   1.288   0.189  0.00  0.00    +0.012 A 
ATOM     11  C   LIG    1       -1.920   1.514   0.610  0.00  0.00    +0.047 A 
ENDBRANCH   1   2
BRANCH   1  12
ATOM     12  C   LIG    1        0.837   1.764   1.537  0.00  0.00    +0.240 C 
ATOM     13  S   LIG    1        0.247   3.077   2.349  0.00  0.00    +0.007 S 
BRANCH  12  14
ATOM     14  N   LIG    1        2.076   1.916   0.875  0.00  0.00    -0.268 N 
ATOM     15  C   LIG    1        2.687   3.253   0.998  0.00  0.00    +0.139 C 
BRANCH  14  16
ATOM     16  C   LIG    1        2.734   0.924   0.132  0.00  0.00    +0.037 A 
ATOM     17  C   LIG    1        2.303  -0.355  -0.004  0.00  0.00    +0.027 A 
ATOM     18  C   LIG    1        3.018  -1.296  -0.778  0.00  0.00    -0.049 A 
ATOM     19  C   LIG    1        2.540  -2.686  -0.919  0.00  0.00    +0.044 C 
ATOM     20  C   LIG    1        4.177  -0.937  -1.418  0.00  0.00    +0.003 A 
ATOM     21  C   LIG    1        4.635   0.359  -1.294  0.00  0.00    +0.002 A 
ATOM     22  C   LIG    1        3.919   1.258  -0.533  0.00  0.00    +0.023 A 
ENDBRANCH  14  16
ENDBRANCH  12  14
ENDBRANCH   1  12
TORSDOF 4
