REMARK  Name = molecules/FVLVBPDQNARYJU-KYZUINATSA-N.pdb
REMARK                            x       y       z     vdW  Elec       q    Type
REMARK                         _______ _______ _______ _____ _____    ______ ____
ROOT
ATOM      1  N   LIG    1        0.951   0.174  -0.477  0.00  0.00    -0.295 N 
ATOM      2  H   LIG    1        1.330   0.111   0.493  0.00  0.00    +0.151 HD
ATOM      3  C   LIG    1        1.847   0.270  -1.546  0.00  0.00    +0.319 C 
ATOM      4  N   LIG    1        3.247   0.289  -1.369  0.00  0.00    -0.174 N 
ATOM      5  O   LIG    1        1.382   0.341  -2.708  0.00  0.00    -0.251 OA
ENDROOT
BRANCH   1   6
ATOM      6  C   LIG    1       -0.485   0.150  -0.590  0.00  0.00    +0.074 C 
ATOM      7  C   LIG    1       -1.013   1.443   0.044  0.00  0.00    +0.022 C 
ATOM      8  C   LIG    1       -2.526   1.377  -0.126  0.00  0.00    +0.005 C 
ATOM      9  C   LIG    1       -3.029   0.367   0.850  0.00  0.00    -0.014 C 
ATOM     10  C   LIG    1       -2.105  -0.768   1.098  0.00  0.00    +0.005 C 
ATOM     11  C   LIG    1       -4.414  -0.060   0.413  0.00  0.00    +0.007 C 
ATOM     12  C   LIG    1       -1.136  -1.044  -0.012  0.00  0.00    +0.022 C 
ENDBRANCH   1   6
BRANCH   4  13
ATOM     13  N   LIG    1        4.090   0.381  -2.514  0.00  0.00    +0.053 NA
ATOM     14  O   LIG    1        4.265  -0.721  -3.107  0.00  0.00    -0.079 OA
ENDBRANCH   4  13
BRANCH   4  15
ATOM     15  C   LIG    1        3.863   0.218  -0.064  0.00  0.00    +0.148 C 
BRANCH  15  16
ATOM     16  C   LIG    1        4.144  -1.170   0.391  0.00  0.00    +0.129 C 
ATOM     17 CL   LIG    1        5.233  -2.055  -0.678  0.00  0.00    -0.124 Cl
ENDBRANCH  15  16
ENDBRANCH   4  15
TORSDOF 4
