REMARK  Name = molecules/FVNFBBAOMBJTST-UHFFFAOYSA-N.pdb
REMARK                            x       y       z     vdW  Elec       q    Type
REMARK                         _______ _______ _______ _____ _____    ______ ____
ROOT
ATOM      1  O   LIG    1       -5.935   1.347   1.423  0.00  0.00    -0.226 OA
ATOM      2  C   LIG    1       -4.910   0.710   1.028  0.00  0.00    +0.401 C 
ATOM      3  O   LIG    1       -3.606   0.845   1.527  0.00  0.00    -0.442 OA
ATOM      4  C   LIG    1       -2.694   0.177   0.701  0.00  0.00    +0.133 C 
ATOM      5  C   LIG    1       -1.869  -0.777   1.532  0.00  0.00    +0.065 C 
ATOM      6  C   LIG    1       -0.753  -1.403   0.747  0.00  0.00    +0.088 C 
ATOM      7  N   LIG    1        0.105  -0.426   0.085  0.00  0.00    -0.302 NA
ATOM      8  C   LIG    1       -0.734   0.471  -0.706  0.00  0.00    +0.088 C 
ATOM      9  C   LIG    1       -1.731   1.202   0.136  0.00  0.00    +0.065 C 
ATOM     10  C   LIG    1       -3.486  -0.520  -0.364  0.00  0.00    +0.155 C 
ATOM     11  N   LIG    1       -4.873  -0.273  -0.001  0.00  0.00    -0.277 N 
ATOM     12  H   LIG    1       -5.712  -0.731  -0.415  0.00  0.00    +0.152 HD
ENDROOT
BRANCH   7  13
ATOM     13  C   LIG    1        0.845  -1.219  -0.903  0.00  0.00    +0.089 C 
BRANCH  13  14
ATOM     14  C   LIG    1        1.860  -0.439  -1.665  0.00  0.00    +0.050 C 
BRANCH  14  15
ATOM     15  C   LIG    1        2.911   0.139  -0.781  0.00  0.00    -0.046 A 
ATOM     16  C   LIG    1        2.775   1.406  -0.269  0.00  0.00    +0.003 A 
ATOM     17  C   LIG    1        3.779   1.933   0.552  0.00  0.00    +0.000 A 
ATOM     18  C   LIG    1        4.898   1.233   0.869  0.00  0.00    +0.000 A 
ATOM     19  C   LIG    1        5.034  -0.037   0.355  0.00  0.00    +0.000 A 
ATOM     20  C   LIG    1        4.058  -0.595  -0.465  0.00  0.00    +0.003 A 
ENDBRANCH  14  15
ENDBRANCH  13  14
ENDBRANCH   7  13
TORSDOF 3
