REMARK  Name = molecules/FVTCRASFADXXNN-SCRDCRAPSA-N.pdb
REMARK                            x       y       z     vdW  Elec       q    Type
REMARK                         _______ _______ _______ _____ _____    ______ ____
ROOT
ATOM      1  C   LIG    1       -4.738  -3.007  -1.804  0.00  0.00    +0.044 C 
ATOM      2  C   LIG    1       -3.699  -2.012  -1.396  0.00  0.00    -0.045 A 
ATOM      3  C   LIG    1       -2.451  -2.429  -0.922  0.00  0.00    -0.045 A 
ATOM      4  C   LIG    1       -1.495  -1.511  -0.546  0.00  0.00    +0.031 A 
ATOM      5  C   LIG    1       -1.760  -0.169  -0.634  0.00  0.00    +0.069 A 
ATOM      6  N   LIG    1       -0.832   0.761  -0.267  0.00  0.00    -0.320 N 
ATOM      7  C   LIG    1       -1.088   2.075  -0.350  0.00  0.00    +0.170 A 
ATOM      8  N   LIG    1       -0.173   2.989   0.008  0.00  0.00    -0.173 NA
ATOM      9  C   LIG    1       -0.423   4.316  -0.075  0.00  0.00    +0.351 A 
ATOM     10  O   LIG    1        0.428   5.186   0.258  0.00  0.00    -0.245 OA
ATOM     11  N   LIG    1       -1.620   4.754  -0.529  0.00  0.00    -0.272 N 
ATOM     12  H   LIG    1       -1.813   5.774  -0.593  0.00  0.00    +0.174 HD
ATOM     13  C   LIG    1       -2.601   3.901  -0.912  0.00  0.00    +0.282 A 
ATOM     14  O   LIG    1       -3.711   4.299  -1.332  0.00  0.00    -0.265 OA
ATOM     15  C   LIG    1       -2.383   2.558  -0.841  0.00  0.00    +0.171 A 
ATOM     16  N   LIG    1       -3.274   1.615  -1.193  0.00  0.00    -0.237 NA
ATOM     17  C   LIG    1       -2.988   0.303  -1.099  0.00  0.00    +0.089 A 
ATOM     18  C   LIG    1       -2.203  -3.890  -0.843  0.00  0.00    +0.044 C 
ATOM     19  C   LIG    1       -3.909  -0.657  -1.462  0.00  0.00    +0.033 A 
ENDROOT
BRANCH   6  20
ATOM     20  C   LIG    1        0.453   0.321   0.212  0.00  0.00    +0.158 C 
BRANCH  20  21
ATOM     21  C   LIG    1        0.498   0.085   1.685  0.00  0.00    +0.165 C 
BRANCH  21  22
ATOM     22  O   LIG    1        0.229   1.209   2.454  0.00  0.00    -0.387 OA
ATOM     23  H   LIG    1        0.899   1.890   2.311  0.00  0.00    +0.210 HD
ENDBRANCH  21  22
BRANCH  21  24
ATOM     24  C   LIG    1        1.756  -0.550   2.121  0.00  0.00    +0.175 C 
BRANCH  24  25
ATOM     25  O   LIG    1        1.545  -0.925   3.490  0.00  0.00    -0.387 OA
ATOM     26  H   LIG    1        1.851  -0.180   4.072  0.00  0.00    +0.210 HD
ENDBRANCH  24  25
BRANCH  24  27
ATOM     27  C   LIG    1        3.018   0.204   2.097  0.00  0.00    +0.172 C 
BRANCH  27  28
ATOM     28  O   LIG    1        3.075   1.372   2.829  0.00  0.00    -0.387 OA
ATOM     29  H   LIG    1        3.667   2.043   2.396  0.00  0.00    +0.210 HD
ENDBRANCH  27  28
BRANCH  27  30
ATOM     30  C   LIG    1        3.722   0.340   0.779  0.00  0.00    +0.206 C 
BRANCH  30  31
ATOM     31  O   LIG    1        3.632  -0.831   0.021  0.00  0.00    -0.284 OA
BRANCH  31  32
ATOM     32  P   LIG    1        4.410  -0.700  -1.451  0.00  0.00    +0.472 P 
ATOM     33  O   LIG    1        5.850  -0.242  -1.290  0.00  0.00    -0.228 OA
BRANCH  32  34
ATOM     34  O   LIG    1        4.431  -2.209  -2.186  0.00  0.00    -0.303 OA
ATOM     35  H   LIG    1        5.310  -2.392  -2.620  0.00  0.00    +0.222 HD
ENDBRANCH  32  34
BRANCH  32  36
ATOM     36  O   LIG    1        3.620   0.379  -2.484  0.00  0.00    -0.303 OA
ATOM     37  H   LIG    1        4.002   0.313  -3.386  0.00  0.00    +0.222 HD
ENDBRANCH  32  36
ENDBRANCH  31  32
ENDBRANCH  30  31
ENDBRANCH  27  30
ENDBRANCH  24  27
ENDBRANCH  21  24
ENDBRANCH  20  21
ENDBRANCH   6  20
TORSDOF 12
