REMARK  Name = molecules/FVYYUBRKVVOOAV-UHFFFAOYSA-N.pdb
REMARK                            x       y       z     vdW  Elec       q    Type
REMARK                         _______ _______ _______ _____ _____    ______ ____
ROOT
ATOM      1  C   LIG    1       -1.848   0.235  -0.186  0.00  0.00    +0.056 C 
ATOM      2  C   LIG    1       -1.319   0.049   1.216  0.00  0.00    +0.034 C 
ATOM      3  C   LIG    1       -0.069  -0.766   1.303  0.00  0.00    +0.086 C 
ATOM      4  N   LIG    1        0.903  -0.198   0.386  0.00  0.00    -0.300 NA
ATOM      5  C   LIG    1        0.434  -0.569  -0.941  0.00  0.00    +0.086 C 
ATOM      6  C   LIG    1       -0.806   0.229  -1.235  0.00  0.00    +0.034 C 
ENDROOT
BRANCH   1   7
ATOM      7  C   LIG    1       -2.907  -0.796  -0.374  0.00  0.00    -0.034 A 
ATOM      8  C   LIG    1       -4.077  -0.688   0.394  0.00  0.00    +0.004 A 
ATOM      9  C   LIG    1       -5.076  -1.646   0.244  0.00  0.00    +0.000 A 
ATOM     10  C   LIG    1       -4.933  -2.690  -0.640  0.00  0.00    +0.000 A 
ATOM     11  C   LIG    1       -3.753  -2.776  -1.396  0.00  0.00    +0.000 A 
ATOM     12  C   LIG    1       -2.762  -1.835  -1.255  0.00  0.00    +0.004 A 
ENDBRANCH   1   7
BRANCH   1  13
ATOM     13  C   LIG    1       -2.544   1.575  -0.246  0.00  0.00    +0.144 C 
ATOM     14  O   LIG    1       -3.743   1.661  -0.480  0.00  0.00    -0.296 OA
BRANCH  13  15
ATOM     15  C   LIG    1       -1.825   2.858  -0.028  0.00  0.00    +0.072 C 
ATOM     16  C   LIG    1       -2.812   4.026  -0.141  0.00  0.00    +0.012 C 
ENDBRANCH  13  15
ENDBRANCH   1  13
BRANCH   4  17
ATOM     17  C   LIG    1        2.223  -0.709   0.684  0.00  0.00    +0.112 C 
BRANCH  17  18
ATOM     18  C   LIG    1        3.291  -0.065  -0.144  0.00  0.00    +0.175 C 
BRANCH  18  19
ATOM     19  O   LIG    1        4.514  -0.653   0.249  0.00  0.00    -0.376 OA
BRANCH  19  20
ATOM     20  C   LIG    1        5.529  -0.069  -0.510  0.00  0.00    +0.187 C 
BRANCH  20  21
ATOM     21  C   LIG    1        6.883  -0.629  -0.165  0.00  0.00    +0.184 C 
BRANCH  21  22
ATOM     22  O   LIG    1        7.164  -0.396   1.182  0.00  0.00    -0.393 OA
ATOM     23  H   LIG    1        7.290   0.566   1.292  0.00  0.00    +0.209 HD
ENDBRANCH  21  22
ENDBRANCH  20  21
ENDBRANCH  19  20
ENDBRANCH  18  19
ENDBRANCH  17  18
ENDBRANCH   4  17
TORSDOF 9
