REMARK  Name = molecules/FWCVZAQENIZVMY-UHFFFAOYSA-N.pdb
REMARK                            x       y       z     vdW  Elec       q    Type
REMARK                         _______ _______ _______ _____ _____    ______ ____
ROOT
ATOM      1  C   LIG    1        1.019   2.448   2.275  0.00  0.00    +0.020 A 
ATOM      2  C   LIG    1        1.999   1.485   2.462  0.00  0.00    +0.111 A 
ATOM      3  N   LIG    1        2.091   0.521   1.612  0.00  0.00    -0.253 NA
ATOM      4  C   LIG    1        1.351   0.276   0.576  0.00  0.00    +0.095 A 
ATOM      5  C   LIG    1        0.391   1.161   0.311  0.00  0.00    +0.017 A 
ATOM      6  C   LIG    1        0.175   2.254   1.144  0.00  0.00    +0.010 A 
ENDROOT
BRANCH   4   7
ATOM      7  C   LIG    1        1.695  -0.851  -0.285  0.00  0.00    +0.088 A 
ATOM      8  C   LIG    1        0.828  -1.943  -0.436  0.00  0.00    +0.051 A 
ATOM      9  C   LIG    1        1.531  -2.840  -1.141  0.00  0.00    +0.135 A 
ATOM     10  N   LIG    1        2.708  -2.373  -1.502  0.00  0.00    -0.179 NA
ATOM     11  N   LIG    1        2.837  -1.142  -0.911  0.00  0.00    -0.260 N 
BRANCH  11  12
ATOM     12  C   LIG    1        4.052  -0.403  -1.080  0.00  0.00    +0.102 C 
ATOM     13  C   LIG    1        5.149  -1.077  -0.272  0.00  0.00    +0.032 C 
ATOM     14  C   LIG    1        3.969   1.022  -0.660  0.00  0.00    +0.032 C 
ENDBRANCH  11  12
ENDBRANCH   4   7
BRANCH   5  15
ATOM     15  C   LIG    1       -0.700   0.940  -0.751  0.00  0.00    +0.266 C 
BRANCH  15  16
ATOM     16  O   LIG    1       -1.765   0.560   0.138  0.00  0.00    -0.486 OA
BRANCH  16  17
ATOM     17  C   LIG    1       -3.105   0.229  -0.331  0.00  0.00    +0.135 A 
ATOM     18  C   LIG    1       -3.874  -0.276   0.628  0.00  0.00    +0.097 A 
ATOM     19  C   LIG    1       -5.165  -0.791   0.378  0.00  0.00    +0.131 A 
ATOM     20  C   LIG    1       -5.487  -0.645  -0.959  0.00  0.00    +0.046 A 
ATOM     21  C   LIG    1       -4.757  -0.081  -1.935  0.00  0.00    +0.007 A 
ATOM     22  C   LIG    1       -3.432   0.417  -1.610  0.00  0.00    +0.046 A 
BRANCH  18  23
ATOM     23  C   LIG    1       -3.697   0.194   2.043  0.00  0.00    +0.266 C 
ATOM     24  O   LIG    1       -2.661   0.769   2.424  0.00  0.00    -0.295 OA
ENDBRANCH  18  23
BRANCH  19  25
ATOM     25  O   LIG    1       -5.907  -1.432   1.334  0.00  0.00    -0.506 OA
ATOM     26  H   LIG    1       -5.667  -2.508   1.337  0.00  0.00    +0.292 HD
ENDBRANCH  19  25
ENDBRANCH  16  17
ENDBRANCH  15  16
ENDBRANCH   5  15
TORSDOF 7
