REMARK  Name = molecules/FWKQNCXZGNBPFD-UHFFFAOYSA-N.pdb
REMARK                            x       y       z     vdW  Elec       q    Type
REMARK                         _______ _______ _______ _____ _____    ______ ____
ROOT
ATOM      1  C   LIG    1        1.001   3.485  -0.247  0.00  0.00    +0.022 C 
ATOM      2  C   LIG    1        1.643   2.143  -0.251  0.00  0.00    +0.024 C 
ATOM      3  C   LIG    1        0.946   0.971  -0.061  0.00  0.00    -0.032 C 
ATOM      4  C   LIG    1       -0.407   0.851   0.154  0.00  0.00    -0.010 C 
ATOM      5  C   LIG    1       -1.201  -0.289   0.302  0.00  0.00    +0.023 C 
ATOM      6  C   LIG    1       -0.719  -1.529   0.602  0.00  0.00    -0.014 C 
ATOM      7  C   LIG    1        0.551  -2.060   0.431  0.00  0.00    +0.000 C 
ATOM      8  C   LIG    1        1.710  -1.456  -0.006  0.00  0.00    -0.043 C 
ATOM      9  C   LIG    1        2.861  -2.325  -0.387  0.00  0.00    +0.044 C 
ATOM     10  C   LIG    1        1.932  -0.098  -0.136  0.00  0.00    -0.019 C 
ATOM     11  C   LIG    1        3.191   0.469  -0.369  0.00  0.00    +0.005 C 
ATOM     12  C   LIG    1        2.973   1.817  -0.431  0.00  0.00    -0.014 C 
ENDROOT
BRANCH   5  13
ATOM     13  C   LIG    1       -2.641  -0.079   0.112  0.00  0.00    -0.002 C 
ATOM     14  C   LIG    1       -3.352  -0.379   1.419  0.00  0.00    +0.008 C 
ATOM     15  C   LIG    1       -3.200  -0.900  -1.028  0.00  0.00    +0.008 C 
ENDBRANCH   5  13
TORSDOF 1
