REMARK  Name = molecules/FWTXWYXPXGKVJG-VIFPVBQESA-N.pdb
REMARK                            x       y       z     vdW  Elec       q    Type
REMARK                         _______ _______ _______ _____ _____    ______ ____
ROOT
ATOM      1  C   LIG    1       -1.412  -1.163   1.120  0.00  0.00    +0.056 C 
ATOM      2  C   LIG    1       -1.060  -0.226  -0.011  0.00  0.00    +0.163 C 
ENDROOT
BRANCH   2   3
ATOM      3  C   LIG    1        0.412  -0.147  -0.061  0.00  0.00    -0.008 A 
ATOM      4  C   LIG    1        1.096   0.555   0.895  0.00  0.00    +0.007 A 
ATOM      5  C   LIG    1        2.496   0.640   0.888  0.00  0.00    +0.000 A 
ATOM      6  C   LIG    1        3.140  -0.020  -0.131  0.00  0.00    +0.000 A 
ATOM      7  C   LIG    1        2.459  -0.728  -1.096  0.00  0.00    +0.000 A 
ATOM      8  C   LIG    1        1.087  -0.790  -1.059  0.00  0.00    +0.007 A 
ENDBRANCH   2   3
BRANCH   2   9
ATOM      9  C   LIG    1       -1.619   1.122   0.170  0.00  0.00    +0.246 C 
ATOM     10  O   LIG    1       -1.409   1.840   1.164  0.00  0.00    -0.273 OA
ATOM     11  N   LIG    1       -2.455   1.644  -0.853  0.00  0.00    -0.327 N 
ATOM     12  H   LIG    1       -2.521   2.655  -1.085  0.00  0.00    +0.145 HD
ATOM     13  H   LIG    1       -3.041   0.991  -1.412  0.00  0.00    +0.145 HD
ENDBRANCH   2   9
BRANCH   2  14
ATOM     14  O   LIG    1       -1.522  -0.828  -1.185  0.00  0.00    -0.375 OA
ATOM     15  H   LIG    1       -2.501  -0.979  -1.102  0.00  0.00    +0.211 HD
ENDBRANCH   2  14
TORSDOF 3
