REMARK  Name = molecules/FYJJXENSONZJRG-UHFFFAOYSA-N.pdb
REMARK                            x       y       z     vdW  Elec       q    Type
REMARK                         _______ _______ _______ _____ _____    ______ ____
ROOT
ATOM      1  C   LIG    1       -0.716  -0.444  -0.024  0.00  0.00    +0.073 C 
ATOM      2  C   LIG    1       -1.942  -1.104   0.632  0.00  0.00    +0.035 C 
ATOM      3  C   LIG    1       -1.615  -2.496   1.136  0.00  0.00    +0.003 C 
ATOM      4  C   LIG    1       -2.242  -3.496   0.159  0.00  0.00    +0.000 C 
ATOM      5  C   LIG    1       -1.278  -3.645  -0.981  0.00  0.00    +0.000 C 
ATOM      6  C   LIG    1       -1.127  -2.276  -1.650  0.00  0.00    +0.003 C 
ATOM      7  C   LIG    1       -0.085  -1.436  -0.963  0.00  0.00    +0.035 C 
ENDROOT
BRANCH   1   8
ATOM      8  C   LIG    1       -1.237   0.674  -0.892  0.00  0.00    +0.070 C 
BRANCH   8   9
ATOM      9  C   LIG    1       -2.128   1.622  -0.210  0.00  0.00    -0.045 A 
ATOM     10  C   LIG    1       -1.675   2.654   0.541  0.00  0.00    +0.004 A 
ATOM     11  C   LIG    1       -2.553   3.562   1.162  0.00  0.00    +0.000 A 
ATOM     12  C   LIG    1       -3.894   3.378   0.990  0.00  0.00    +0.000 A 
ATOM     13  C   LIG    1       -4.353   2.334   0.230  0.00  0.00    +0.000 A 
ATOM     14  C   LIG    1       -3.508   1.448  -0.377  0.00  0.00    +0.004 A 
ENDBRANCH   8   9
ENDBRANCH   1   8
BRANCH   1  15
ATOM     15  O   LIG    1        0.051  -0.003   0.964  0.00  0.00    -0.373 OA
BRANCH  15  16
ATOM     16  C   LIG    1        1.302   0.385   0.937  0.00  0.00    +0.162 C 
BRANCH  16  17
ATOM     17  C   LIG    1        1.846   1.415   0.008  0.00  0.00    +0.043 C 
BRANCH  17  18
ATOM     18  C   LIG    1        3.347   1.627   0.327  0.00  0.00    +0.086 C 
BRANCH  18  19
ATOM     19  N   LIG    1        4.134   0.460   0.174  0.00  0.00    -0.308 NA
ATOM     20  C   LIG    1        5.339   0.444   0.960  0.00  0.00    +0.104 C 
ATOM     21  C   LIG    1        4.289   0.067  -1.181  0.00  0.00    +0.104 C 
ENDBRANCH  18  19
ENDBRANCH  17  18
ENDBRANCH  16  17
ENDBRANCH  15  16
ENDBRANCH   1  15
TORSDOF 7
