REMARK  Name = molecules/FYMHQCNFKNMJAV-HOTGVXAUSA-N.pdb
REMARK                            x       y       z     vdW  Elec       q    Type
REMARK                         _______ _______ _______ _____ _____    ______ ____
ROOT
ATOM      1  N   LIG    1       -3.063   0.552   0.307  0.00  0.00    -0.342 N 
ATOM      2  C   LIG    1       -4.317   0.085   0.554  0.00  0.00    +0.105 A 
ATOM      3  C   LIG    1       -4.530  -1.252   0.814  0.00  0.00    +0.122 A 
ATOM      4  C   LIG    1       -3.477  -2.132   0.827  0.00  0.00    +0.203 A 
ATOM      5  O   LIG    1       -3.701  -3.343   1.064  0.00  0.00    -0.286 OA
ATOM      6  C   LIG    1       -2.225  -1.641   0.579  0.00  0.00    +0.050 A 
ATOM      7  C   LIG    1       -1.194  -2.541   0.612  0.00  0.00    +0.054 A 
ATOM      8  C   LIG    1        0.090  -2.081   0.380  0.00  0.00    +0.146 A 
ATOM      9  F   LIG    1        1.133  -2.951   0.405  0.00  0.00    -0.203 F 
ATOM     10  C   LIG    1        0.333  -0.760   0.125  0.00  0.00    +0.085 A 
ATOM     11  C   LIG    1       -0.720   0.147   0.094  0.00  0.00    +0.100 A 
ATOM     12  C   LIG    1       -1.994  -0.284   0.315  0.00  0.00    +0.073 A 
ENDROOT
BRANCH  10  13
ATOM     13  N   LIG    1        1.635  -0.278  -0.111  0.00  0.00    -0.323 N 
ATOM     14  C   LIG    1        2.562   0.214   0.914  0.00  0.00    +0.126 C 
ATOM     15  C   LIG    1        3.878  -0.076   0.284  0.00  0.00    +0.101 C 
ATOM     16  N   LIG    1        4.979   0.681   0.776  0.00  0.00    -0.307 NA
ATOM     17  H   LIG    1        5.215   0.330   1.731  0.00  0.00    +0.122 HD
ATOM     18  C   LIG    1        6.128   0.361  -0.076  0.00  0.00    +0.109 C 
ATOM     19  C   LIG    1        5.823   0.526  -1.533  0.00  0.00    +0.175 C 
ATOM     20  O   LIG    1        4.642  -0.123  -1.920  0.00  0.00    -0.372 OA
ATOM     21  C   LIG    1        3.624   0.389  -1.158  0.00  0.00    +0.154 C 
ATOM     22  C   LIG    1        2.276  -0.191  -1.419  0.00  0.00    +0.138 C 
ENDBRANCH  10  13
BRANCH   1  23
ATOM     23  C   LIG    1       -2.896   1.957  -0.041  0.00  0.00    +0.087 C 
ATOM     24  C   LIG    1       -4.166   2.607  -0.689  0.00  0.00    +0.027 C 
ATOM     25  C   LIG    1       -2.941   2.357  -1.463  0.00  0.00    +0.027 C 
ENDBRANCH   1  23
BRANCH   3  26
ATOM     26  C   LIG    1       -5.867  -1.729   1.073  0.00  0.00    +0.342 C 
ATOM     27  O   LIG    1       -6.883  -0.986   1.078  0.00  0.00    -0.245 OA
BRANCH  26  28
ATOM     28  O   LIG    1       -6.104  -3.082   1.338  0.00  0.00    -0.477 OA
ATOM     29  H   LIG    1       -6.126  -3.761   0.579  0.00  0.00    +0.295 HD
ENDBRANCH  26  28
ENDBRANCH   3  26
BRANCH  11  30
ATOM     30  C   LIG    1       -0.427   1.539  -0.103  0.00  0.00    +0.103 C 
ATOM     31  N   LIG    1       -0.130   2.671  -0.244  0.00  0.00    -0.191 NA
ENDBRANCH  11  30
TORSDOF 5
