REMARK  Name = molecules/FYZGXAKJVDHGDR-UHFFFAOYSA-N.pdb
REMARK                            x       y       z     vdW  Elec       q    Type
REMARK                         _______ _______ _______ _____ _____    ______ ____
ROOT
ATOM      1  C   LIG    1        0.403  -0.148   0.044  0.00  0.00    +0.079 A 
ATOM      2  C   LIG    1       -0.467  -1.200   0.332  0.00  0.00    +0.131 A 
ATOM      3  C   LIG    1       -1.833  -1.016   0.284  0.00  0.00    +0.069 A 
ATOM      4  C   LIG    1       -2.387   0.202  -0.045  0.00  0.00    +0.028 A 
ATOM      5  C   LIG    1       -1.503   1.218  -0.322  0.00  0.00    +0.024 A 
ATOM      6  C   LIG    1       -0.126   1.081  -0.288  0.00  0.00    +0.018 A 
ENDROOT
BRANCH   1   7
ATOM      7  C   LIG    1        1.831  -0.402   0.110  0.00  0.00    +0.261 C 
ATOM      8  O   LIG    1        2.259  -1.554   0.422  0.00  0.00    -0.269 OA
ATOM      9  N   LIG    1        2.794   0.585  -0.160  0.00  0.00    -0.249 N 
ATOM     10  H   LIG    1        2.527   1.557  -0.423  0.00  0.00    +0.169 HD
BRANCH   9  11
ATOM     11  N   LIG    1        4.186   0.320  -0.090  0.00  0.00    -0.254 NA
ATOM     12  H   LIG    1        4.505   0.621   0.873  0.00  0.00    +0.140 HD
ATOM     13  H   LIG    1        4.681   0.923  -0.766  0.00  0.00    +0.140 HD
ENDBRANCH   9  11
ENDBRANCH   1   7
BRANCH   4  14
ATOM     14  N   LIG    1       -3.798   0.370  -0.087  0.00  0.00    -0.358 N 
ATOM     15  H   LIG    1       -4.383  -0.075   0.653  0.00  0.00    +0.142 HD
ATOM     16  H   LIG    1       -4.231   0.922  -0.840  0.00  0.00    +0.142 HD
ENDBRANCH   4  14
BRANCH   2  17
ATOM     17  O   LIG    1        0.014  -2.447   0.669  0.00  0.00    -0.506 OA
ATOM     18  H   LIG    1       -0.600  -3.202   0.875  0.00  0.00    +0.292 HD
ENDBRANCH   2  17
TORSDOF 4
