REMARK  Name = molecules/FZDZULUFHNDEDJ-UHFFFAOYSA-N.pdb
REMARK                            x       y       z     vdW  Elec       q    Type
REMARK                         _______ _______ _______ _____ _____    ______ ____
ROOT
ATOM      1  O   LIG    1       -0.330   1.409   1.067  0.00  0.00    -0.361 OA
ENDROOT
BRANCH   1   2
ATOM      2  C   LIG    1        0.965   1.786   1.213  0.00  0.00    +0.256 C 
BRANCH   2   5
ATOM      3  N   LIG    1        3.361   1.147   0.872  0.00  0.00    -0.282 N 
ATOM      4  H   LIG    1        3.634   2.033   1.345  0.00  0.00    +0.155 HD
ATOM      5  C   LIG    1        1.993   0.849   0.712  0.00  0.00    +0.243 C 
ATOM      6  O   LIG    1        1.621  -0.208   0.147  0.00  0.00    -0.273 OA
BRANCH   3   7
ATOM      7  C   LIG    1        4.381   0.284   0.410  0.00  0.00    +0.061 A 
ATOM      8  C   LIG    1        4.872  -0.698   1.248  0.00  0.00    +0.037 A 
ATOM      9  I   LIG    1        4.065  -0.857   3.188  0.00  0.00    -0.042 I 
ATOM     10  C   LIG    1        5.864  -1.571   0.861  0.00  0.00    +0.031 A 
ATOM     11  C   LIG    1        6.398  -1.468  -0.418  0.00  0.00    +0.029 A 
ATOM     12  I   LIG    1        7.912  -2.756  -1.093  0.00  0.00    -0.043 I 
ATOM     13  C   LIG    1        5.921  -0.486  -1.285  0.00  0.00    +0.087 A 
ATOM     14  C   LIG    1        4.929   0.363  -0.854  0.00  0.00    +0.051 A 
ATOM     15  I   LIG    1        4.227   1.839  -2.184  0.00  0.00    -0.041 I 
BRANCH  13  16
ATOM     16  C   LIG    1        6.485  -0.392  -2.608  0.00  0.00    +0.339 C 
ATOM     17  O   LIG    1        6.048   0.497  -3.384  0.00  0.00    -0.245 OA
BRANCH  16  18
ATOM     18  O   LIG    1        7.476  -1.214  -3.090  0.00  0.00    -0.477 OA
ATOM     19  H   LIG    1        8.333  -0.839  -3.477  0.00  0.00    +0.295 HD
ENDBRANCH  16  18
ENDBRANCH  13  16
ENDBRANCH   3   7
ENDBRANCH   2   5
ENDBRANCH   1   2
BRANCH   1  20
ATOM     20  C   LIG    1       -0.739   0.281   1.717  0.00  0.00    +0.256 C 
BRANCH  20  21
ATOM     21  C   LIG    1       -2.180  -0.026   1.485  0.00  0.00    +0.243 C 
ATOM     22  O   LIG    1       -2.699  -1.036   2.020  0.00  0.00    -0.273 OA
ATOM     23  N   LIG    1       -3.006   0.787   0.672  0.00  0.00    -0.282 N 
ATOM     24  H   LIG    1       -2.568   1.620   0.234  0.00  0.00    +0.155 HD
BRANCH  23  25
ATOM     25  C   LIG    1       -4.375   0.513   0.439  0.00  0.00    +0.061 A 
ATOM     26  C   LIG    1       -5.287   1.077   1.332  0.00  0.00    +0.037 A 
ATOM     27  I   LIG    1       -4.611   2.266   2.929  0.00  0.00    -0.042 I 
ATOM     28  C   LIG    1       -6.625   0.821   1.121  0.00  0.00    +0.031 A 
ATOM     29  C   LIG    1       -7.025   0.046   0.075  0.00  0.00    +0.029 A 
ATOM     30  I   LIG    1       -9.089  -0.296  -0.177  0.00  0.00    -0.043 I 
ATOM     31  C   LIG    1       -6.131  -0.521  -0.820  0.00  0.00    +0.087 A 
ATOM     32  C   LIG    1       -4.805  -0.276  -0.622  0.00  0.00    +0.051 A 
ATOM     33  I   LIG    1       -3.375  -1.092  -1.927  0.00  0.00    -0.041 I 
BRANCH  31  34
ATOM     34  C   LIG    1       -6.605  -1.342  -1.922  0.00  0.00    +0.339 C 
ATOM     35  O   LIG    1       -7.833  -1.537  -2.060  0.00  0.00    -0.245 OA
BRANCH  34  36
ATOM     36  O   LIG    1       -5.703  -1.889  -2.790  0.00  0.00    -0.477 OA
ATOM     37  H   LIG    1       -5.936  -2.593  -3.451  0.00  0.00    +0.295 HD
ENDBRANCH  34  36
ENDBRANCH  31  34
ENDBRANCH  23  25
ENDBRANCH  20  21
ENDBRANCH   1  20
TORSDOF 10
