REMARK  Name = molecules/FZERHIULMFGESH-UHFFFAOYSA-N.pdb
REMARK                            x       y       z     vdW  Elec       q    Type
REMARK                         _______ _______ _______ _____ _____    ______ ____
ROOT
ATOM      1  C   LIG    1       -0.333   0.159   0.006  0.00  0.00    +0.033 A 
ATOM      2  C   LIG    1       -1.297   1.141   0.273  0.00  0.00    +0.023 A 
ATOM      3  C   LIG    1       -2.645   0.896   0.189  0.00  0.00    +0.002 A 
ATOM      4  C   LIG    1       -3.105  -0.351  -0.168  0.00  0.00    +0.000 A 
ATOM      5  C   LIG    1       -2.191  -1.342  -0.438  0.00  0.00    +0.002 A 
ATOM      6  C   LIG    1       -0.822  -1.061  -0.344  0.00  0.00    +0.023 A 
ENDROOT
BRANCH   1   9
ATOM      7  C   LIG    1        3.512   0.236   0.070  0.00  0.00    +0.109 C 
ATOM      8  C   LIG    1        2.142  -0.320  -0.102  0.00  0.00    +0.214 C 
ATOM      9  N   LIG    1        1.028   0.496   0.117  0.00  0.00    -0.286 N 
ATOM     10  H   LIG    1        1.259   1.503   0.404  0.00  0.00    +0.155 HD
ATOM     11  O   LIG    1        2.003  -1.510  -0.440  0.00  0.00    -0.276 OA
ENDBRANCH   1   9
TORSDOF 1
