REMARK  Name = molecules/FZRNEERXGKQYPH-UHFFFAOYSA-N.pdb
REMARK                            x       y       z     vdW  Elec       q    Type
REMARK                         _______ _______ _______ _____ _____    ______ ____
ROOT
ATOM      1  C   LIG    1       -0.328   1.319  -0.118  0.00  0.00    -0.016 A 
ATOM      2  C   LIG    1       -1.546   0.662  -0.144  0.00  0.00    +0.026 A 
ATOM      3  C   LIG    1       -1.590  -0.611   0.325  0.00  0.00    +0.061 A 
ATOM      4  C   LIG    1       -2.791  -1.326   0.289  0.00  0.00    +0.159 A 
ATOM      5  C   LIG    1       -3.952  -0.799  -0.202  0.00  0.00    +0.162 A 
ATOM      6  C   LIG    1       -3.916   0.522  -0.690  0.00  0.00    +0.096 A 
ATOM      7  C   LIG    1       -2.709   1.231  -0.656  0.00  0.00    +0.143 A 
ATOM      8  O   LIG    1       -2.635   2.445  -1.137  0.00  0.00    -0.422 OA
ATOM      9  C   LIG    1       -1.504   3.099  -1.141  0.00  0.00    +0.338 A 
ATOM     10  O   LIG    1       -1.478   4.263  -1.619  0.00  0.00    -0.245 OA
ATOM     11  C   LIG    1       -0.306   2.594  -0.647  0.00  0.00    +0.097 A 
ENDROOT
BRANCH   4  12
ATOM     12  O   LIG    1       -2.705  -2.614   0.796  0.00  0.00    -0.503 OA
ATOM     13  H   LIG    1       -3.500  -3.213   0.795  0.00  0.00    +0.292 HD
ENDBRANCH   4  12
BRANCH   5  14
ATOM     14  O   LIG    1       -5.112  -1.530  -0.213  0.00  0.00    -0.503 OA
ATOM     15  H   LIG    1       -5.204  -2.462   0.114  0.00  0.00    +0.292 HD
ENDBRANCH   5  14
BRANCH   1  16
ATOM     16  C   LIG    1        0.728   0.711   0.675  0.00  0.00    +0.120 C 
BRANCH  16  17
ATOM     17  N   LIG    1        1.816   0.065   0.169  0.00  0.00    -0.294 NA
ATOM     18  C   LIG    1        2.518  -0.681   1.232  0.00  0.00    +0.113 C 
ATOM     19  C   LIG    1        3.781  -1.255   0.673  0.00  0.00    +0.175 C 
ATOM     20  O   LIG    1        3.486  -1.890  -0.505  0.00  0.00    -0.377 OA
ATOM     21  C   LIG    1        3.035  -1.054  -1.501  0.00  0.00    +0.175 C 
ATOM     22  C   LIG    1        2.615   0.343  -0.917  0.00  0.00    +0.113 C 
ENDBRANCH  16  17
ENDBRANCH   1  16
TORSDOF 4
