REMARK  Name = molecules/GAGWJHPBXLXJQN-UORFTKCHSA-N.pdb
REMARK                            x       y       z     vdW  Elec       q    Type
REMARK                         _______ _______ _______ _____ _____    ______ ____
ROOT
ATOM      1  N   LIG    1       -2.209  -0.192   0.283  0.00  0.00    -0.267 N 
ATOM      2  C   LIG    1       -1.053   0.316   0.732  0.00  0.00    +0.352 A 
ATOM      3  O   LIG    1       -0.982   1.516   1.133  0.00  0.00    -0.244 OA
ATOM      4  N   LIG    1        0.082  -0.404   0.783  0.00  0.00    -0.175 NA
ATOM      5  C   LIG    1        0.090  -1.678   0.378  0.00  0.00    +0.170 A 
ATOM      6  C   LIG    1       -1.112  -2.202  -0.087  0.00  0.00    +0.180 A 
ATOM      7  F   LIG    1       -1.136  -3.486  -0.504  0.00  0.00    -0.200 F 
ATOM      8  C   LIG    1       -2.261  -1.465  -0.137  0.00  0.00    +0.135 A 
ENDROOT
BRANCH   1  10
ATOM      9  C   LIG    1       -4.022   0.687  -1.113  0.00  0.00    +0.195 C 
ATOM     10  C   LIG    1       -3.367   0.650   0.265  0.00  0.00    +0.255 C 
ATOM     11  O   LIG    1       -4.358   0.258   1.130  0.00  0.00    -0.348 OA
ATOM     12  C   LIG    1       -5.576   0.609   0.628  0.00  0.00    +0.149 C 
ATOM     13  C   LIG    1       -6.435  -0.632   0.369  0.00  0.00    +0.041 C 
ATOM     14  C   LIG    1       -5.379   1.278  -0.705  0.00  0.00    +0.176 C 
BRANCH   9  15
ATOM     15  O   LIG    1       -3.348   1.501  -1.991  0.00  0.00    -0.385 OA
ATOM     16  H   LIG    1       -3.949   2.155  -2.381  0.00  0.00    +0.210 HD
ENDBRANCH   9  15
BRANCH  14  17
ATOM     17  O   LIG    1       -5.172   2.662  -0.519  0.00  0.00    -0.387 OA
ATOM     18  H   LIG    1       -5.960   3.078  -0.081  0.00  0.00    +0.210 HD
ENDBRANCH  14  17
ENDBRANCH   1  10
BRANCH   5  19
ATOM     19  N   LIG    1        1.276  -2.433   0.431  0.00  0.00    -0.233 N 
ATOM     20  C   LIG    1        2.473  -1.849   0.914  0.00  0.00    +0.406 C 
ATOM     21  O   LIG    1        3.507  -2.548   0.947  0.00  0.00    -0.226 OA
ATOM     22  H   LIG    1        1.291  -3.428   0.117  0.00  0.00    +0.160 HD
BRANCH  20  23
ATOM     23  O   LIG    1        2.469  -0.564   1.324  0.00  0.00    -0.450 OA
BRANCH  23  24
ATOM     24  C   LIG    1        3.514   0.186   1.788  0.00  0.00    +0.234 C 
BRANCH  24  25
ATOM     25  C   LIG    1        4.489   0.635   0.774  0.00  0.00    +0.041 C 
BRANCH  25  26
ATOM     26  C   LIG    1        5.174  -0.410   0.004  0.00  0.00    +0.003 C 
BRANCH  26  27
ATOM     27  C   LIG    1        6.192   0.262  -0.969  0.00  0.00    -0.003 C 
ATOM     28  C   LIG    1        7.204   1.051  -0.201  0.00  0.00    +0.004 C 
ENDBRANCH  26  27
ENDBRANCH  25  26
ENDBRANCH  24  25
ENDBRANCH  23  24
ENDBRANCH  20  23
ENDBRANCH   5  19
TORSDOF 9
