REMARK  Name = molecules/GAKMQHDJQHZUTJ-ULHLPKEOSA-N.pdb
REMARK                            x       y       z     vdW  Elec       q    Type
REMARK                         _______ _______ _______ _____ _____    ______ ____
ROOT
ATOM      1  C   LIG    1        1.396  -0.182  -1.776  0.00  0.00    +0.012 C 
ATOM      2  C   LIG    1        1.226  -0.376  -0.313  0.00  0.00    -0.017 C 
ATOM      3  C   LIG    1        0.622   0.833   0.392  0.00  0.00    -0.000 C 
ATOM      4  C   LIG    1       -0.797   0.908   0.058  0.00  0.00    +0.002 C 
ATOM      5  C   LIG    1       -1.501  -0.291   0.696  0.00  0.00    +0.035 C 
ATOM      6  C   LIG    1       -0.584  -1.389   0.985  0.00  0.00    +0.120 C 
ATOM      7  C   LIG    1       -2.718  -0.510  -0.147  0.00  0.00    +0.016 C 
ATOM      8  C   LIG    1       -3.444  -1.754   0.116  0.00  0.00    -0.012 C 
ATOM      9  C   LIG    1       -4.682  -1.763   0.535  0.00  0.00    +0.047 C 
ATOM     10  C   LIG    1       -5.456  -0.555   0.780  0.00  0.00    +0.179 C 
ATOM     11  O   LIG    1       -6.646  -0.555   1.181  0.00  0.00    -0.288 OA
ATOM     12  C   LIG    1       -4.763   0.703   0.529  0.00  0.00    +0.053 C 
ATOM     13  C   LIG    1       -3.519   0.717   0.109  0.00  0.00    -0.023 C 
ATOM     14  C   LIG    1       -2.909   2.084  -0.086  0.00  0.00    +0.193 C 
ATOM     15  F   LIG    1       -3.722   3.072   0.387  0.00  0.00    -0.241 F 
ATOM     16  C   LIG    1       -2.414  -0.522  -1.633  0.00  0.00    +0.020 C 
ATOM     17  C   LIG    1       -1.520   2.142   0.520  0.00  0.00    +0.045 C 
ATOM     18  C   LIG    1        1.532   1.897  -0.101  0.00  0.00    +0.008 C 
ATOM     19  C   LIG    1        2.904   1.229   0.062  0.00  0.00    -0.003 C 
ATOM     20  C   LIG    1        3.501   1.807   1.329  0.00  0.00    +0.008 C 
ATOM     21  C   LIG    1        2.625  -0.254   0.301  0.00  0.00    +0.067 C 
ATOM     22  C   LIG    1        0.529  -1.644  -0.010  0.00  0.00    +0.039 C 
ENDROOT
BRANCH   6  23
ATOM     23  O   LIG    1       -1.184  -2.552   1.386  0.00  0.00    -0.391 OA
ATOM     24  H   LIG    1       -0.733  -3.026   2.109  0.00  0.00    +0.210 HD
ENDBRANCH   6  23
BRANCH  21  25
ATOM     25  C   LIG    1        3.600  -1.131  -0.385  0.00  0.00    +0.162 C 
ATOM     26  O   LIG    1        3.259  -1.837  -1.308  0.00  0.00    -0.295 OA
BRANCH  25  27
ATOM     27  C   LIG    1        5.002  -1.149   0.058  0.00  0.00    +0.230 C 
BRANCH  27  28
ATOM     28  O   LIG    1        5.786  -2.025  -0.689  0.00  0.00    -0.388 OA
ATOM     29  H   LIG    1        6.365  -1.534  -1.321  0.00  0.00    +0.210 HD
ENDBRANCH  27  28
ENDBRANCH  25  27
ENDBRANCH  21  25
TORSDOF 4
