REMARK  Name = molecules/GAZGHCHCYRSPIV-SNVBAGLBSA-N.pdb
REMARK                            x       y       z     vdW  Elec       q    Type
REMARK                         _______ _______ _______ _____ _____    ______ ____
ROOT
ATOM      1  C   LIG    1       -1.405   0.610  -1.110  0.00  0.00    +0.157 C 
ENDROOT
BRANCH   1   7
ATOM      2  C   LIG    1       -3.307  -1.053  -1.047  0.00  0.00    +0.216 A 
ATOM      3  C   LIG    1       -4.559  -1.144  -0.432  0.00  0.00    +0.164 A 
ATOM      4  N   LIG    1       -4.679  -0.021   0.282  0.00  0.00    -0.239 NA
ATOM      5  C   LIG    1       -3.574   0.730   0.126  0.00  0.00    +0.108 A 
ATOM      6  C   LIG    1       -3.352   2.055   0.773  0.00  0.00    +0.086 C 
ATOM      7  N   LIG    1       -2.704   0.114  -0.695  0.00  0.00    -0.307 N 
BRANCH   2   8
ATOM      8  N   LIG    1       -2.740  -2.025  -1.908  0.00  0.00    +0.075 N 
ATOM      9  O   LIG    1       -3.388  -3.054  -2.155  0.00  0.00    -0.125 OA
ATOM     10  O   LIG    1       -1.508  -1.888  -2.483  0.00  0.00    -0.125 OA
ENDBRANCH   2   8
ENDBRANCH   1   7
BRANCH   1  11
ATOM     11  C   LIG    1       -0.294   0.147  -0.180  0.00  0.00    +0.148 C 
BRANCH  11  12
ATOM     12  O   LIG    1       -0.531   0.707   1.077  0.00  0.00    -0.389 OA
ATOM     13  H   LIG    1        0.253   0.628   1.666  0.00  0.00    +0.210 HD
ENDBRANCH  11  12
BRANCH  11  14
ATOM     14  C   LIG    1        1.016   0.707  -0.672  0.00  0.00    +0.117 C 
BRANCH  14  15
ATOM     15  N   LIG    1        2.090   0.359   0.242  0.00  0.00    -0.295 NA
ATOM     16  C   LIG    1        2.189  -1.059   0.431  0.00  0.00    +0.112 C 
ATOM     17  C   LIG    1        3.528  -1.661   0.498  0.00  0.00    +0.175 C 
ATOM     18  O   LIG    1        4.620  -0.869   0.331  0.00  0.00    -0.377 OA
ATOM     19  C   LIG    1        4.394   0.421   0.768  0.00  0.00    +0.175 C 
ATOM     20  C   LIG    1        3.326   0.966  -0.191  0.00  0.00    +0.112 C 
ENDBRANCH  14  15
ENDBRANCH  11  14
ENDBRANCH   1  11
TORSDOF 6
