REMARK  Name = molecules/GBABOYUKABKIAF-IELIFDKJSA-N.pdb
REMARK                            x       y       z     vdW  Elec       q    Type
REMARK                         _______ _______ _______ _____ _____    ______ ____
ROOT
ATOM      1  C   LIG    1        4.084  -0.672  -0.108  0.00  0.00    +0.045 C 
ATOM      2  C   LIG    1        2.647  -0.859   0.074  0.00  0.00    +0.083 C 
ATOM      3  N   LIG    1        2.098  -2.139  -0.387  0.00  0.00    -0.294 NA
ATOM      4  C   LIG    1        2.868  -3.256  -0.024  0.00  0.00    +0.111 C 
ATOM      5  C   LIG    1        4.222  -3.108  -0.621  0.00  0.00    -0.015 C 
ATOM      6  C   LIG    1        1.853  -1.939  -1.798  0.00  0.00    +0.086 C 
ATOM      7  C   LIG    1        1.118  -0.586  -1.782  0.00  0.00    +0.030 C 
ATOM      8  C   LIG    1        1.679   0.070  -0.557  0.00  0.00    +0.037 C 
ATOM      9  C   LIG    1        0.545   0.429   0.374  0.00  0.00    -0.016 A 
ATOM     10  C   LIG    1        0.918   1.582   1.006  0.00  0.00    +0.037 A 
ATOM     11  C   LIG    1        0.038   2.135   1.910  0.00  0.00    +0.069 A 
ATOM     12  C   LIG    1       -1.206   1.584   2.212  0.00  0.00    +0.126 A 
ATOM     13  C   LIG    1       -1.573   0.427   1.572  0.00  0.00    +0.017 A 
ATOM     14  N   LIG    1        2.244   1.990   0.537  0.00  0.00    -0.325 N 
ATOM     15  C   LIG    1        3.115   2.771   1.359  0.00  0.00    +0.129 C 
ATOM     16  C   LIG    1       -0.668  -0.124   0.657  0.00  0.00    +0.014 A 
ATOM     17  C   LIG    1        2.289   1.428  -0.768  0.00  0.00    +0.132 C 
ATOM     18  C   LIG    1        3.555   1.383  -1.508  0.00  0.00    +0.219 C 
ATOM     19  C   LIG    1        4.733  -1.900  -0.634  0.00  0.00    -0.018 C 
ATOM     20  C   LIG    1        4.597   0.469  -0.915  0.00  0.00    +0.232 C 
ENDROOT
BRANCH  13  21
ATOM     21  C   LIG    1       -2.904  -0.196   1.808  0.00  0.00    +0.136 C 
ATOM     22  C   LIG    1       -4.066   0.705   1.581  0.00  0.00    +0.034 C 
ATOM     23  C   LIG    1       -4.606   0.558   0.234  0.00  0.00    +0.009 C 
ATOM     24  C   LIG    1       -5.538  -0.656   0.087  0.00  0.00    +0.088 C 
ATOM     25  N   LIG    1       -5.387  -0.975  -1.317  0.00  0.00    -0.297 NA
ATOM     26  C   LIG    1       -3.983  -1.286  -1.473  0.00  0.00    +0.122 C 
ATOM     27  C   LIG    1       -3.312  -1.846  -0.290  0.00  0.00    -0.004 A 
ATOM     28  C   LIG    1       -2.896  -3.182  -0.377  0.00  0.00    +0.004 A 
ATOM     29  C   LIG    1       -2.238  -3.548   0.776  0.00  0.00    +0.047 A 
ATOM     30  N   LIG    1       -2.252  -2.463   1.551  0.00  0.00    -0.357 N 
ATOM     31  H   LIG    1       -1.772  -2.475   2.503  0.00  0.00    +0.166 HD
ATOM     32  C   LIG    1       -1.733  -4.824   0.933  0.00  0.00    +0.026 A 
ATOM     33  C   LIG    1       -1.899  -5.728  -0.087  0.00  0.00    +0.002 A 
ATOM     34  C   LIG    1       -2.547  -5.393  -1.242  0.00  0.00    +0.001 A 
ATOM     35  C   LIG    1       -3.057  -4.101  -1.399  0.00  0.00    +0.010 A 
ATOM     36  C   LIG    1       -5.780   0.173  -2.093  0.00  0.00    +0.092 C 
ATOM     37  C   LIG    1       -6.196   1.359  -1.307  0.00  0.00    -0.006 C 
ATOM     38  C   LIG    1       -5.494   1.681  -0.225  0.00  0.00    +0.005 C 
ATOM     39  C   LIG    1       -2.892  -1.413   0.949  0.00  0.00    +0.043 A 
BRANCH  21  40
ATOM     40  C   LIG    1       -3.072  -0.696   3.221  0.00  0.00    +0.323 C 
ATOM     41  O   LIG    1       -3.561  -1.830   3.441  0.00  0.00    -0.249 OA
BRANCH  40  42
ATOM     42  O   LIG    1       -2.714   0.028   4.338  0.00  0.00    -0.467 OA
ATOM     43  C   LIG    1       -2.895  -0.484   5.633  0.00  0.00    +0.280 C 
ENDBRANCH  40  42
ENDBRANCH  21  40
BRANCH  37  44
ATOM     44  C   LIG    1       -7.389   2.187  -1.725  0.00  0.00    +0.005 C 
ATOM     45  C   LIG    1       -7.170   2.756  -3.110  0.00  0.00    +0.004 C 
ENDBRANCH  37  44
ENDBRANCH  13  21
BRANCH   1  46
ATOM     46  C   LIG    1        4.680  -0.632   1.326  0.00  0.00    +0.013 C 
ATOM     47  C   LIG    1        6.153  -0.448   1.331  0.00  0.00    +0.005 C 
ENDBRANCH   1  46
BRANCH  12  48
ATOM     48  O   LIG    1       -2.052   2.185   3.130  0.00  0.00    -0.495 OA
ATOM     49  C   LIG    1       -1.621   3.377   3.761  0.00  0.00    +0.277 C 
ENDBRANCH  12  48
BRANCH  18  50
ATOM     50  C   LIG    1        4.021   2.736  -1.823  0.00  0.00    +0.345 C 
ATOM     51  O   LIG    1        3.917   3.167  -3.028  0.00  0.00    -0.247 OA
BRANCH  50  52
ATOM     52  O   LIG    1        4.587   3.652  -0.958  0.00  0.00    -0.466 OA
ATOM     53  C   LIG    1        5.009   4.950  -1.383  0.00  0.00    +0.280 C 
ENDBRANCH  50  52
ENDBRANCH  18  50
BRANCH  18  54
ATOM     54  O   LIG    1        3.184   0.861  -2.803  0.00  0.00    -0.373 OA
ATOM     55  H   LIG    1        2.764   1.609  -3.320  0.00  0.00    +0.211 HD
ENDBRANCH  18  54
BRANCH  20  56
ATOM     56  O   LIG    1        5.540   0.076  -1.927  0.00  0.00    -0.457 OA
BRANCH  56  57
ATOM     57  C   LIG    1        6.830   0.467  -2.015  0.00  0.00    +0.304 C 
ATOM     58  O   LIG    1        7.315   1.231  -1.184  0.00  0.00    -0.251 OA
ATOM     59  C   LIG    1        7.671  -0.032  -3.127  0.00  0.00    +0.136 C 
ENDBRANCH  56  57
ENDBRANCH  20  56
TORSDOF 11
