REMARK  Name = molecules/GBBSUAFBMRNDJC-MRXNPFEDSA-N.pdb
REMARK                            x       y       z     vdW  Elec       q    Type
REMARK                         _______ _______ _______ _____ _____    ______ ____
ROOT
ATOM      1  C   LIG    1       -1.680  -1.137   0.703  0.00  0.00    +0.328 C 
ATOM      2  C   LIG    1       -1.661  -2.624   0.664  0.00  0.00    +0.131 A 
ATOM      3  N   LIG    1       -0.843  -3.478   1.282  0.00  0.00    -0.251 NA
ATOM      4  C   LIG    1       -1.008  -4.798   1.095  0.00  0.00    +0.131 A 
ATOM      5  C   LIG    1       -2.005  -5.290   0.278  0.00  0.00    +0.131 A 
ATOM      6  N   LIG    1       -2.835  -4.445  -0.349  0.00  0.00    -0.247 NA
ATOM      7  C   LIG    1       -2.656  -3.121  -0.151  0.00  0.00    +0.153 A 
ATOM      8  C   LIG    1       -3.362  -1.928  -0.650  0.00  0.00    +0.275 C 
ATOM      9  O   LIG    1       -4.345  -1.982  -1.435  0.00  0.00    -0.268 OA
ATOM     10  N   LIG    1       -2.786  -0.741  -0.132  0.00  0.00    -0.208 N 
ENDROOT
BRANCH  10  11
ATOM     11  C   LIG    1       -3.188   0.600  -0.360  0.00  0.00    +0.131 A 
ATOM     12  C   LIG    1       -3.368   1.514   0.658  0.00  0.00    +0.045 A 
ATOM     13  C   LIG    1       -3.759   2.820   0.418  0.00  0.00    +0.025 A 
ATOM     14  C   LIG    1       -3.968   3.191  -0.891  0.00  0.00    +0.059 A 
ATOM     15 CL   LIG    1       -4.460   4.851  -1.169  0.00  0.00    -0.082 Cl
ATOM     16  C   LIG    1       -3.791   2.290  -1.901  0.00  0.00    +0.132 A 
ATOM     17  N   LIG    1       -3.411   1.035  -1.612  0.00  0.00    -0.238 NA
ENDBRANCH  10  11
BRANCH   1  18
ATOM     18  O   LIG    1       -0.446  -0.656   0.239  0.00  0.00    -0.422 OA
BRANCH  18  19
ATOM     19  C   LIG    1        0.366   0.073   1.091  0.00  0.00    +0.405 C 
ATOM     20  O   LIG    1        0.001   0.305   2.276  0.00  0.00    -0.226 OA
ATOM     21  N   LIG    1        1.633   0.581   0.658  0.00  0.00    -0.265 N 
ATOM     22  C   LIG    1        2.469   1.335   1.561  0.00  0.00    +0.126 C 
ATOM     23  C   LIG    1        3.630   1.884   0.801  0.00  0.00    +0.103 C 
ATOM     24  N   LIG    1        4.390   0.845   0.155  0.00  0.00    -0.302 NA
ATOM     25  C   LIG    1        5.496   1.434  -0.577  0.00  0.00    +0.105 C 
ATOM     26  C   LIG    1        3.592  -0.024  -0.673  0.00  0.00    +0.103 C 
ATOM     27  C   LIG    1        2.132   0.370  -0.687  0.00  0.00    +0.126 C 
ENDBRANCH  18  19
ENDBRANCH   1  18
TORSDOF 3
