REMARK  Name = molecules/GBFLZEXEOZUWRN-VKHMYHEASA-N.pdb
REMARK                            x       y       z     vdW  Elec       q    Type
REMARK                         _______ _______ _______ _____ _____    ______ ____
ROOT
ATOM      1  C   UNK    1       -1.775  -0.110  -0.582  0.00  0.00    +0.171 C 
ENDROOT
BRANCH   1   2
ATOM      2  N   UNK    1       -1.504  -0.126  -1.990  0.00  0.00    -0.318 NA
ATOM      3  H   UNK    1       -0.566   0.257  -2.248  0.00  0.00    +0.119 HD
ATOM      4  H   UNK    1       -2.269   0.237  -2.582  0.00  0.00    +0.119 HD
ENDBRANCH   1   2
BRANCH   1   5
ATOM      5  C   UNK    1       -2.819   0.886  -0.219  0.00  0.00    +0.323 C 
ATOM      6  O   UNK    1       -3.325   1.569  -1.128  0.00  0.00    -0.249 OA
BRANCH   5   7
ATOM      7  O   UNK    1       -3.231   1.068   1.076  0.00  0.00    -0.480 OA
ATOM      8  H   UNK    1       -3.166   0.326   1.766  0.00  0.00    +0.295 HD
ENDBRANCH   5   7
ENDBRANCH   1   5
BRANCH   1   9
ATOM      9  C   UNK    1       -0.495   0.179   0.215  0.00  0.00    +0.099 C 
BRANCH   9  10
ATOM     10  S   UNK    1        0.667  -1.145  -0.188  0.00  0.00    -0.147 S 
BRANCH  10  11
ATOM     11  C   UNK    1        2.238  -0.965   0.665  0.00  0.00    +0.189 C 
BRANCH  11  12
ATOM     12  C   UNK    1        2.997   0.218   0.234  0.00  0.00    +0.315 C 
ATOM     13  O   UNK    1        2.576   1.003  -0.633  0.00  0.00    -0.250 OA
BRANCH  12  14
ATOM     14  O   UNK    1        4.230   0.478   0.811  0.00  0.00    -0.480 OA
ATOM     15  H   UNK    1        4.536   0.087   1.684  0.00  0.00    +0.295 HD
ENDBRANCH  12  14
ENDBRANCH  11  12
ENDBRANCH  10  11
ENDBRANCH   9  10
ENDBRANCH   1   9
TORSDOF 8
