REMARK  Name = molecules/GBLRQXKSCRCLBZ-JBSRGRPHSA-N.pdb
REMARK                            x       y       z     vdW  Elec       q    Type
REMARK                         _______ _______ _______ _____ _____    ______ ____
ROOT
ATOM      1  C   LIG    1        1.544   1.606  -1.793  0.00  0.00    +0.132 C 
ENDROOT
BRANCH   1   2
ATOM      2  C   LIG    1        1.719   1.045  -0.440  0.00  0.00    +0.308 C 
ATOM      3  O   LIG    1        1.278  -0.050  -0.019  0.00  0.00    -0.251 OA
BRANCH   2   4
ATOM      4  O   LIG    1        2.426   1.791   0.436  0.00  0.00    -0.465 OA
BRANCH   4   5
ATOM      5  C   LIG    1        2.855   1.786   1.697  0.00  0.00    +0.230 C 
BRANCH   5   6
ATOM      6  C   LIG    1        3.747   0.671   2.208  0.00  0.00    +0.023 C 
BRANCH   6   7
ATOM      7  C   LIG    1        4.967   0.609   1.298  0.00  0.00    -0.071 C 
BRANCH   7   9
ATOM      8  C   LIG    1        6.666  -1.023   0.760  0.00  0.00    -0.026 C 
ATOM      9  N   LIG    1        5.973  -0.358   1.780  0.00  0.00    +0.383 N 
ATOM     10  C   LIG    1        6.741   0.302   2.794  0.00  0.00    -0.070 C 
ATOM     11  C   LIG    1        8.158   0.601   2.389  0.00  0.00    +0.017 C 
ATOM     12  C   LIG    1        8.779  -0.649   1.896  0.00  0.00    -0.040 A 
ATOM     13  C   LIG    1       10.031  -1.010   2.241  0.00  0.00    +0.053 A 
ATOM     14  C   LIG    1       10.550  -2.268   1.875  0.00  0.00    +0.165 A 
ATOM     15  C   LIG    1        9.768  -3.119   1.170  0.00  0.00    +0.204 A 
ATOM     16  C   LIG    1        8.469  -2.765   0.799  0.00  0.00    +0.167 A 
ATOM     17  C   LIG    1        5.182  -1.375   2.520  0.00  0.00    -0.091 C 
ATOM     18  C   LIG    1        7.989  -1.543   1.158  0.00  0.00    -0.011 A 
BRANCH  14  19
ATOM     19  O   LIG    1       11.837  -2.646   2.212  0.00  0.00    -0.491 OA
ATOM     20  C   LIG    1       12.639  -1.701   2.919  0.00  0.00    +0.277 C 
ENDBRANCH  14  19
BRANCH  16  21
ATOM     21  O   LIG    1        7.737  -3.689   0.080  0.00  0.00    -0.491 OA
ATOM     22  C   LIG    1        7.872  -3.796  -1.311  0.00  0.00    +0.277 C 
ENDBRANCH  16  21
BRANCH  15  23
ATOM     23  O   LIG    1       10.187  -4.399   0.763  0.00  0.00    -0.488 OA
ATOM     24  C   LIG    1        9.939  -5.487   1.659  0.00  0.00    +0.277 C 
ENDBRANCH  15  23
BRANCH   8  25
ATOM     25  C   LIG    1        6.708  -0.455  -0.613  0.00  0.00    +0.025 C 
BRANCH  25  26
ATOM     26  C   LIG    1        7.659   0.631  -0.879  0.00  0.00    -0.041 A 
ATOM     27  C   LIG    1        7.335   1.952  -0.949  0.00  0.00    +0.053 A 
ATOM     28  C   LIG    1        8.265   2.943  -1.258  0.00  0.00    +0.165 A 
ATOM     29  C   LIG    1        9.569   2.532  -1.495  0.00  0.00    +0.204 A 
ATOM     30  C   LIG    1        9.936   1.207  -1.433  0.00  0.00    +0.165 A 
ATOM     31  C   LIG    1        8.991   0.277  -1.130  0.00  0.00    +0.053 A 
BRANCH  29  32
ATOM     32  O   LIG    1       10.495   3.507  -1.801  0.00  0.00    -0.488 OA
ATOM     33  C   LIG    1       10.606   3.896  -3.172  0.00  0.00    +0.277 C 
ENDBRANCH  29  32
BRANCH  30  34
ATOM     34  O   LIG    1       11.261   0.779  -1.667  0.00  0.00    -0.491 OA
ATOM     35  C   LIG    1       11.565  -0.603  -1.572  0.00  0.00    +0.277 C 
ENDBRANCH  30  34
BRANCH  28  36
ATOM     36  O   LIG    1        7.931   4.280  -1.330  0.00  0.00    -0.491 OA
ATOM     37  C   LIG    1        6.665   4.829  -1.109  0.00  0.00    +0.277 C 
ENDBRANCH  28  36
ENDBRANCH  25  26
ENDBRANCH   8  25
ENDBRANCH   7   9
ENDBRANCH   6   7
ENDBRANCH   5   6
ENDBRANCH   4   5
ENDBRANCH   2   4
ENDBRANCH   1   2
BRANCH   1  38
ATOM     38  C   LIG    1        0.959   0.698  -2.772  0.00  0.00    +0.132 C 
BRANCH  38  39
ATOM     39  C   LIG    1       -0.391   0.225  -2.465  0.00  0.00    +0.308 C 
ATOM     40  O   LIG    1       -1.009  -0.307  -3.463  0.00  0.00    -0.251 OA
BRANCH  39  41
ATOM     41  O   LIG    1       -1.039   0.284  -1.267  0.00  0.00    -0.465 OA
BRANCH  41  42
ATOM     42  C   LIG    1       -2.389  -0.271  -1.237  0.00  0.00    +0.230 C 
BRANCH  42  43
ATOM     43  C   LIG    1       -3.370   0.560  -1.997  0.00  0.00    +0.023 C 
BRANCH  43  44
ATOM     44  C   LIG    1       -4.666  -0.075  -2.206  0.00  0.00    -0.071 C 
BRANCH  44  45
ATOM     45  N   LIG    1       -5.564  -0.563  -1.302  0.00  0.00    +0.383 N 
ATOM     46  C   LIG    1       -5.038  -0.909   0.021  0.00  0.00    -0.070 C 
ATOM     47  C   LIG    1       -6.052  -1.535   0.945  0.00  0.00    +0.017 C 
ATOM     48  C   LIG    1       -7.409  -1.643   0.417  0.00  0.00    -0.040 A 
ATOM     49  C   LIG    1       -8.325  -2.564   0.866  0.00  0.00    +0.053 A 
ATOM     50  C   LIG    1       -9.598  -2.697   0.349  0.00  0.00    +0.165 A 
ATOM     51  C   LIG    1       -9.996  -1.850  -0.697  0.00  0.00    +0.204 A 
ATOM     52  C   LIG    1       -9.102  -0.918  -1.168  0.00  0.00    +0.167 A 
ATOM     53  C   LIG    1       -7.831  -0.805  -0.630  0.00  0.00    -0.011 A 
ATOM     54  C   LIG    1       -6.837   0.140  -1.093  0.00  0.00    -0.026 C 
ATOM     55  C   LIG    1       -6.009  -1.899  -1.801  0.00  0.00    -0.091 C 
BRANCH  51  56
ATOM     56  O   LIG    1      -11.269  -1.985  -1.213  0.00  0.00    -0.488 OA
ATOM     57  C   LIG    1      -12.380  -1.254  -0.747  0.00  0.00    +0.277 C 
ENDBRANCH  51  56
BRANCH  52  58
ATOM     58  O   LIG    1       -9.483  -0.080  -2.214  0.00  0.00    -0.491 OA
ATOM     59  C   LIG    1       -9.302  -0.425  -3.575  0.00  0.00    +0.277 C 
ENDBRANCH  52  58
BRANCH  50  60
ATOM     60  O   LIG    1      -10.538  -3.615   0.779  0.00  0.00    -0.491 OA
ATOM     61  C   LIG    1      -10.140  -4.482   1.847  0.00  0.00    +0.277 C 
ENDBRANCH  50  60
BRANCH  54  62
ATOM     62  C   LIG    1       -6.717   1.393  -0.362  0.00  0.00    +0.025 C 
BRANCH  62  63
ATOM     63  C   LIG    1       -8.001   1.980   0.088  0.00  0.00    -0.041 A 
ATOM     64  C   LIG    1       -8.258   1.857   1.483  0.00  0.00    +0.053 A 
ATOM     65  C   LIG    1       -9.434   2.255   2.026  0.00  0.00    +0.165 A 
ATOM     66  C   LIG    1      -10.445   2.793   1.296  0.00  0.00    +0.204 A 
ATOM     67  C   LIG    1      -10.220   2.931  -0.099  0.00  0.00    +0.165 A 
ATOM     68  C   LIG    1       -9.003   2.523  -0.661  0.00  0.00    +0.053 A 
BRANCH  67  69
ATOM     69  O   LIG    1      -11.243   3.462  -0.778  0.00  0.00    -0.491 OA
ATOM     70  C   LIG    1      -11.360   3.770  -2.166  0.00  0.00    +0.277 C 
ENDBRANCH  67  69
BRANCH  66  71
ATOM     71  O   LIG    1      -11.640   3.200   1.863  0.00  0.00    -0.488 OA
ATOM     72  C   LIG    1      -12.580   2.167   2.142  0.00  0.00    +0.277 C 
ENDBRANCH  66  71
BRANCH  65  73
ATOM     73  O   LIG    1       -9.636   2.113   3.450  0.00  0.00    -0.491 OA
ATOM     74  C   LIG    1       -8.510   1.615   4.140  0.00  0.00    +0.277 C 
ENDBRANCH  65  73
ENDBRANCH  62  63
ENDBRANCH  54  62
ENDBRANCH  44  45
ENDBRANCH  43  44
ENDBRANCH  42  43
ENDBRANCH  41  42
ENDBRANCH  39  41
ENDBRANCH  38  39
ENDBRANCH   1  38
TORSDOF 29
