REMARK  Name = molecules/GCFBRXLSHGKWDP-XCGNWRKASA-N.pdb
REMARK                            x       y       z     vdW  Elec       q    Type
REMARK                         _______ _______ _______ _____ _____    ______ ____
ROOT
ATOM      1  N   LIG    1        0.774  -0.719   0.573  0.00  0.00    -0.300 N 
ATOM      2  C   LIG    1       -0.608  -0.962   0.762  0.00  0.00    +0.239 C 
ATOM      3  O   LIG    1       -0.946  -1.636   1.780  0.00  0.00    -0.273 OA
ATOM      4  H   LIG    1        1.067  -0.162  -0.254  0.00  0.00    +0.150 HD
ENDROOT
BRANCH   1   9
ATOM      5  CA  LIG    1        4.993   0.118   1.337  0.00  0.00    +0.123 C 
ATOM      6  N   LIG    1        3.649  -0.364   1.583  0.00  0.00    -0.249 N 
ATOM      7  C   LIG    1        2.436  -0.118   2.266  0.00  0.00    +0.244 C 
ATOM      8  O   LIG    1        1.933   0.623   3.150  0.00  0.00    -0.273 OA
ATOM      9  CA  LIG    1        1.734  -1.224   1.490  0.00  0.00    +0.191 C 
ATOM     10  C   LIG    1        3.098  -1.572   1.003  0.00  0.00    +0.169 C 
ATOM     11  S   LIG    1        3.349  -1.465  -0.782  0.00  0.00    -0.131 S 
ATOM     12  C   LIG    1        4.667  -0.326  -1.100  0.00  0.00    +0.104 C 
ATOM     13  C   LIG    1        5.466   0.111   0.108  0.00  0.00    -0.021 C 
BRANCH   5  14
ATOM     14  C   LIG    1        5.724   0.571   2.491  0.00  0.00    +0.351 C 
ATOM     15  O   LIG    1        6.886   0.990   2.507  0.00  0.00    -0.244 OA
BRANCH  14  16
ATOM     16  OXT LIG    1        5.097   0.551   3.757  0.00  0.00    -0.476 OA
ATOM     17  HXT LIG    1        5.015   1.468   4.199  0.00  0.00    +0.295 HD
ENDBRANCH  14  16
ENDBRANCH   5  14
BRANCH  13  18
ATOM     18  C   LIG    1        6.816   0.574  -0.220  0.00  0.00    +0.111 C 
BRANCH  18  19
ATOM     19  S   LIG    1        7.851  -0.755  -0.930  0.00  0.00    -0.080 S 
BRANCH  19  20
ATOM     20  C   LIG    1        9.446   0.042  -1.258  0.00  0.00    +0.209 A 
ATOM     21  N   LIG    1       10.488   0.131  -0.442  0.00  0.00    -0.102 NA
ATOM     22  N   LIG    1       11.426   0.798  -1.090  0.00  0.00    -0.022 NA
ATOM     23  N   LIG    1       10.996   1.128  -2.288  0.00  0.00    -0.043 NA
ATOM     24  N   LIG    1        9.769   0.663  -2.402  0.00  0.00    -0.223 N 
ATOM     25  C   LIG    1        8.902   0.787  -3.567  0.00  0.00    +0.177 C 
ENDBRANCH  19  20
ENDBRANCH  18  19
ENDBRANCH  13  18
ENDBRANCH   1   9
BRANCH   2  26
ATOM     26  CA  LIG    1       -1.689  -0.491  -0.132  0.00  0.00    +0.191 C 
BRANCH  26  27
ATOM     27  N   LIG    1       -2.936  -0.242   0.605  0.00  0.00    -0.284 N 
ATOM     28  H   LIG    1       -3.266  -1.011   1.211  0.00  0.00    +0.151 HD
ATOM     29  C   LIG    1       -3.642   0.957   0.486  0.00  0.00    +0.310 C 
ATOM     30  N   LIG    1       -4.826   1.240   1.189  0.00  0.00    -0.217 N 
ATOM     31  C   LIG    1       -5.441   0.401   2.152  0.00  0.00    +0.309 C 
ATOM     32  O   LIG    1       -4.779  -0.559   2.664  0.00  0.00    -0.264 OA
ATOM     33  C   LIG    1       -6.824   0.640   2.554  0.00  0.00    +0.302 C 
ATOM     34  O   LIG    1       -7.364  -0.103   3.408  0.00  0.00    -0.265 OA
ATOM     35  N   LIG    1       -7.513   1.732   1.948  0.00  0.00    -0.293 N 
ATOM     36  C   LIG    1       -6.965   2.228   0.704  0.00  0.00    +0.127 C 
ATOM     37  C   LIG    1       -5.504   2.529   0.950  0.00  0.00    +0.137 C 
ATOM     38  O   LIG    1       -3.213   1.878  -0.296  0.00  0.00    -0.252 OA
BRANCH  35  39
ATOM     39  C   LIG    1       -8.674   2.291   2.578  0.00  0.00    +0.105 C 
ATOM     40  C   LIG    1       -9.921   1.547   2.131  0.00  0.00    +0.024 C 
ENDBRANCH  35  39
ENDBRANCH  26  27
BRANCH  26  41
ATOM     41  C   LIG    1       -1.939  -1.501  -1.216  0.00  0.00    -0.018 A 
ATOM     42  C   LIG    1       -2.740  -2.614  -0.974  0.00  0.00    +0.009 A 
ATOM     43  C   LIG    1       -2.972  -3.550  -1.950  0.00  0.00    +0.046 A 
ATOM     44  C   LIG    1       -2.426  -3.432  -3.210  0.00  0.00    +0.117 A 
ATOM     45  C   LIG    1       -1.627  -2.330  -3.468  0.00  0.00    +0.046 A 
ATOM     46  C   LIG    1       -1.404  -1.401  -2.479  0.00  0.00    +0.009 A 
BRANCH  44  47
ATOM     47  O   LIG    1       -2.635  -4.359  -4.226  0.00  0.00    -0.507 OA
ATOM     48  H   LIG    1       -3.391  -4.314  -4.895  0.00  0.00    +0.292 HD
ENDBRANCH  44  47
ENDBRANCH  26  41
ENDBRANCH   2  26
TORSDOF 11
