REMARK  Name = molecules/GCHKUUOPYMFGEY-VMPITWQZSA-N.pdb
REMARK                            x       y       z     vdW  Elec       q    Type
REMARK                         _______ _______ _______ _____ _____    ______ ____
ROOT
ATOM      1  C   LIG    1        0.234  -0.241  -0.240  0.00  0.00    +0.065 C 
ATOM      2  C   LIG    1       -0.587   0.775  -0.145  0.00  0.00    +0.104 C 
ENDROOT
BRANCH   1   3
ATOM      3  C   LIG    1        1.659  -0.148  -0.425  0.00  0.00    +0.136 A 
ATOM      4  N   LIG    1        2.611  -0.825   0.298  0.00  0.00    -0.309 N 
ATOM      5  C   LIG    1        2.249  -1.698   1.409  0.00  0.00    +0.152 C 
ATOM      6  C   LIG    1        3.842  -0.562  -0.172  0.00  0.00    +0.216 A 
ATOM      7  C   LIG    1        3.663   0.314  -1.233  0.00  0.00    +0.164 A 
ATOM      8  N   LIG    1        2.369   0.529  -1.345  0.00  0.00    -0.234 NA
BRANCH   6   9
ATOM      9  N   LIG    1        5.093  -1.044   0.300  0.00  0.00    +0.075 N 
ATOM     10  O   LIG    1        5.211  -1.884   1.365  0.00  0.00    -0.125 OA
ATOM     11  O   LIG    1        6.140  -0.691  -0.278  0.00  0.00    -0.125 OA
ENDBRANCH   6   9
ENDBRANCH   1   3
BRANCH   2  12
ATOM     12  C   LIG    1       -0.099   2.122  -0.156  0.00  0.00    +0.167 C 
ATOM     13  C   LIG    1       -1.061   3.244  -0.064  0.00  0.00    +0.092 C 
ATOM     14  O   LIG    1        1.114   2.401  -0.240  0.00  0.00    -0.292 OA
ENDBRANCH   2  12
BRANCH   2  15
ATOM     15  C   LIG    1       -2.043   0.489   0.036  0.00  0.00    +0.343 C 
ATOM     16  O   LIG    1       -2.871   1.426   0.112  0.00  0.00    -0.245 OA
BRANCH  15  17
ATOM     17  O   LIG    1       -2.508  -0.782   0.119  0.00  0.00    -0.461 OA
BRANCH  17  18
ATOM     18  C   LIG    1       -3.823  -1.225   0.271  0.00  0.00    +0.229 C 
ATOM     19  C   LIG    1       -4.747  -0.832  -0.854  0.00  0.00    +0.048 C 
ENDBRANCH  17  18
ENDBRANCH  15  17
ENDBRANCH   2  15
TORSDOF 6
