REMARK  Name = molecules/GCKFUYQCUCGESZ-BPIQYHPVSA-N.pdb
REMARK                            x       y       z     vdW  Elec       q    Type
REMARK                         _______ _______ _______ _____ _____    ______ ____
ROOT
ATOM      1  C   LIG    1       -1.919  -0.172   0.081  0.00  0.00    +0.017 C 
ATOM      2  C   LIG    1       -1.256  -1.440  -0.378  0.00  0.00    +0.041 C 
ATOM      3  C   LIG    1        0.108  -1.397   0.353  0.00  0.00    -0.072 C 
ATOM      4  C   LIG    1        0.235  -2.324   1.241  0.00  0.00    +0.008 C 
ATOM      5  C   LIG    1        0.948  -0.315  -0.108  0.00  0.00    +0.025 C 
ATOM      6  C   LIG    1        2.345  -0.152   0.296  0.00  0.00    +0.023 C 
ATOM      7  C   LIG    1        3.110  -1.277   0.846  0.00  0.00    +0.016 C 
ATOM      8  C   LIG    1        4.624  -1.010   0.725  0.00  0.00    +0.079 C 
ATOM      9  C   LIG    1        4.979  -0.753  -0.672  0.00  0.00    +0.156 C 
ATOM     10  O   LIG    1        5.881  -1.395  -1.231  0.00  0.00    -0.293 OA
ATOM     11  C   LIG    1        4.183   0.309  -1.323  0.00  0.00    +0.045 C 
ATOM     12  C   LIG    1        3.001   0.558  -0.864  0.00  0.00    -0.063 C 
ATOM     13  C   LIG    1        2.180   1.610  -1.496  0.00  0.00    +0.031 C 
ATOM     14  C   LIG    1        1.065   2.081  -0.614  0.00  0.00    +0.009 C 
ATOM     15  C   LIG    1        0.264   1.043   0.064  0.00  0.00    +0.001 C 
ATOM     16  C   LIG    1       -1.127   0.977  -0.503  0.00  0.00    +0.003 C 
ATOM     17  C   LIG    1       -1.996   2.137  -0.176  0.00  0.00    +0.008 C 
ATOM     18  C   LIG    1       -3.421   1.592  -0.287  0.00  0.00    +0.049 C 
ATOM     19  C   LIG    1       -3.266   0.085  -0.533  0.00  0.00    +0.132 C 
ENDROOT
BRANCH   1  20
ATOM     20  C   LIG    1       -1.964  -0.110   1.591  0.00  0.00    +0.008 C 
ATOM     21  C   LIG    1       -2.754  -1.254   2.130  0.00  0.00    +0.004 C 
ENDBRANCH   1  20
BRANCH  19  22
ATOM     22  O   LIG    1       -4.291  -0.633   0.019  0.00  0.00    -0.376 OA
ATOM     23  H   LIG    1       -5.134  -0.121  -0.120  0.00  0.00    +0.211 HD
ENDBRANCH  19  22
BRANCH  19  24
ATOM     24  C   LIG    1       -3.152  -0.158  -1.976  0.00  0.00    -0.070 C 
ATOM     25  C   LIG    1       -3.069  -0.341  -3.155  0.00  0.00    +0.007 C 
ENDBRANCH  19  24
TORSDOF 3
