REMARK  Name = molecules/GDLBFKVLRPITMI-UHFFFAOYSA-N.pdb
REMARK                            x       y       z     vdW  Elec       q    Type
REMARK                         _______ _______ _______ _____ _____    ______ ____
ROOT
ATOM      1  C   LIG    1        1.589  -1.306  -0.663  0.00  0.00    +0.059 A 
ATOM      2  C   LIG    1        0.476  -0.555  -0.248  0.00  0.00    +0.205 A 
ATOM      3  C   LIG    1        0.769   0.718   0.168  0.00  0.00    +0.180 A 
ATOM      4  S   LIG    1       -0.582   1.715   0.702  0.00  0.00    +0.136 S 
ATOM      5  O   LIG    1       -0.393   2.203   2.099  0.00  0.00    -0.130 OA
ATOM      6  N   LIG    1       -1.956   0.706   0.522  0.00  0.00    -0.094 N 
ATOM      7  H   LIG    1       -2.886   1.085   0.780  0.00  0.00    +0.325 HD
ATOM      8  C   LIG    1       -1.910  -0.619   0.042  0.00  0.00    +0.308 C 
ATOM      9  C   LIG    1       -3.202  -1.407  -0.070  0.00  0.00    +0.146 C 
ATOM     10  O   LIG    1       -0.746   2.888  -0.254  0.00  0.00    -0.130 OA
ATOM     11  C   LIG    1        2.045   1.204   0.174  0.00  0.00    +0.055 A 
ATOM     12  C   LIG    1        3.137   0.466  -0.233  0.00  0.00    +0.043 A 
ATOM     13 CL   LIG    1        4.751   1.142  -0.204  0.00  0.00    -0.083 Cl
ATOM     14  N   LIG    1       -0.803  -1.137  -0.288  0.00  0.00    -0.043 NA
ATOM     15  C   LIG    1        2.872  -0.824  -0.659  0.00  0.00    +0.024 A 
ENDROOT
TORSDOF 0
