REMARK  Name = molecules/GDYUVHBMFVMBAF-LIRRHRJNSA-N.pdb
REMARK                            x       y       z     vdW  Elec       q    Type
REMARK                         _______ _______ _______ _____ _____    ______ ____
ROOT
ATOM      1  N   LIG    1       -0.840  -0.136   1.528  0.00  0.00    -0.310 NA
ATOM      2  H   LIG    1       -0.373  -0.947   1.936  0.00  0.00    +0.122 HD
ENDROOT
BRANCH   1   3
ATOM      3  C   LIG    1       -2.085   0.189   2.123  0.00  0.00    +0.084 C 
ATOM      4  C   LIG    1       -1.958   0.896   3.458  0.00  0.00    +0.027 C 
BRANCH   3   5
ATOM      5  C   LIG    1       -3.056   0.949   1.303  0.00  0.00    +0.161 C 
BRANCH   5   6
ATOM      6  C   LIG    1       -3.553   0.311   0.090  0.00  0.00    -0.018 A 
ATOM      7  C   LIG    1       -3.020  -0.802  -0.479  0.00  0.00    +0.006 A 
ATOM      8  C   LIG    1       -3.550  -1.369  -1.640  0.00  0.00    +0.000 A 
ATOM      9  C   LIG    1       -4.646  -0.802  -2.248  0.00  0.00    +0.000 A 
ATOM     10  C   LIG    1       -5.197   0.326  -1.685  0.00  0.00    +0.000 A 
ATOM     11  C   LIG    1       -4.658   0.874  -0.533  0.00  0.00    +0.006 A 
ENDBRANCH   5   6
BRANCH   5  12
ATOM     12  O   LIG    1       -4.194   1.169   2.125  0.00  0.00    -0.386 OA
ATOM     13  H   LIG    1       -4.299   0.410   2.771  0.00  0.00    +0.210 HD
ENDBRANCH   5  12
ENDBRANCH   3   5
ENDBRANCH   1   3
BRANCH   1  14
ATOM     14  C   LIG    1       -0.022   0.979   1.168  0.00  0.00    +0.089 C 
BRANCH  14  15
ATOM     15  C   LIG    1        1.291   0.618   0.569  0.00  0.00    +0.095 C 
BRANCH  15  16
ATOM     16  C   LIG    1        1.222  -0.158  -0.673  0.00  0.00    +0.164 C 
ATOM     17  O   LIG    1        0.155  -0.494  -1.240  0.00  0.00    -0.292 OA
BRANCH  16  18
ATOM     18  C   LIG    1        2.471  -0.578  -1.308  0.00  0.00    +0.021 A 
ATOM     19  C   LIG    1        3.713  -0.261  -0.756  0.00  0.00    +0.057 A 
ATOM     20  C   LIG    1        4.887  -0.659  -1.357  0.00  0.00    +0.121 A 
ATOM     21  C   LIG    1        4.836  -1.384  -2.527  0.00  0.00    +0.045 A 
ATOM     22  C   LIG    1        3.630  -1.724  -3.117  0.00  0.00    +0.004 A 
ATOM     23  C   LIG    1        2.486  -1.304  -2.478  0.00  0.00    +0.011 A 
BRANCH  20  24
ATOM     24  O   LIG    1        6.133  -0.360  -0.832  0.00  0.00    -0.495 OA
ATOM     25  C   LIG    1        6.309   0.377   0.359  0.00  0.00    +0.277 C 
ENDBRANCH  20  24
ENDBRANCH  16  18
ENDBRANCH  15  16
ENDBRANCH  14  15
ENDBRANCH   1  14
TORSDOF 9
