REMARK  Name = molecules/GECHUMIMRBOMGK-UHFFFAOYSA-N.pdb
REMARK                            x       y       z     vdW  Elec       q    Type
REMARK                         _______ _______ _______ _____ _____    ______ ____
ROOT
ATOM      1  S   LIG    1        0.267  -0.031  -2.340  0.00  0.00    +0.073 S 
ATOM      2  O   LIG    1        0.802   1.343  -2.690  0.00  0.00    -0.150 OA
ATOM      3  O   LIG    1       -0.249  -0.674  -3.630  0.00  0.00    -0.150 OA
ENDROOT
BRANCH   1   4
ATOM      4  C   LIG    1       -1.080   0.052  -1.278  0.00  0.00    +0.109 A 
ATOM      5  C   LIG    1       -1.396   1.204  -0.610  0.00  0.00    +0.030 A 
ATOM      6  C   LIG    1       -2.476   1.356   0.223  0.00  0.00    +0.024 A 
ATOM      7  C   LIG    1       -3.320   0.289   0.418  0.00  0.00    +0.025 A 
ATOM      8  C   LIG    1       -3.040  -0.889  -0.235  0.00  0.00    +0.024 A 
ATOM      9  C   LIG    1       -1.949  -1.024  -1.068  0.00  0.00    +0.030 A 
BRANCH   7  10
ATOM     10  N   LIG    1       -4.464   0.400   1.280  0.00  0.00    -0.358 N 
ATOM     11  H   LIG    1       -4.460   1.165   1.988  0.00  0.00    +0.142 HD
ATOM     12  H   LIG    1       -5.266  -0.251   1.209  0.00  0.00    +0.142 HD
ENDBRANCH   7  10
ENDBRANCH   1   4
BRANCH   1  13
ATOM     13  N   LIG    1        1.593  -0.956  -1.809  0.00  0.00    -0.199 N 
ATOM     14  H   LIG    1        1.909  -1.827  -2.353  0.00  0.00    +0.175 HD
BRANCH  13  15
ATOM     15  C   LIG    1        2.327  -0.623  -0.644  0.00  0.00    +0.138 A 
ATOM     16  C   LIG    1        2.102   0.481   0.133  0.00  0.00    +0.045 A 
ATOM     17  C   LIG    1        2.849   0.801   1.256  0.00  0.00    +0.005 A 
ATOM     18  C   LIG    1        3.871  -0.036   1.606  0.00  0.00    +0.020 A 
ATOM     19  C   LIG    1        4.115  -1.171   0.820  0.00  0.00    +0.113 A 
ATOM     20  N   LIG    1        3.367  -1.433  -0.250  0.00  0.00    -0.239 NA
ENDBRANCH  13  15
ENDBRANCH   1  13
TORSDOF 4
