REMARK  Name = molecules/GEFQWZLICWMTKF-SSDLBLMSSA-N.pdb
REMARK                            x       y       z     vdW  Elec       q    Type
REMARK                         _______ _______ _______ _____ _____    ______ ____
ROOT
ATOM      1  C   LIG    1        0.767   0.647  -0.509  0.00  0.00    +0.055 A 
ATOM      2  C   LIG    1        0.186  -0.356   0.227  0.00  0.00    -0.014 A 
ATOM      3  C   LIG    1        1.024  -1.268   0.839  0.00  0.00    +0.010 A 
ATOM      4  C   LIG    1        2.386  -1.165   0.709  0.00  0.00    +0.049 A 
ATOM      5  C   LIG    1        2.977  -0.167  -0.025  0.00  0.00    +0.158 A 
ATOM      6  C   LIG    1        2.136   0.735  -0.629  0.00  0.00    +0.159 A 
ENDROOT
BRANCH   5   7
ATOM      7  O   LIG    1        4.347  -0.029  -0.179  0.00  0.00    -0.503 OA
ATOM      8  H   LIG    1        4.979  -0.693   0.265  0.00  0.00    +0.292 HD
ENDBRANCH   5   7
BRANCH   6   9
ATOM      9  O   LIG    1        2.689   1.763  -1.382  0.00  0.00    -0.503 OA
ATOM     10  H   LIG    1        3.690   1.860  -1.493  0.00  0.00    +0.292 HD
ENDBRANCH   6   9
BRANCH   2  11
ATOM     11  C   LIG    1       -1.251  -0.553   0.434  0.00  0.00    +0.161 C 
BRANCH  11  12
ATOM     12  O   LIG    1       -1.471  -1.932   0.171  0.00  0.00    -0.386 OA
ATOM     13  H   LIG    1       -0.939  -2.205  -0.608  0.00  0.00    +0.210 HD
ENDBRANCH  11  12
BRANCH  11  14
ATOM     14  C   LIG    1       -2.171   0.200  -0.457  0.00  0.00    +0.081 C 
ATOM     15  C   LIG    1       -2.174   1.680  -0.243  0.00  0.00    +0.026 C 
BRANCH  14  16
ATOM     16  N   LIG    1       -3.526  -0.272  -0.093  0.00  0.00    -0.325 NA
ATOM     17  H   LIG    1       -3.546  -0.192   0.968  0.00  0.00    +0.119 HD
ATOM     18  H   LIG    1       -3.653  -1.264  -0.383  0.00  0.00    +0.119 HD
ENDBRANCH  14  16
ENDBRANCH  11  14
ENDBRANCH   2  11
TORSDOF 6
