REMARK  Name = molecules/GFBKORZTTCHDGY-UWVJOHFNSA-N.pdb
REMARK                            x       y       z     vdW  Elec       q    Type
REMARK                         _______ _______ _______ _____ _____    ______ ____
ROOT
ATOM      1  C   LIG    1       -3.356  -0.209   1.184  0.00  0.00    +0.106 A 
ATOM      2  C   LIG    1       -2.117   0.368   0.977  0.00  0.00    +0.037 A 
ATOM      3  C   LIG    1       -2.000   1.606   0.388  0.00  0.00    -0.005 A 
ATOM      4  C   LIG    1       -0.697   2.245   0.330  0.00  0.00    -0.027 C 
ATOM      5  C   LIG    1       -0.509   3.675  -0.102  0.00  0.00    -0.007 A 
ATOM      6  C   LIG    1        0.762   4.222  -0.005  0.00  0.00    +0.009 A 
ATOM      7  C   LIG    1        1.025   5.570  -0.290  0.00  0.00    +0.001 A 
ATOM      8  C   LIG    1       -0.016   6.378  -0.678  0.00  0.00    +0.001 A 
ATOM      9  C   LIG    1       -1.274   5.817  -0.769  0.00  0.00    +0.015 A 
ATOM     10  C   LIG    1       -1.516   4.494  -0.489  0.00  0.00    +0.020 A 
ATOM     11  S   LIG    1       -3.159   3.870  -0.719  0.00  0.00    -0.088 S 
ATOM     12  C   LIG    1       -3.188   2.271   0.010  0.00  0.00    +0.020 A 
ATOM     13  C   LIG    1       -4.405   1.701   0.217  0.00  0.00    +0.017 A 
ATOM     14  C   LIG    1       -4.490   0.462   0.802  0.00  0.00    +0.029 A 
ENDROOT
BRANCH   1  15
ATOM     15  S   LIG    1       -3.517  -1.785   1.926  0.00  0.00    +0.060 S 
ATOM     16  O   LIG    1       -2.358  -1.928   2.887  0.00  0.00    -0.153 OA
ATOM     17  O   LIG    1       -4.780  -1.832   2.759  0.00  0.00    -0.153 OA
BRANCH  15  19
ATOM     18  C   LIG    1       -4.525  -3.134  -0.115  0.00  0.00    +0.131 C 
ATOM     19  N   LIG    1       -3.508  -3.065   0.856  0.00  0.00    -0.183 NA
ATOM     20  C   LIG    1       -2.290  -3.722   0.603  0.00  0.00    +0.131 C 
ENDBRANCH  15  19
ENDBRANCH   1  15
BRANCH   4  21
ATOM     21  C   LIG    1        0.392   1.492   0.310  0.00  0.00    +0.029 C 
BRANCH  21  22
ATOM     22  C   LIG    1        0.428   0.025   0.310  0.00  0.00    +0.024 C 
BRANCH  22  23
ATOM     23  C   LIG    1        1.547  -0.226  -0.806  0.00  0.00    +0.085 C 
BRANCH  23  24
ATOM     24  N   LIG    1        1.756  -1.634  -0.990  0.00  0.00    -0.300 NA
ATOM     25  C   LIG    1        2.262  -2.327   0.151  0.00  0.00    +0.100 C 
ATOM     26  C   LIG    1        3.522  -1.686   0.706  0.00  0.00    +0.099 C 
ATOM     27  N   LIG    1        4.420  -1.327  -0.388  0.00  0.00    -0.303 NA
ATOM     28  C   LIG    1        5.807  -1.449   0.007  0.00  0.00    +0.105 C 
ATOM     29  C   LIG    1        4.116  -2.114  -1.569  0.00  0.00    +0.099 C 
ATOM     30  C   LIG    1        2.757  -1.737  -2.065  0.00  0.00    +0.100 C 
ENDBRANCH  23  24
ENDBRANCH  22  23
ENDBRANCH  21  22
ENDBRANCH   4  21
TORSDOF 6
