REMARK  Name = molecules/GFFGJBXGBJISGV-UHFFFAOYSA-N.pdb
REMARK                            x       y       z     vdW  Elec       q    Type
REMARK                         _______ _______ _______ _____ _____    ______ ____
ROOT
ATOM      1  C   LIG    1       -1.037   0.431   0.024  0.00  0.00    +0.145 A 
ATOM      2  C   LIG    1        0.159  -0.273   0.022  0.00  0.00    +0.125 A 
ATOM      3  N   LIG    1        0.491  -1.567   0.162  0.00  0.00    -0.340 N 
ATOM      4  H   LIG    1       -0.197  -2.357   0.314  0.00  0.00    +0.167 HD
ATOM      5  C   LIG    1        1.827  -1.692   0.076  0.00  0.00    +0.199 A 
ATOM      6  N   LIG    1        2.321  -0.456  -0.118  0.00  0.00    -0.216 NA
ATOM      7  C   LIG    1        1.307   0.443  -0.155  0.00  0.00    +0.183 A 
ATOM      8  N   LIG    1        1.222   1.770  -0.317  0.00  0.00    -0.214 NA
ATOM      9  C   LIG    1        0.064   2.456  -0.317  0.00  0.00    +0.225 A 
ATOM     10  N   LIG    1       -1.071   1.764  -0.143  0.00  0.00    -0.219 NA
ENDROOT
BRANCH   1  11
ATOM     11  N   LIG    1       -2.228  -0.303   0.207  0.00  0.00    -0.341 N 
ATOM     12  H   LIG    1       -2.744  -0.208   1.098  0.00  0.00    +0.144 HD
ATOM     13  H   LIG    1       -2.553  -0.916  -0.553  0.00  0.00    +0.144 HD
ENDBRANCH   1  11
TORSDOF 1
