REMARK  Name = molecules/GFHAXPJGXSQLPT-VIFPVBQESA-N.pdb
REMARK                            x       y       z     vdW  Elec       q    Type
REMARK                         _______ _______ _______ _____ _____    ______ ____
ROOT
ATOM      1  C   LIG    1        0.461   0.787   0.018  0.00  0.00    +0.233 C 
ENDROOT
BRANCH   1   8
ATOM      2  C   LIG    1       -1.129  -1.052   0.643  0.00  0.00    +0.009 A 
ATOM      3  C   LIG    1       -2.178  -1.908   0.350  0.00  0.00    +0.000 A 
ATOM      4  C   LIG    1       -2.748  -1.941  -0.897  0.00  0.00    +0.001 A 
ATOM      5  C   LIG    1       -2.245  -1.097  -1.849  0.00  0.00    +0.020 A 
ATOM      6  C   LIG    1       -1.185  -0.230  -1.558  0.00  0.00    +0.048 A 
ATOM      7 CL   LIG    1       -0.638   0.777  -2.880  0.00  0.00    -0.083 Cl
ATOM      8  C   LIG    1       -0.612  -0.195  -0.307  0.00  0.00    +0.013 A 
ENDBRANCH   1   8
BRANCH   1   9
ATOM      9  C   LIG    1        1.317   0.364   1.200  0.00  0.00    +0.218 C 
BRANCH   9  10
ATOM     10  N   LIG    1        2.038  -0.867   0.992  0.00  0.00    -0.159 N 
ATOM     11  N   LIG    1        1.678  -2.102   1.244  0.00  0.00    -0.139 NA
ATOM     12  C   LIG    1        2.619  -2.977   0.924  0.00  0.00    +0.270 A 
ATOM     13  N   LIG    1        3.633  -2.272   0.443  0.00  0.00    -0.116 NA
ATOM     14  N   LIG    1        3.282  -0.995   0.484  0.00  0.00    -0.046 NA
ENDBRANCH   9  10
ENDBRANCH   1   9
BRANCH   1  15
ATOM     15  O   LIG    1       -0.137   2.054   0.303  0.00  0.00    -0.440 OA
BRANCH  15  16
ATOM     16  C   LIG    1        0.086   3.217  -0.325  0.00  0.00    +0.398 C 
ATOM     17  N   LIG    1       -0.539   4.457  -0.005  0.00  0.00    -0.295 N 
ATOM     18  H   LIG    1       -0.582   4.756   0.968  0.00  0.00    +0.148 HD
ATOM     19  H   LIG    1       -0.932   5.015  -0.782  0.00  0.00    +0.148 HD
ATOM     20  O   LIG    1        0.933   3.203  -1.292  0.00  0.00    -0.227 OA
ENDBRANCH  15  16
ENDBRANCH   1  15
TORSDOF 5
