REMARK  Name = molecules/GFWRVVCDTLRWPK-UHFFFAOYSA-N.pdb
REMARK                            x       y       z     vdW  Elec       q    Type
REMARK                         _______ _______ _______ _____ _____    ______ ____
ROOT
ATOM      1  C   LIG    1       -2.327  -0.798  -0.356  0.00  0.00    +0.136 A 
ATOM      2  C   LIG    1       -1.830   0.495  -0.228  0.00  0.00    +0.063 A 
ATOM      3  C   LIG    1       -2.696   1.552  -0.283  0.00  0.00    +0.019 A 
ATOM      4  C   LIG    1       -4.071   1.299  -0.469  0.00  0.00    +0.046 A 
ATOM      5  C   LIG    1       -4.586   0.033  -0.597  0.00  0.00    +0.124 A 
ATOM      6  C   LIG    1       -3.678  -1.001  -0.536  0.00  0.00    +0.092 A 
ENDROOT
BRANCH   2   7
ATOM      7  C   LIG    1       -0.381   0.708  -0.035  0.00  0.00    +0.190 C 
ATOM      8  O   LIG    1        0.304  -0.341   0.001  0.00  0.00    -0.287 OA
BRANCH   7   9
ATOM      9  C   LIG    1        0.217   1.993   0.103  0.00  0.00    +0.052 C 
ATOM     10  C   LIG    1        1.372   2.501   0.292  0.00  0.00    +0.012 C 
BRANCH  10  11
ATOM     11  C   LIG    1        2.714   2.032   0.476  0.00  0.00    -0.025 A 
ATOM     12  C   LIG    1        3.133   0.762   0.747  0.00  0.00    +0.011 A 
ATOM     13  C   LIG    1        4.486   0.415   0.956  0.00  0.00    +0.046 A 
ATOM     14  C   LIG    1        5.467   1.360   0.896  0.00  0.00    +0.121 A 
ATOM     15  C   LIG    1        5.059   2.650   0.624  0.00  0.00    +0.046 A 
ATOM     16  C   LIG    1        3.755   2.993   0.420  0.00  0.00    +0.011 A 
BRANCH  14  17
ATOM     17  O   LIG    1        6.788   1.049   1.097  0.00  0.00    -0.488 OA
BRANCH  17  18
ATOM     18  C   LIG    1        7.427  -0.129   1.355  0.00  0.00    +0.256 C 
BRANCH  18  19
ATOM     19  C   LIG    1        7.364  -1.190   0.340  0.00  0.00    +0.012 C 
ATOM     20  C   LIG    1        8.493  -1.637  -0.190  0.00  0.00    -0.076 C 
ATOM     21  C   LIG    1        9.788  -1.080   0.232  0.00  0.00    +0.038 C 
ATOM     22  C   LIG    1        8.437  -2.706  -1.214  0.00  0.00    +0.038 C 
ENDBRANCH  18  19
ENDBRANCH  17  18
ENDBRANCH  14  17
ENDBRANCH  10  11
ENDBRANCH   7   9
ENDBRANCH   2   7
BRANCH   1  23
ATOM     23  O   LIG    1       -1.424  -1.847  -0.296  0.00  0.00    -0.480 OA
BRANCH  23  24
ATOM     24  C   LIG    1       -1.929  -3.162  -0.425  0.00  0.00    +0.349 C 
BRANCH  24  25
ATOM     25  C   LIG    1       -0.845  -4.175  -0.341  0.00  0.00    +0.343 C 
ATOM     26  O   LIG    1       -1.095  -5.402  -0.434  0.00  0.00    -0.247 OA
BRANCH  25  27
ATOM     27  O   LIG    1        0.449  -3.724  -0.155  0.00  0.00    -0.478 OA
ATOM     28  H   LIG    1        0.583  -3.085   0.643  0.00  0.00    +0.295 HD
ENDBRANCH  25  27
ENDBRANCH  24  25
ENDBRANCH  23  24
ENDBRANCH   1  23
BRANCH   5  29
ATOM     29  O   LIG    1       -5.949  -0.183  -0.779  0.00  0.00    -0.488 OA
BRANCH  29  30
ATOM     30  C   LIG    1       -6.797   0.936  -0.829  0.00  0.00    +0.256 C 
BRANCH  30  31
ATOM     31  C   LIG    1       -8.219   0.568  -1.026  0.00  0.00    +0.012 C 
ATOM     32  C   LIG    1       -9.101   0.914  -0.118  0.00  0.00    -0.076 C 
ATOM     33  C   LIG    1       -8.685   1.661   1.086  0.00  0.00    +0.038 C 
ATOM     34  C   LIG    1      -10.523   0.550  -0.307  0.00  0.00    +0.038 C 
ENDBRANCH  30  31
ENDBRANCH  29  30
ENDBRANCH   5  29
TORSDOF 13
