REMARK  Name = molecules/GFYSWQDCHLWRMQ-UHFFFAOYSA-N.pdb
REMARK                            x       y       z     vdW  Elec       q    Type
REMARK                         _______ _______ _______ _____ _____    ______ ____
ROOT
ATOM      1  C   LIG    1       -0.535  -0.471   0.206  0.00  0.00    +0.124 A 
ATOM      2  C   LIG    1        0.011  -1.729   0.243  0.00  0.00    +0.046 A 
ATOM      3  C   LIG    1       -0.460  -2.806  -0.472  0.00  0.00    +0.004 A 
ATOM      4  C   LIG    1       -1.557  -2.613  -1.283  0.00  0.00    +0.001 A 
ATOM      5  C   LIG    1       -2.151  -1.375  -1.365  0.00  0.00    +0.007 A 
ATOM      6  C   LIG    1       -1.643  -0.326  -0.629  0.00  0.00    -0.003 A 
ENDROOT
BRANCH   6   7
ATOM      7  C   LIG    1       -2.305   1.007  -0.732  0.00  0.00    +0.016 C 
ATOM      8  C   LIG    1       -2.868   1.474   0.580  0.00  0.00    +0.012 C 
ATOM      9  C   LIG    1       -3.445   0.949  -1.734  0.00  0.00    +0.012 C 
ENDBRANCH   6   7
BRANCH   1  10
ATOM     10  O   LIG    1       -0.122   0.631   0.884  0.00  0.00    -0.488 OA
BRANCH  10  11
ATOM     11  C   LIG    1        0.937   0.783   1.767  0.00  0.00    +0.272 C 
BRANCH  11  12
ATOM     12  C   LIG    1        2.232   0.489   1.096  0.00  0.00    +0.157 C 
ATOM     13  N   LIG    1        3.497   0.498   1.749  0.00  0.00    -0.291 NA
ATOM     14  H   LIG    1        3.638   0.418   2.771  0.00  0.00    +0.124 HD
ATOM     15  C   LIG    1        4.482   0.638   0.701  0.00  0.00    +0.099 C 
ATOM     16  C   LIG    1        3.780  -0.028  -0.462  0.00  0.00    +0.120 C 
ATOM     17  N   LIG    1        2.392   0.197  -0.157  0.00  0.00    -0.211 NA
ENDBRANCH  11  12
ENDBRANCH  10  11
ENDBRANCH   1  10
TORSDOF 4
