REMARK  Name = molecules/GGCSSNBKKAUURC-UHFFFAOYSA-N.pdb
REMARK                            x       y       z     vdW  Elec       q    Type
REMARK                         _______ _______ _______ _____ _____    ______ ____
ROOT
ATOM      1  C   LIG    1       -0.608  -0.103  -0.062  0.00  0.00    +0.068 C 
ATOM      2  C   LIG    1        0.265   0.541   0.990  0.00  0.00    +0.044 C 
ATOM      3  C   LIG    1        1.604  -0.129   1.088  0.00  0.00    +0.086 C 
ATOM      4  N   LIG    1        2.291  -0.279  -0.149  0.00  0.00    -0.302 NA
ATOM      5  C   LIG    1        1.573   0.088  -1.326  0.00  0.00    +0.086 C 
ATOM      6  C   LIG    1        0.133  -0.301  -1.358  0.00  0.00    +0.044 C 
ENDROOT
BRANCH   1   7
ATOM      7  N   LIG    1       -1.801   0.695  -0.268  0.00  0.00    -0.263 N 
ATOM      8  C   LIG    1       -1.698   2.012  -0.762  0.00  0.00    +0.220 C 
ATOM      9  O   LIG    1       -0.575   2.491  -1.036  0.00  0.00    -0.275 OA
BRANCH   7  10
ATOM     10  C   LIG    1       -3.105   0.199   0.015  0.00  0.00    +0.037 A 
ATOM     11  C   LIG    1       -3.768   0.590   1.155  0.00  0.00    +0.023 A 
ATOM     12  C   LIG    1       -5.032   0.147   1.486  0.00  0.00    +0.002 A 
ATOM     13  C   LIG    1       -5.637  -0.735   0.607  0.00  0.00    +0.000 A 
ATOM     14  C   LIG    1       -4.988  -1.143  -0.548  0.00  0.00    +0.002 A 
ATOM     15  C   LIG    1       -3.730  -0.678  -0.840  0.00  0.00    +0.023 A 
ENDBRANCH   7  10
BRANCH   8  16
ATOM     16  C   LIG    1       -2.882   2.889  -0.981  0.00  0.00    +0.093 C 
ATOM     17  C   LIG    1       -2.472   4.243  -1.517  0.00  0.00    +0.013 C 
ENDBRANCH   8  16
ENDBRANCH   1   7
BRANCH   4  18
ATOM     18  C   LIG    1        2.956  -1.530  -0.355  0.00  0.00    +0.089 C 
BRANCH  18  19
ATOM     19  C   LIG    1        4.143  -1.746   0.551  0.00  0.00    +0.058 C 
BRANCH  19  20
ATOM     20  C   LIG    1        5.176  -0.667   0.342  0.00  0.00    -0.009 A 
ATOM     21  S   LIG    1        5.363   0.838   1.112  0.00  0.00    -0.102 S 
ATOM     22  C   LIG    1        6.746   1.401   0.292  0.00  0.00    +0.045 A 
ATOM     23  C   LIG    1        7.027   0.378  -0.575  0.00  0.00    +0.008 A 
ATOM     24  C   LIG    1        6.215  -0.691  -0.549  0.00  0.00    +0.011 A 
ENDBRANCH  19  20
ENDBRANCH  18  19
ENDBRANCH   4  18
BRANCH   1  25
ATOM     25  C   LIG    1       -0.969  -1.488   0.453  0.00  0.00    +0.185 C 
BRANCH  25  26
ATOM     26  O   LIG    1       -1.639  -1.454   1.646  0.00  0.00    -0.381 OA
ATOM     27  C   LIG    1       -1.915  -2.773   2.016  0.00  0.00    +0.194 C 
ENDBRANCH  25  26
ENDBRANCH   1  25
TORSDOF 8
