REMARK  Name = molecules/GGECDTUJZOXAAR-UHFFFAOYSA-N.pdb
REMARK                            x       y       z     vdW  Elec       q    Type
REMARK                         _______ _______ _______ _____ _____    ______ ____
ROOT
ATOM      1  C   LIG    1        0.766   0.019   0.382  0.00  0.00    +0.325 C 
ENDROOT
BRANCH   1   2
ATOM      2  C   LIG    1       -0.627  -0.550   0.371  0.00  0.00    +0.264 C 
ATOM      3  N   LIG    1       -1.640   0.223   0.938  0.00  0.00    -0.248 N 
ATOM      4  H   LIG    1       -1.338   1.179   1.333  0.00  0.00    +0.169 HD
ATOM      5  O   LIG    1       -0.802  -1.679  -0.138  0.00  0.00    -0.271 OA
BRANCH   3   6
ATOM      6  N   LIG    1       -2.929  -0.135   1.026  0.00  0.00    -0.238 NA
ATOM      7  H   LIG    1       -3.052  -1.143   1.188  0.00  0.00    +0.145 HD
BRANCH   6   8
ATOM      8  C   LIG    1       -3.915   0.436   0.214  0.00  0.00    +0.067 C 
ATOM      9  C   LIG    1       -5.274  -0.065   0.748  0.00  0.00    +0.025 C 
ATOM     10  C   LIG    1       -3.843   0.128  -1.259  0.00  0.00    +0.025 C 
ENDBRANCH   6   8
ENDBRANCH   3   6
ENDBRANCH   1   2
BRANCH   1  11
ATOM     11  O   LIG    1        1.730  -0.801  -0.185  0.00  0.00    -0.483 OA
BRANCH  11  12
ATOM     12  C   LIG    1        3.073  -0.411  -0.223  0.00  0.00    +0.121 A 
ATOM     13  C   LIG    1        3.499   0.787   0.295  0.00  0.00    +0.047 A 
ATOM     14  C   LIG    1        4.835   1.146   0.246  0.00  0.00    +0.023 A 
ATOM     15  C   LIG    1        5.748   0.287  -0.331  0.00  0.00    +0.041 A 
ATOM     16 CL   LIG    1        7.448   0.714  -0.384  0.00  0.00    -0.084 Cl
ATOM     17  C   LIG    1        5.356  -0.918  -0.858  0.00  0.00    +0.023 A 
ATOM     18  C   LIG    1        4.027  -1.254  -0.797  0.00  0.00    +0.047 A 
ENDBRANCH  11  12
ENDBRANCH   1  11
TORSDOF 5
