REMARK  Name = molecules/GGXICVAJURFBLW-CEYXHVGTSA-N.pdb
REMARK                            x       y       z     vdW  Elec       q    Type
REMARK                         _______ _______ _______ _____ _____    ______ ____
ROOT
ATOM      1  C   LIG    1        0.209  -0.049  -1.017  0.00  0.00    +0.027 C 
ATOM      2  C   LIG    1        0.952   1.154  -1.490  0.00  0.00    +0.024 C 
ATOM      3  C   LIG    1        0.945   1.109  -2.987  0.00  0.00    +0.120 C 
ATOM      4  C   LIG    1        0.545  -0.333  -3.322  0.00  0.00    +0.063 C 
ATOM      5  C   LIG    1       -0.531  -0.529  -2.247  0.00  0.00    +0.121 C 
ENDROOT
BRANCH   5   6
ATOM      6  O   LIG    1       -1.521   0.413  -2.572  0.00  0.00    -0.391 OA
ATOM      7  H   LIG    1       -1.834   0.211  -3.470  0.00  0.00    +0.210 HD
ENDBRANCH   5   6
BRANCH   3   8
ATOM      8  O   LIG    1       -0.079   1.909  -3.507  0.00  0.00    -0.391 OA
ATOM      9  H   LIG    1        0.153   2.869  -3.377  0.00  0.00    +0.210 HD
ENDBRANCH   3   8
BRANCH   2  10
ATOM     10  C   LIG    1        2.315   1.272  -0.889  0.00  0.00    +0.009 C 
BRANCH  10  11
ATOM     11  C   LIG    1        3.243   0.151  -1.162  0.00  0.00    +0.032 C 
BRANCH  11  12
ATOM     12  C   LIG    1        4.581   0.457  -0.456  0.00  0.00    +0.115 C 
BRANCH  12  13
ATOM     13  O   LIG    1        4.299   0.532   0.931  0.00  0.00    -0.392 OA
ATOM     14  H   LIG    1        4.046   1.466   1.113  0.00  0.00    +0.210 HD
ENDBRANCH  12  13
BRANCH  12  15
ATOM     15  C   LIG    1        5.476  -0.715  -0.772  0.00  0.00    +0.036 C 
BRANCH  15  16
ATOM     16  C   LIG    1        6.830  -0.598  -0.189  0.00  0.00    +0.037 C 
BRANCH  16  17
ATOM     17  C   LIG    1        6.774  -0.501   1.278  0.00  0.00    -0.047 A 
ATOM     18  C   LIG    1        6.730  -1.629   2.096  0.00  0.00    +0.003 A 
ATOM     19  C   LIG    1        6.704  -1.535   3.462  0.00  0.00    +0.000 A 
ATOM     20  C   LIG    1        6.721  -0.314   4.072  0.00  0.00    +0.000 A 
ATOM     21  C   LIG    1        6.764   0.816   3.273  0.00  0.00    +0.000 A 
ATOM     22  C   LIG    1        6.790   0.722   1.904  0.00  0.00    +0.003 A 
ENDBRANCH  16  17
ENDBRANCH  15  16
ENDBRANCH  12  15
ENDBRANCH  11  12
ENDBRANCH  10  11
ENDBRANCH   2  10
BRANCH   1  23
ATOM     23  C   LIG    1       -0.747   0.353   0.087  0.00  0.00    +0.033 C 
BRANCH  23  24
ATOM     24  C   LIG    1       -1.474  -0.824   0.565  0.00  0.00    -0.031 C 
ATOM     25  C   LIG    1       -2.772  -0.983   0.534  0.00  0.00    -0.031 C 
BRANCH  25  26
ATOM     26  C   LIG    1       -3.718   0.040  -0.009  0.00  0.00    +0.027 C 
BRANCH  26  27
ATOM     27  C   LIG    1       -4.523  -0.520  -1.154  0.00  0.00    +0.015 C 
BRANCH  27  28
ATOM     28  C   LIG    1       -5.338  -1.687  -0.740  0.00  0.00    +0.121 C 
BRANCH  28  29
ATOM     29  C   LIG    1       -6.331  -1.309   0.274  0.00  0.00    +0.307 C 
ATOM     30  O   LIG    1       -6.973  -2.171   0.952  0.00  0.00    -0.251 OA
BRANCH  29  31
ATOM     31  O   LIG    1       -6.620   0.005   0.540  0.00  0.00    -0.462 OA
BRANCH  31  32
ATOM     32  C   LIG    1       -7.584   0.362   1.516  0.00  0.00    +0.170 C 
ATOM     33  C   LIG    1       -6.829   1.162   2.585  0.00  0.00    +0.052 C 
ATOM     34  C   LIG    1       -8.657   1.261   0.969  0.00  0.00    +0.052 C 
ENDBRANCH  31  32
ENDBRANCH  29  31
ENDBRANCH  28  29
ENDBRANCH  27  28
ENDBRANCH  26  27
ENDBRANCH  25  26
ENDBRANCH  23  24
ENDBRANCH   1  23
TORSDOF 17
