REMARK  Name = molecules/GGXMRPUKBWXVHE-MIHLVHIWSA-N.pdb
REMARK                            x       y       z     vdW  Elec       q    Type
REMARK                         _______ _______ _______ _____ _____    ______ ____
ROOT
ATOM      1  F   LIG    1       -1.433   1.244   0.955  0.00  0.00    -0.238 F 
ATOM      2  C   LIG    1       -1.397  -0.101   0.657  0.00  0.00    +0.153 C 
ATOM      3  C   LIG    1       -0.413  -0.728   1.627  0.00  0.00    +0.154 C 
ATOM      4  C   LIG    1        0.911  -0.011   1.562  0.00  0.00    +0.044 C 
ATOM      5  C   LIG    1        1.484   0.023   0.194  0.00  0.00    +0.010 C 
ATOM      6  C   LIG    1        2.493   1.144   0.013  0.00  0.00    +0.134 C 
ATOM      7  C   LIG    1        2.606   1.150  -1.490  0.00  0.00    +0.026 C 
ATOM      8  C   LIG    1        2.851   2.597  -1.898  0.00  0.00    +0.011 C 
ATOM      9  C   LIG    1        1.224   0.690  -1.999  0.00  0.00    +0.011 C 
ATOM     10  C   LIG    1        2.038  -1.239  -0.341  0.00  0.00    +0.015 C 
ATOM     11  C   LIG    1        0.424   0.623  -0.744  0.00  0.00    +0.005 C 
ATOM     12  C   LIG    1       -2.768  -0.688   0.778  0.00  0.00    +0.048 C 
ATOM     13  C   LIG    1       -3.495  -0.184   1.929  0.00  0.00    +0.011 C 
ATOM     14  C   LIG    1       -4.706   0.344   1.950  0.00  0.00    +0.085 C 
ATOM     15 CL   LIG    1       -5.418   0.895   3.480  0.00  0.00    -0.080 Cl
ATOM     16  C   LIG    1       -5.433   0.460   0.704  0.00  0.00    +0.197 C 
ATOM     17  O   LIG    1       -6.588   0.948   0.659  0.00  0.00    -0.286 OA
ATOM     18  C   LIG    1       -4.726  -0.031  -0.488  0.00  0.00    +0.055 C 
ATOM     19  C   LIG    1       -2.685  -2.212   1.022  0.00  0.00    +0.023 C 
ATOM     20  C   LIG    1       -3.541  -0.538  -0.462  0.00  0.00    -0.020 C 
ATOM     21  C   LIG    1       -2.852  -0.938  -1.761  0.00  0.00    +0.194 C 
ATOM     22  C   LIG    1       -1.715   0.053  -1.863  0.00  0.00    +0.048 C 
ATOM     23  F   LIG    1       -3.704  -0.942  -2.807  0.00  0.00    -0.241 F 
ATOM     24  C   LIG    1       -0.774  -0.234  -0.719  0.00  0.00    +0.037 C 
ENDROOT
BRANCH   6  25
ATOM     25  C   LIG    1        3.696   0.898   0.774  0.00  0.00    +0.190 C 
ATOM     26  O   LIG    1        3.976   1.780   1.636  0.00  0.00    -0.292 OA
BRANCH  25  27
ATOM     27  C   LIG    1        4.659  -0.203   0.720  0.00  0.00    +0.233 C 
BRANCH  27  28
ATOM     28  O   LIG    1        5.753   0.082   1.589  0.00  0.00    -0.387 OA
ATOM     29  H   LIG    1        6.047  -0.723   2.079  0.00  0.00    +0.210 HD
ENDBRANCH  27  28
ENDBRANCH  25  27
ENDBRANCH   6  25
BRANCH   6  30
ATOM     30  O   LIG    1        1.913   2.361   0.451  0.00  0.00    -0.380 OA
ATOM     31  H   LIG    1        2.158   2.444   1.409  0.00  0.00    +0.211 HD
ENDBRANCH   6  30
BRANCH   3  32
ATOM     32  O   LIG    1       -0.131  -2.064   1.322  0.00  0.00    -0.389 OA
ATOM     33  H   LIG    1        0.278  -2.450   2.135  0.00  0.00    +0.210 HD
ENDBRANCH   3  32
TORSDOF 5
