REMARK  Name = molecules/GHASVSINZRGABV-UHFFFAOYSA-N.pdb
REMARK                            x       y       z     vdW  Elec       q    Type
REMARK                         _______ _______ _______ _____ _____    ______ ____
ROOT
ATOM      1  F   LIG    1        2.693   0.081   0.062  0.00  0.00    -0.198 F 
ATOM      2  C   LIG    1        1.329   0.055   0.030  0.00  0.00    +0.203 A 
ATOM      3  C   LIG    1        0.673  -1.147   0.059  0.00  0.00    +0.289 A 
ATOM      4  O   LIG    1        1.334  -2.203   0.114  0.00  0.00    -0.265 OA
ATOM      5  N   LIG    1       -0.670  -1.177   0.027  0.00  0.00    -0.273 N 
ATOM      6  H   LIG    1       -1.165  -2.092   0.049  0.00  0.00    +0.174 HD
ATOM      7  C   LIG    1       -1.357  -0.025  -0.032  0.00  0.00    +0.327 A 
ATOM      8  O   LIG    1       -2.602  -0.077  -0.060  0.00  0.00    -0.247 OA
ATOM      9  N   LIG    1       -0.731   1.162  -0.061  0.00  0.00    -0.312 N 
ATOM     10  H   LIG    1       -1.263   2.045  -0.106  0.00  0.00    +0.170 HD
ATOM     11  C   LIG    1        0.603   1.226  -0.031  0.00  0.00    +0.131 A 
ENDROOT
TORSDOF 0
