REMARK  Name = molecules/GHOSNRCGJFBJIB-OAQYLSRUSA-N.pdb
REMARK                            x       y       z     vdW  Elec       q    Type
REMARK                         _______ _______ _______ _____ _____    ______ ____
ROOT
ATOM      1  N   LIG    1       -1.262  -2.687  -0.857  0.00  0.00    -0.289 N 
ATOM      2  C   LIG    1       -1.941  -3.855  -1.133  0.00  0.00    +0.299 A 
ATOM      3  N   LIG    1       -1.650  -4.182  -2.370  0.00  0.00    -0.195 NA
ATOM      4  C   LIG    1       -0.806  -3.280  -2.911  0.00  0.00    +0.094 A 
ATOM      5  C   LIG    1       -0.210  -3.148  -4.136  0.00  0.00    +0.030 A 
ATOM      6  C   LIG    1        0.635  -2.119  -4.471  0.00  0.00    +0.003 A 
ATOM      7  C   LIG    1        0.879  -1.184  -3.506  0.00  0.00    +0.017 A 
ATOM      8  C   LIG    1        0.293  -1.276  -2.236  0.00  0.00    +0.085 A 
ATOM      9  C   LIG    1       -0.552  -2.310  -1.926  0.00  0.00    +0.086 A 
ENDROOT
BRANCH   8  10
ATOM     10  C   LIG    1        0.755  -0.290  -1.286  0.00  0.00    +0.344 C 
ATOM     11  O   LIG    1        0.295   0.870  -1.276  0.00  0.00    -0.245 OA
BRANCH  10  12
ATOM     12  O   LIG    1        1.704  -0.642  -0.413  0.00  0.00    -0.421 OA
BRANCH  12  13
ATOM     13  C   LIG    1        2.444  -0.168   0.595  0.00  0.00    +0.371 C 
ATOM     14  C   LIG    1        2.153  -0.951   1.885  0.00  0.00    +0.101 C 
BRANCH  13  15
ATOM     15  O   LIG    1        3.854  -0.086   0.400  0.00  0.00    -0.394 OA
BRANCH  15  16
ATOM     16  C   LIG    1        4.544   1.125   0.629  0.00  0.00    +0.513 C 
ATOM     17  O   LIG    1        3.866   2.095   1.008  0.00  0.00    -0.203 OA
BRANCH  16  18
ATOM     18  O   LIG    1        5.922   1.185   0.429  0.00  0.00    -0.430 OA
BRANCH  18  19
ATOM     19  C   LIG    1        6.646   2.403   0.674  0.00  0.00    +0.180 C 
ATOM     20  C   LIG    1        7.675   2.187   1.753  0.00  0.00    +0.045 C 
ATOM     21  C   LIG    1        8.879   1.428   1.262  0.00  0.00    +0.004 C 
ATOM     22  C   LIG    1        9.357   1.827  -0.095  0.00  0.00    +0.000 C 
ATOM     23  C   LIG    1        8.232   1.930  -1.124  0.00  0.00    +0.004 C 
ATOM     24  C   LIG    1        7.259   2.951  -0.593  0.00  0.00    +0.045 C 
ENDBRANCH  18  19
ENDBRANCH  16  18
ENDBRANCH  15  16
ENDBRANCH  13  15
ENDBRANCH  12  13
ENDBRANCH  10  12
ENDBRANCH   8  10
BRANCH   1  25
ATOM     25  C   LIG    1       -1.378  -1.980   0.384  0.00  0.00    +0.162 C 
BRANCH  25  26
ATOM     26  C   LIG    1       -2.477  -0.980   0.436  0.00  0.00    -0.028 A 
ATOM     27  C   LIG    1       -2.192   0.338   0.668  0.00  0.00    +0.006 A 
ATOM     28  C   LIG    1       -3.140   1.362   0.685  0.00  0.00    +0.009 A 
ATOM     29  C   LIG    1       -4.476   1.062   0.455  0.00  0.00    -0.017 A 
ATOM     30  C   LIG    1       -4.776  -0.276   0.221  0.00  0.00    +0.009 A 
ATOM     31  C   LIG    1       -3.808  -1.275   0.210  0.00  0.00    +0.006 A 
BRANCH  29  32
ATOM     32  C   LIG    1       -5.534   2.057   0.377  0.00  0.00    -0.007 A 
ATOM     33  C   LIG    1       -6.113   2.661   1.435  0.00  0.00    +0.028 A 
ATOM     34  C   LIG    1       -7.118   3.649   1.201  0.00  0.00    +0.012 A 
ATOM     35  C   LIG    1       -7.518   4.007  -0.044  0.00  0.00    +0.001 A 
ATOM     36  C   LIG    1       -6.927   3.388  -1.120  0.00  0.00    +0.001 A 
ATOM     37  C   LIG    1       -5.960   2.438  -0.928  0.00  0.00    +0.009 A 
BRANCH  33  38
ATOM     38  C   LIG    1       -5.812   2.331   2.804  0.00  0.00    +0.180 A 
ATOM     39  N   LIG    1       -6.272   3.034   3.864  0.00  0.00    -0.108 NA
ATOM     40  N   LIG    1       -5.833   2.526   4.971  0.00  0.00    -0.023 NA
ATOM     41  N   LIG    1       -5.055   1.455   4.692  0.00  0.00    -0.046 NA
ATOM     42  N   LIG    1       -5.078   1.381   3.332  0.00  0.00    -0.239 N 
ATOM     43  H   LIG    1       -4.556   0.617   2.863  0.00  0.00    +0.192 HD
ENDBRANCH  33  38
ENDBRANCH  29  32
ENDBRANCH  25  26
ENDBRANCH   1  25
BRANCH   2  44
ATOM     44  O   LIG    1       -2.761  -4.498  -0.197  0.00  0.00    -0.464 OA
BRANCH  44  45
ATOM     45  C   LIG    1       -3.415  -5.696  -0.556  0.00  0.00    +0.229 C 
ATOM     46  C   LIG    1       -4.350  -5.545  -1.731  0.00  0.00    +0.048 C 
ENDBRANCH  44  45
ENDBRANCH   2  44
TORSDOF 13
