REMARK  Name = molecules/GHXZTYHSJHQHIJ-UHFFFAOYSA-N.pdb
REMARK                            x       y       z     vdW  Elec       q    Type
REMARK                         _______ _______ _______ _____ _____    ______ ____
ROOT
ATOM      1  C   LIG    1        0.274   2.222  -0.452  0.00  0.00    +0.003 C 
ENDROOT
BRANCH   1   2
ATOM      2  C   LIG    1        1.713   2.305  -0.690  0.00  0.00    +0.003 C 
BRANCH   2   3
ATOM      3  C   LIG    1        2.416   1.449  -1.647  0.00  0.00    +0.037 C 
BRANCH   3   4
ATOM      4  C   LIG    1        2.413  -0.031  -1.469  0.00  0.00    +0.196 C 
BRANCH   4   5
ATOM      5  N   LIG    1        2.934  -0.459  -0.199  0.00  0.00    -0.276 N 
ATOM      6  H   LIG    1        3.262   0.243   0.480  0.00  0.00    +0.258 HD
BRANCH   5   7
ATOM      7  C   LIG    1        3.004  -1.829   0.138  0.00  0.00    +0.388 C 
ATOM      8  N   LIG    1        1.982  -2.447   0.643  0.00  0.00    -0.129 NA
ATOM      9  H   LIG    1        2.016  -3.454   0.896  0.00  0.00    +0.306 HD
BRANCH   7  10
ATOM     10  N   LIG    1        4.227  -2.515  -0.092  0.00  0.00    -0.186 N 
ATOM     11  H   LIG    1        4.317  -3.199  -0.872  0.00  0.00    +0.271 HD
BRANCH  10  12
ATOM     12  C   LIG    1        5.378  -2.305   0.720  0.00  0.00    +0.393 C 
ATOM     13  N   LIG    1        6.101  -3.317   1.061  0.00  0.00    -0.129 NA
ATOM     14  H   LIG    1        5.850  -4.275   0.750  0.00  0.00    +0.306 HD
BRANCH  12  15
ATOM     15  N   LIG    1        5.728  -0.986   1.152  0.00  0.00    -0.243 N 
ATOM     16  H   LIG    1        5.148  -0.500   1.866  0.00  0.00    +0.265 HD
BRANCH  15  17
ATOM     17  C   LIG    1        6.864  -0.328   0.616  0.00  0.00    +0.100 A 
ATOM     18  C   LIG    1        7.205   0.930   1.022  0.00  0.00    +0.043 A 
ATOM     19  C   LIG    1        8.307   1.567   0.501  0.00  0.00    +0.023 A 
ATOM     20  C   LIG    1        9.107   0.965  -0.448  0.00  0.00    +0.041 A 
ATOM     21  C   LIG    1        8.782  -0.304  -0.873  0.00  0.00    +0.023 A 
ATOM     22 CL   LIG    1       10.515   1.751  -1.129  0.00  0.00    -0.084 Cl
ATOM     23  C   LIG    1        7.673  -0.925  -0.338  0.00  0.00    +0.043 A 
ENDBRANCH  15  17
ENDBRANCH  12  15
ENDBRANCH  10  12
ENDBRANCH   7  10
ENDBRANCH   5   7
ENDBRANCH   4   5
ENDBRANCH   3   4
ENDBRANCH   2   3
ENDBRANCH   1   2
BRANCH   1  24
ATOM     24  C   LIG    1       -0.343   1.002   0.101  0.00  0.00    +0.037 C 
BRANCH  24  25
ATOM     25  C   LIG    1       -1.842   1.296   0.241  0.00  0.00    +0.196 C 
BRANCH  25  26
ATOM     26  N   LIG    1       -2.537   0.145   0.782  0.00  0.00    -0.276 N 
ATOM     27  H   LIG    1       -2.002  -0.722   1.013  0.00  0.00    +0.258 HD
BRANCH  26  28
ATOM     28  C   LIG    1       -3.928   0.249   0.974  0.00  0.00    +0.388 C 
ATOM     29  N   LIG    1       -4.476  -0.338   1.963  0.00  0.00    -0.129 NA
ATOM     30  H   LIG    1       -5.486  -0.328   2.198  0.00  0.00    +0.306 HD
BRANCH  28  31
ATOM     31  N   LIG    1       -4.706   1.002   0.075  0.00  0.00    -0.186 N 
ATOM     32  H   LIG    1       -4.675   2.057   0.175  0.00  0.00    +0.271 HD
BRANCH  31  33
ATOM     33  C   LIG    1       -5.519   0.451  -0.941  0.00  0.00    +0.393 C 
ATOM     34  N   LIG    1       -5.573   1.048  -2.083  0.00  0.00    -0.129 NA
ATOM     35  H   LIG    1       -6.152   0.699  -2.881  0.00  0.00    +0.306 HD
BRANCH  33  36
ATOM     36  N   LIG    1       -6.272  -0.720  -0.758  0.00  0.00    -0.243 N 
ATOM     37  H   LIG    1       -5.972  -1.593  -1.211  0.00  0.00    +0.265 HD
BRANCH  36  42
ATOM     38 CL   LIG    1      -11.223  -0.797   2.607  0.00  0.00    -0.084 Cl
ATOM     39  C   LIG    1       -9.779  -0.778   1.625  0.00  0.00    +0.041 A 
ATOM     40  C   LIG    1       -9.054   0.383   1.458  0.00  0.00    +0.023 A 
ATOM     41  C   LIG    1       -7.912   0.407   0.684  0.00  0.00    +0.043 A 
ATOM     42  C   LIG    1       -7.458  -0.723   0.052  0.00  0.00    +0.100 A 
ATOM     43  C   LIG    1       -8.184  -1.882   0.220  0.00  0.00    +0.043 A 
ATOM     44  C   LIG    1       -9.327  -1.918   0.992  0.00  0.00    +0.023 A 
ENDBRANCH  36  42
ENDBRANCH  33  36
ENDBRANCH  31  33
ENDBRANCH  28  31
ENDBRANCH  26  28
ENDBRANCH  25  26
ENDBRANCH  24  25
ENDBRANCH   1  24
TORSDOF 17
