REMARK  Name = molecules/GIUYCYHIANZCFB-FJFJXFQQSA-N.pdb
REMARK                            x       y       z     vdW  Elec       q    Type
REMARK                         _______ _______ _______ _____ _____    ______ ____
ROOT
ATOM      1  C   LIG    1       -0.301   0.608   0.350  0.00  0.00    +0.253 C 
ATOM      2  C   LIG    1       -0.201  -0.168   1.639  0.00  0.00    +0.195 C 
ATOM      3  C   LIG    1        1.212  -0.750   1.538  0.00  0.00    +0.178 C 
ATOM      4  C   LIG    1        1.862   0.345   0.700  0.00  0.00    +0.178 C 
ATOM      5  O   LIG    1        0.898   0.476  -0.315  0.00  0.00    -0.346 OA
ENDROOT
BRANCH   1  12
ATOM      6  C   LIG    1       -4.900  -0.056  -1.026  0.00  0.00    +0.150 A 
ATOM      7  N   LIG    1       -5.413   0.747  -0.080  0.00  0.00    -0.185 NA
ATOM      8  C   LIG    1       -4.633   1.390   0.818  0.00  0.00    +0.313 A 
ATOM      9  F   LIG    1       -5.202   2.199   1.764  0.00  0.00    -0.161 F 
ATOM     10  N   LIG    1       -3.312   1.205   0.742  0.00  0.00    -0.182 NA
ATOM     11  C   LIG    1       -2.702   0.423  -0.166  0.00  0.00    +0.170 A 
ATOM     12  N   LIG    1       -1.419   0.100  -0.419  0.00  0.00    -0.285 N 
ATOM     13  C   LIG    1       -1.443  -0.735  -1.468  0.00  0.00    +0.203 A 
ATOM     14  N   LIG    1       -2.731  -0.932  -1.868  0.00  0.00    -0.231 NA
ATOM     15  C   LIG    1       -3.534  -0.216  -1.065  0.00  0.00    +0.147 A 
BRANCH   6  16
ATOM     16  N   LIG    1       -5.798  -0.687  -1.923  0.00  0.00    -0.341 N 
ATOM     17  H   LIG    1       -6.613  -1.276  -1.610  0.00  0.00    +0.144 HD
ATOM     18  H   LIG    1       -5.681  -0.588  -2.956  0.00  0.00    +0.144 HD
ENDBRANCH   6  16
ENDBRANCH   1  12
BRANCH   2  19
ATOM     19  O   LIG    1       -1.161  -1.162   1.725  0.00  0.00    -0.385 OA
ATOM     20  H   LIG    1       -1.596  -1.073   2.606  0.00  0.00    +0.210 HD
ENDBRANCH   2  19
BRANCH   3  21
ATOM     21  O   LIG    1        1.803  -0.899   2.769  0.00  0.00    -0.386 OA
ATOM     22  H   LIG    1        2.110  -1.853   2.832  0.00  0.00    +0.210 HD
ENDBRANCH   3  21
BRANCH   4  23
ATOM     23  C   LIG    1        3.188  -0.074   0.142  0.00  0.00    +0.206 C 
BRANCH  23  24
ATOM     24  O   LIG    1        3.603   0.892  -0.756  0.00  0.00    -0.284 OA
BRANCH  24  25
ATOM     25  P   LIG    1        5.101   0.514  -1.449  0.00  0.00    +0.472 P 
ATOM     26  O   LIG    1        6.216   0.633  -0.418  0.00  0.00    -0.228 OA
BRANCH  25  27
ATOM     27  O   LIG    1        5.138  -1.053  -2.056  0.00  0.00    -0.303 OA
ATOM     28  H   LIG    1        5.685  -1.648  -1.498  0.00  0.00    +0.222 HD
ENDBRANCH  25  27
BRANCH  25  29
ATOM     29  O   LIG    1        5.445   1.601  -2.682  0.00  0.00    -0.303 OA
ATOM     30  H   LIG    1        5.561   2.514  -2.293  0.00  0.00    +0.222 HD
ENDBRANCH  25  29
ENDBRANCH  24  25
ENDBRANCH  23  24
ENDBRANCH   4  23
TORSDOF 9
