REMARK  Name = molecules/GJGDLRSSCNAKGL-KMVLDZISSA-N.pdb
REMARK                            x       y       z     vdW  Elec       q    Type
REMARK                         _______ _______ _______ _____ _____    ______ ____
ROOT
ATOM      1  C   LIG    1       -0.847  -0.110  -1.023  0.00  0.00    +0.190 C 
ATOM      2  C   LIG    1       -0.670  -1.241  -0.104  0.00  0.00    +0.061 C 
ATOM      3  C   LIG    1       -1.821  -1.607   0.767  0.00  0.00    +0.129 C 
ATOM      4  C   LIG    1       -2.820  -0.571   0.985  0.00  0.00    +0.127 C 
ATOM      5  C   LIG    1       -3.042   0.476   0.184  0.00  0.00    +0.121 C 
ATOM      6  C   LIG    1        0.609  -1.071   0.688  0.00  0.00    +0.020 C 
ATOM      7  C   LIG    1        1.728  -0.607  -0.258  0.00  0.00    +0.063 C 
ATOM      8  C   LIG    1        3.074  -0.880   0.265  0.00  0.00    +0.097 C 
ATOM      9  C   LIG    1        3.986   0.267   0.331  0.00  0.00    +0.017 A 
ATOM     10  C   LIG    1        5.280  -0.013   0.760  0.00  0.00    +0.048 A 
ATOM     11 CL   LIG    1        5.807  -1.627   1.193  0.00  0.00    -0.083 Cl
ATOM     12  C   LIG    1        6.224   0.983   0.865  0.00  0.00    +0.024 A 
ATOM     13  C   LIG    1        5.943   2.274   0.559  0.00  0.00    +0.047 A 
ATOM     14  C   LIG    1        4.643   2.582   0.124  0.00  0.00    +0.128 A 
ATOM     15  C   LIG    1        3.697   1.569   0.020  0.00  0.00    +0.071 A 
ATOM     16  C   LIG    1        2.358   1.873  -0.435  0.00  0.00    +0.197 C 
ATOM     17  O   LIG    1        1.970   3.021  -0.749  0.00  0.00    -0.287 OA
ATOM     18  C   LIG    1        3.656  -2.069  -0.492  0.00  0.00    +0.047 C 
ATOM     19  C   LIG    1        1.391   0.796  -0.542  0.00  0.00    +0.047 C 
ATOM     20  C   LIG    1        0.130   0.997  -0.911  0.00  0.00    +0.141 C 
ATOM     21  C   LIG    1       -2.193   0.525  -0.975  0.00  0.00    +0.211 C 
ATOM     22  O   LIG    1       -2.577   1.121  -2.006  0.00  0.00    -0.288 OA
ENDROOT
BRANCH   5  23
ATOM     23  C   LIG    1       -4.057   1.449   0.495  0.00  0.00    +0.252 C 
ATOM     24  O   LIG    1       -4.740   1.257   1.553  0.00  0.00    -0.270 OA
ATOM     25  N   LIG    1       -4.305   2.569  -0.314  0.00  0.00    -0.289 N 
ATOM     26  H   LIG    1       -3.780   2.770  -1.163  0.00  0.00    +0.151 HD
BRANCH  25  27
ATOM     27  C   LIG    1       -5.350   3.541   0.027  0.00  0.00    +0.264 C 
BRANCH  27  28
ATOM     28  O   LIG    1       -5.087   4.105   1.272  0.00  0.00    -0.377 OA
ATOM     29  H   LIG    1       -5.391   3.457   1.966  0.00  0.00    +0.211 HD
ENDBRANCH  27  28
ENDBRANCH  25  27
ENDBRANCH   5  23
BRANCH   3  30
ATOM     30  N   LIG    1       -2.466  -2.847   0.468  0.00  0.00    -0.299 NA
ATOM     31  C   LIG    1       -1.598  -3.996   0.635  0.00  0.00    +0.105 C 
ATOM     32  C   LIG    1       -3.225  -2.900  -0.743  0.00  0.00    +0.105 C 
ENDBRANCH   3  30
BRANCH   1  33
ATOM     33  O   LIG    1       -0.707  -0.541  -2.376  0.00  0.00    -0.373 OA
ATOM     34  H   LIG    1       -1.069   0.147  -2.999  0.00  0.00    +0.211 HD
ENDBRANCH   1  33
BRANCH   4  35
ATOM     35  O   LIG    1       -3.622  -0.663   2.123  0.00  0.00    -0.509 OA
ATOM     36  H   LIG    1       -4.337  -1.387   2.192  0.00  0.00    +0.292 HD
ENDBRANCH   4  35
BRANCH   8  37
ATOM     37  O   LIG    1        2.925  -1.325   1.601  0.00  0.00    -0.384 OA
ATOM     38  H   LIG    1        3.042  -0.558   2.219  0.00  0.00    +0.211 HD
ENDBRANCH   8  37
BRANCH  14  39
ATOM     39  O   LIG    1        4.395   3.893  -0.175  0.00  0.00    -0.506 OA
ATOM     40  H   LIG    1        3.638   4.404  -0.486  0.00  0.00    +0.292 HD
ENDBRANCH  14  39
BRANCH  20  41
ATOM     41  O   LIG    1       -0.236   2.330  -1.194  0.00  0.00    -0.507 OA
ATOM     42  H   LIG    1       -0.348   2.909  -0.362  0.00  0.00    +0.292 HD
ENDBRANCH  20  41
TORSDOF 9
