REMARK  Name = molecules/GJJFMKBJSRMPLA-ZFWWWQNUSA-N.pdb
REMARK                            x       y       z     vdW  Elec       q    Type
REMARK                         _______ _______ _______ _____ _____    ______ ____
ROOT
ATOM      1  C   LIG    1       -0.450   0.533  -0.710  0.00  0.00    +0.076 C 
ATOM      2  C   LIG    1       -1.025   1.802  -0.110  0.00  0.00    +0.023 C 
ATOM      3  C   LIG    1       -1.114   1.594  -1.587  0.00  0.00    +0.027 C 
ENDROOT
BRANCH   1   5
ATOM      4  C   LIG    1       -2.224  -1.049  -1.280  0.00  0.00    +0.004 A 
ATOM      5  C   LIG    1       -1.237  -0.658  -0.332  0.00  0.00    -0.032 A 
ATOM      6  C   LIG    1       -1.125  -1.353   0.804  0.00  0.00    +0.004 A 
ATOM      7  C   LIG    1       -1.942  -2.462   1.102  0.00  0.00    +0.000 A 
ATOM      8  C   LIG    1       -2.889  -2.841   0.193  0.00  0.00    +0.000 A 
ATOM      9  C   LIG    1       -3.002  -2.129  -0.960  0.00  0.00    +0.000 A 
ENDBRANCH   1   5
BRANCH   1  10
ATOM     10  C   LIG    1        0.996   0.441  -0.815  0.00  0.00    +0.226 C 
ATOM     11  N   LIG    1        2.100   0.078  -0.097  0.00  0.00    -0.301 N 
ATOM     12  O   LIG    1        1.321   0.872  -2.064  0.00  0.00    -0.275 OA
BRANCH  11  13
ATOM     13  C   LIG    1        2.246  -0.174   1.292  0.00  0.00    +0.104 C 
ATOM     14  C   LIG    1        2.652   1.113   2.030  0.00  0.00    +0.024 C 
ENDBRANCH  11  13
BRANCH  11  15
ATOM     15  C   LIG    1        3.373  -0.143  -0.895  0.00  0.00    +0.104 C 
ATOM     16  C   LIG    1        3.418  -1.581  -1.305  0.00  0.00    +0.024 C 
ENDBRANCH  11  15
ENDBRANCH   1  10
BRANCH   2  17
ATOM     17  C   LIG    1       -2.350   1.633   0.598  0.00  0.00    +0.082 C 
BRANCH  17  18
ATOM     18  N   LIG    1       -2.832   2.889   1.136  0.00  0.00    -0.330 NA
ATOM     19  H   LIG    1       -3.865   2.780   1.301  0.00  0.00    +0.118 HD
ATOM     20  H   LIG    1       -2.754   3.600   0.379  0.00  0.00    +0.118 HD
ENDBRANCH  17  18
ENDBRANCH   2  17
TORSDOF 6
