REMARK  Name = molecules/GJJRIOLBUILIGK-FGZHOGPDSA-N.pdb
REMARK                            x       y       z     vdW  Elec       q    Type
REMARK                         _______ _______ _______ _____ _____    ______ ____
ROOT
ATOM      1  C   LIG    1        0.448  -2.595   0.410  0.00  0.00    +0.148 C 
ATOM      2  C   LIG    1       -0.800  -2.239   1.122  0.00  0.00    +0.243 C 
ATOM      3  O   LIG    1       -1.486  -3.128   1.741  0.00  0.00    -0.274 OA
ATOM      4  N   LIG    1       -1.343  -0.930   1.191  0.00  0.00    -0.221 N 
ATOM      5  C   LIG    1       -0.576   0.189   0.721  0.00  0.00    +0.318 C 
ATOM      6  O   LIG    1       -1.068   1.343   0.784  0.00  0.00    -0.252 OA
ATOM      7  N   LIG    1        0.717  -0.087   0.203  0.00  0.00    -0.221 N 
ATOM      8  C   LIG    1        1.248  -1.403   0.146  0.00  0.00    +0.243 C 
ATOM      9  O   LIG    1        2.490  -1.480  -0.157  0.00  0.00    -0.274 OA
ENDROOT
BRANCH   1  10
ATOM     10  C   LIG    1        0.101  -3.293  -0.868  0.00  0.00    -0.024 A 
ATOM     11  C   LIG    1       -0.834  -4.304  -0.891  0.00  0.00    +0.005 A 
ATOM     12  C   LIG    1       -1.129  -4.933  -2.089  0.00  0.00    +0.000 A 
ATOM     13  C   LIG    1       -0.527  -4.596  -3.283  0.00  0.00    +0.000 A 
ATOM     14  C   LIG    1        0.411  -3.576  -3.240  0.00  0.00    +0.000 A 
ATOM     15  C   LIG    1        0.718  -2.936  -2.049  0.00  0.00    +0.005 A 
ENDBRANCH   1  10
BRANCH   1  16
ATOM     16  C   LIG    1        1.231  -3.650   1.188  0.00  0.00    +0.027 C 
ATOM     17  C   LIG    1        1.616  -3.180   2.555  0.00  0.00    +0.006 C 
ENDBRANCH   1  16
BRANCH   7  18
ATOM     18  C   LIG    1        1.506   1.045  -0.283  0.00  0.00    +0.165 C 
BRANCH  18  19
ATOM     19  C   LIG    1        2.349   1.626   0.826  0.00  0.00    +0.221 C 
BRANCH  19  20
ATOM     20  C   LIG    1        2.994   2.924   0.431  0.00  0.00    +0.206 C 
BRANCH  20  21
ATOM     21  O   LIG    1        3.987   2.748  -0.532  0.00  0.00    -0.376 OA
BRANCH  21  22
ATOM     22  C   LIG    1        4.565   3.961  -0.880  0.00  0.00    +0.160 C 
BRANCH  22  23
ATOM     23  C   LIG    1        5.631   3.690  -1.931  0.00  0.00    +0.028 C 
BRANCH  23  24
ATOM     24  C   LIG    1        6.692   2.752  -1.370  0.00  0.00    -0.001 C 
ATOM     25  C   LIG    1        7.751   2.477  -2.408  0.00  0.00    +0.004 C 
ENDBRANCH  23  24
ENDBRANCH  22  23
ENDBRANCH  21  22
ENDBRANCH  20  21
ENDBRANCH  19  20
BRANCH  19  26
ATOM     26  O   LIG    1        3.253   0.712   1.367  0.00  0.00    -0.443 OA
BRANCH  26  27
ATOM     27  C   LIG    1        3.253   0.231   2.653  0.00  0.00    +0.398 C 
ATOM     28  O   LIG    1        2.356   0.643   3.434  0.00  0.00    -0.227 OA
ATOM     29  N   LIG    1        4.234  -0.711   3.105  0.00  0.00    -0.295 N 
ATOM     30  H   LIG    1        4.109  -1.331   3.908  0.00  0.00    +0.148 HD
ATOM     31  H   LIG    1        5.128  -0.757   2.576  0.00  0.00    +0.148 HD
ENDBRANCH  26  27
ENDBRANCH  19  26
ENDBRANCH  18  19
ENDBRANCH   7  18
BRANCH   4  32
ATOM     32  C   LIG    1       -2.645  -0.678   1.733  0.00  0.00    +0.165 C 
BRANCH  32  33
ATOM     33  C   LIG    1       -3.772  -0.713   0.735  0.00  0.00    +0.221 C 
BRANCH  33  34
ATOM     34  O   LIG    1       -3.944  -1.923   0.077  0.00  0.00    -0.443 OA
BRANCH  34  35
ATOM     35  C   LIG    1       -3.812  -2.135  -1.276  0.00  0.00    +0.398 C 
ATOM     36  N   LIG    1       -4.025  -3.424  -1.824  0.00  0.00    -0.295 N 
ATOM     37  H   LIG    1       -4.391  -4.202  -1.203  0.00  0.00    +0.148 HD
ATOM     38  H   LIG    1       -3.844  -3.664  -2.819  0.00  0.00    +0.148 HD
ATOM     39  O   LIG    1       -3.501  -1.172  -2.010  0.00  0.00    -0.227 OA
ENDBRANCH  34  35
ENDBRANCH  33  34
BRANCH  33  40
ATOM     40  C   LIG    1       -5.016  -0.274   1.482  0.00  0.00    +0.206 C 
BRANCH  40  41
ATOM     41  O   LIG    1       -6.118  -0.084   0.702  0.00  0.00    -0.376 OA
BRANCH  41  42
ATOM     42  C   LIG    1       -5.994   0.887  -0.256  0.00  0.00    +0.160 C 
BRANCH  42  43
ATOM     43  C   LIG    1       -5.695   2.271   0.322  0.00  0.00    +0.028 C 
BRANCH  43  44
ATOM     44  C   LIG    1       -5.598   3.196  -0.883  0.00  0.00    -0.001 C 
ATOM     45  C   LIG    1       -5.300   4.623  -0.451  0.00  0.00    +0.004 C 
ENDBRANCH  43  44
ENDBRANCH  42  43
ENDBRANCH  41  42
ENDBRANCH  40  41
ENDBRANCH  33  40
ENDBRANCH  32  33
ENDBRANCH   4  32
TORSDOF 20
