REMARK  Name = molecules/GJQPMPFPNINLKP-UHFFFAOYSA-N.pdb
REMARK                            x       y       z     vdW  Elec       q    Type
REMARK                         _______ _______ _______ _____ _____    ______ ____
ROOT
ATOM      1  C   LIG    1       -1.137   0.033   0.208  0.00  0.00    +0.126 A 
ATOM      2  C   LIG    1       -1.226   1.388   0.453  0.00  0.00    +0.086 A 
ATOM      3 CL   LIG    1       -2.766   2.139   0.876  0.00  0.00    -0.080 Cl
ATOM      4  C   LIG    1       -0.077   2.147   0.358  0.00  0.00    +0.063 A 
ATOM      5 CL   LIG    1       -0.106   3.886   0.655  0.00  0.00    -0.082 Cl
ATOM      6  C   LIG    1        1.134   1.569   0.027  0.00  0.00    +0.050 A 
ATOM      7  C   LIG    1        1.221   0.213  -0.217  0.00  0.00    +0.108 A 
ATOM      8  C   LIG    1        0.070  -0.538  -0.121  0.00  0.00    +0.058 A 
ENDROOT
BRANCH   1   9
ATOM      9  S   LIG    1       -2.545  -0.992   0.308  0.00  0.00    +0.057 S 
ATOM     10  O   LIG    1       -3.155  -0.887   1.676  0.00  0.00    -0.153 OA
ATOM     11  O   LIG    1       -2.148  -2.410   0.090  0.00  0.00    -0.153 OA
BRANCH   9  12
ATOM     12  N   LIG    1       -3.722  -0.446  -0.835  0.00  0.00    -0.203 NA
ATOM     13  H   LIG    1       -4.667  -0.782  -0.544  0.00  0.00    +0.144 HD
ATOM     14  H   LIG    1       -3.479  -0.805  -1.795  0.00  0.00    +0.144 HD
ENDBRANCH   9  12
ENDBRANCH   1   9
BRANCH   7  15
ATOM     15  S   LIG    1        2.730  -0.567  -0.639  0.00  0.00    +0.056 S 
ATOM     16  O   LIG    1        3.552   0.425  -1.403  0.00  0.00    -0.153 OA
ATOM     17  O   LIG    1        2.398  -1.782  -1.447  0.00  0.00    -0.153 OA
BRANCH  15  18
ATOM     18  N   LIG    1        3.551  -1.099   0.799  0.00  0.00    -0.204 NA
ATOM     19  H   LIG    1        3.833  -0.318   1.405  0.00  0.00    +0.144 HD
ATOM     20  H   LIG    1        4.336  -1.725   0.511  0.00  0.00    +0.144 HD
ENDBRANCH  15  18
ENDBRANCH   7  15
TORSDOF 4
