REMARK  Name = molecules/GJSLOMWRLALDCT-UHFFFAOYSA-N.pdb
REMARK                            x       y       z     vdW  Elec       q    Type
REMARK                         _______ _______ _______ _____ _____    ______ ____
ROOT
ATOM      1  C   LIG    1        2.375  -0.772   0.953  0.00  0.00    +0.152 A 
ATOM      2  N   LIG    1        2.653  -0.914   2.290  0.00  0.00    -0.133 NA
ATOM      3  N   LIG    1        1.542  -1.325   2.932  0.00  0.00    -0.132 NA
ATOM      4  C   LIG    1        0.551  -1.458   2.075  0.00  0.00    +0.159 A 
ATOM      5  C   LIG    1       -0.867  -1.846   2.334  0.00  0.00    +0.218 C 
ATOM      6  N   LIG    1       -1.794  -0.875   1.757  0.00  0.00    -0.275 NA
ATOM      7  C   LIG    1       -1.871  -0.389   0.538  0.00  0.00    +0.075 C 
ATOM      8  C   LIG    1       -0.948  -0.813  -0.494  0.00  0.00    +0.026 A 
ATOM      9  C   LIG    1        0.398  -1.132  -0.390  0.00  0.00    +0.059 A 
ATOM     10  C   LIG    1        1.192  -1.545  -1.410  0.00  0.00    +0.028 A 
ATOM     11  C   LIG    1        0.560  -1.640  -2.662  0.00  0.00    +0.022 A 
ATOM     12  C   LIG    1       -0.800  -1.326  -2.798  0.00  0.00    +0.042 A 
ATOM     13 CL   LIG    1       -1.584  -1.440  -4.361  0.00  0.00    -0.084 Cl
ATOM     14  C   LIG    1       -1.552  -0.918  -1.728  0.00  0.00    +0.032 A 
ATOM     15  N   LIG    1        1.100  -1.111   0.852  0.00  0.00    -0.280 N 
ENDROOT
BRANCH   7  16
ATOM     16  C   LIG    1       -2.918   0.540   0.238  0.00  0.00    +0.001 A 
ATOM     17  C   LIG    1       -3.956   0.643   1.195  0.00  0.00    +0.010 A 
ATOM     18  C   LIG    1       -5.067   1.423   1.004  0.00  0.00    +0.001 A 
ATOM     19  C   LIG    1       -5.213   2.143  -0.140  0.00  0.00    +0.000 A 
ATOM     20  C   LIG    1       -4.233   2.073  -1.089  0.00  0.00    +0.001 A 
ATOM     21  C   LIG    1       -3.119   1.281  -0.877  0.00  0.00    +0.010 A 
ENDBRANCH   7  16
BRANCH   1  22
ATOM     22  C   LIG    1        3.286  -0.273  -0.098  0.00  0.00    +0.160 C 
BRANCH  22  23
ATOM     23  N   LIG    1        4.074   0.866   0.438  0.00  0.00    -0.301 NA
ATOM     24  C   LIG    1        3.303   1.800   1.152  0.00  0.00    +0.105 C 
ATOM     25  C   LIG    1        4.971   1.395  -0.522  0.00  0.00    +0.105 C 
ENDBRANCH  22  23
ENDBRANCH   1  22
TORSDOF 3
