REMARK  Name = molecules/GKCBAIGFKIBETG-UHFFFAOYSA-N.pdb
REMARK                            x       y       z     vdW  Elec       q    Type
REMARK                         _______ _______ _______ _____ _____    ______ ____
ROOT
ATOM      1  C   LIG    1       -0.596  -1.174   0.196  0.00  0.00    +0.059 A 
ATOM      2  C   LIG    1        0.132  -0.034   0.209  0.00  0.00    +0.017 A 
ATOM      3  C   LIG    1        1.429   0.036  -0.301  0.00  0.00    +0.024 A 
ATOM      4  C   LIG    1        1.968  -1.093  -0.829  0.00  0.00    +0.027 A 
ATOM      5  C   LIG    1        1.256  -2.274  -0.861  0.00  0.00    +0.024 A 
ATOM      6  C   LIG    1       -0.025  -2.320  -0.350  0.00  0.00    +0.017 A 
ENDROOT
BRANCH   1   7
ATOM      7  C   LIG    1       -1.945  -1.193   0.744  0.00  0.00    +0.339 C 
ATOM      8  O   LIG    1       -2.590  -2.247   0.724  0.00  0.00    -0.245 OA
BRANCH   7   9
ATOM      9  O   LIG    1       -2.512  -0.068   1.281  0.00  0.00    -0.460 OA
BRANCH   9  10
ATOM     10  C   LIG    1       -3.808   0.010   1.836  0.00  0.00    +0.247 C 
BRANCH  10  11
ATOM     11  C   LIG    1       -4.879  -0.336   0.860  0.00  0.00    +0.125 C 
BRANCH  11  12
ATOM     12  N   LIG    1       -4.925   0.503  -0.294  0.00  0.00    -0.305 NA
ATOM     13  C   LIG    1       -5.330   1.851  -0.027  0.00  0.00    +0.104 C 
ATOM     14  C   LIG    1       -5.636  -0.093  -1.404  0.00  0.00    +0.104 C 
ENDBRANCH  11  12
ENDBRANCH  10  11
ENDBRANCH   9  10
ENDBRANCH   7   9
ENDBRANCH   1   7
BRANCH   4  15
ATOM     15  N   LIG    1        3.279  -1.086  -1.345  0.00  0.00    -0.344 N 
ATOM     16  H   LIG    1        3.634  -1.870  -1.949  0.00  0.00    +0.146 HD
BRANCH  15  17
ATOM     17  C   LIG    1        4.165   0.014  -1.049  0.00  0.00    +0.101 C 
BRANCH  17  18
ATOM     18  C   LIG    1        4.518  -0.039   0.414  0.00  0.00    +0.018 C 
BRANCH  18  19
ATOM     19  C   LIG    1        5.437   1.101   0.775  0.00  0.00    -0.002 C 
ATOM     20  C   LIG    1        6.718   1.065  -0.001  0.00  0.00    +0.004 C 
ENDBRANCH  18  19
ENDBRANCH  17  18
ENDBRANCH  15  17
ENDBRANCH   4  15
TORSDOF 9
