REMARK  Name = molecules/GKDRMWXFWHEQQT-UHFFFAOYSA-N.pdb
REMARK                            x       y       z     vdW  Elec       q    Type
REMARK                         _______ _______ _______ _____ _____    ______ ____
ROOT
ATOM      1  N   LIG    1       -1.242   1.586   0.915  0.00  0.00    -0.282 N 
ATOM      2  H   LIG    1       -1.781   2.375   1.404  0.00  0.00    +0.155 HD
ENDROOT
BRANCH   1   3
ATOM      3  C   LIG    1       -2.034   0.685   0.190  0.00  0.00    +0.126 A 
ATOM      4  N   LIG    1       -3.394   0.841   0.137  0.00  0.00    -0.213 NA
ATOM      5  C   LIG    1       -4.169  -0.002  -0.545  0.00  0.00    +0.174 A 
ATOM      6  N   LIG    1       -5.603   0.181  -0.588  0.00  0.00    -0.225 N 
ATOM      7  C   LIG    1       -6.463  -0.693  -1.302  0.00  0.00    +0.266 C 
ATOM      8  O   LIG    1       -7.644  -0.385  -1.548  0.00  0.00    -0.271 OA
ATOM      9  C   LIG    1       -5.916  -2.016  -1.762  0.00  0.00    +0.181 C 
ATOM     10  C   LIG    1       -6.296  -3.034  -0.709  0.00  0.00    +0.065 C 
ATOM     11  O   LIG    1       -4.536  -1.938  -1.944  0.00  0.00    -0.474 OA
ATOM     12  C   LIG    1       -6.566  -2.377  -3.095  0.00  0.00    +0.065 C 
ATOM     13  C   LIG    1       -3.683  -1.087  -1.247  0.00  0.00    +0.162 A 
ATOM     14  C   LIG    1       -2.328  -1.274  -1.216  0.00  0.00    +0.052 A 
ATOM     15  C   LIG    1       -1.535  -0.383  -0.498  0.00  0.00    +0.047 A 
BRANCH   6  16
ATOM     16  C   LIG    1       -6.145   1.302   0.132  0.00  0.00    +0.289 C 
BRANCH  16  17
ATOM     17  O   LIG    1       -6.437   0.885   1.430  0.00  0.00    -0.267 OA
BRANCH  17  18
ATOM     18  P   LIG    1       -7.082   2.144   2.354  0.00  0.00    +0.474 P 
ATOM     19  O   LIG    1       -6.846   1.829   3.805  0.00  0.00    -0.227 OA
BRANCH  18  20
ATOM     20  O   LIG    1       -8.746   2.321   2.079  0.00  0.00    -0.303 OA
ATOM     21  H   LIG    1       -8.977   2.340   1.135  0.00  0.00    +0.222 HD
ENDBRANCH  18  20
BRANCH  18  22
ATOM     22  O   LIG    1       -6.316   3.598   1.943  0.00  0.00    -0.303 OA
ATOM     23  H   LIG    1       -6.945   4.305   1.695  0.00  0.00    +0.222 HD
ENDBRANCH  18  22
ENDBRANCH  17  18
ENDBRANCH  16  17
ENDBRANCH   6  16
ENDBRANCH   1   3
BRANCH   1  30
ATOM     24  C   LIG    1        0.740   2.577   1.845  0.00  0.00    +0.181 A 
ATOM     25  F   LIG    1       -0.033   3.519   2.414  0.00  0.00    -0.200 F 
ATOM     26  C   LIG    1        2.099   2.638   2.048  0.00  0.00    +0.156 A 
ATOM     27  N   LIG    1        2.841   1.697   1.476  0.00  0.00    -0.220 NA
ATOM     28  C   LIG    1        2.335   0.721   0.732  0.00  0.00    +0.221 A 
ATOM     29  N   LIG    1        0.976   0.689   0.549  0.00  0.00    -0.196 NA
ATOM     30  C   LIG    1        0.136   1.579   1.073  0.00  0.00    +0.165 A 
BRANCH  28  31
ATOM     31  N   LIG    1        3.110  -0.253   0.123  0.00  0.00    -0.283 N 
ATOM     32  H   LIG    1        2.604  -0.982  -0.466  0.00  0.00    +0.155 HD
BRANCH  31  33
ATOM     33  C   LIG    1        4.503  -0.370   0.215  0.00  0.00    +0.041 A 
ATOM     34  C   LIG    1        5.291   0.281   1.139  0.00  0.00    +0.073 A 
ATOM     35  C   LIG    1        6.682   0.114   1.197  0.00  0.00    +0.167 A 
ATOM     36  C   LIG    1        7.243  -0.736   0.288  0.00  0.00    +0.204 A 
ATOM     37  C   LIG    1        6.526  -1.418  -0.658  0.00  0.00    +0.167 A 
ATOM     38  C   LIG    1        5.170  -1.224  -0.679  0.00  0.00    +0.073 A 
BRANCH  35  39
ATOM     39  O   LIG    1        7.413   0.796   2.146  0.00  0.00    -0.491 OA
ATOM     40  C   LIG    1        6.741   1.653   3.042  0.00  0.00    +0.277 C 
ENDBRANCH  35  39
BRANCH  36  41
ATOM     41  O   LIG    1        8.618  -0.919   0.325  0.00  0.00    -0.488 OA
ATOM     42  C   LIG    1        9.413  -0.037  -0.469  0.00  0.00    +0.277 C 
ENDBRANCH  36  41
BRANCH  37  43
ATOM     43  O   LIG    1        7.159  -2.269  -1.555  0.00  0.00    -0.491 OA
ATOM     44  C   LIG    1        6.371  -2.947  -2.509  0.00  0.00    +0.277 C 
ENDBRANCH  37  43
ENDBRANCH  31  33
ENDBRANCH  28  31
ENDBRANCH   1  30
TORSDOF 12
