REMARK  Name = molecules/GKIRPKYJQBWNGO-UHFFFAOYSA-N.pdb
REMARK                            x       y       z     vdW  Elec       q    Type
REMARK                         _______ _______ _______ _____ _____    ______ ____
ROOT
ATOM      1  C   LIG    1       -3.081   1.397  -0.584  0.00  0.00    +0.056 C 
ATOM      2  C   LIG    1       -2.597   0.236  -0.189  0.00  0.00    +0.008 C 
ATOM      3 CL   LIG    1       -1.919   2.629  -1.097  0.00  0.00    -0.082 Cl
ENDROOT
BRANCH   1   7
ATOM      4  C   LIG    1       -7.184   2.411  -0.561  0.00  0.00    +0.000 A 
ATOM      5  C   LIG    1       -6.274   3.290  -0.036  0.00  0.00    +0.001 A 
ATOM      6  C   LIG    1       -4.963   2.934  -0.064  0.00  0.00    +0.009 A 
ATOM      7  C   LIG    1       -4.501   1.725  -0.597  0.00  0.00    -0.006 A 
ATOM      8  C   LIG    1       -5.448   0.874  -1.112  0.00  0.00    +0.009 A 
ATOM      9  C   LIG    1       -6.801   1.210  -1.098  0.00  0.00    +0.001 A 
ENDBRANCH   1   7
BRANCH   2  10
ATOM     10  C   LIG    1       -3.525  -0.779   0.272  0.00  0.00    -0.016 A 
ATOM     11  C   LIG    1       -4.512  -0.525   1.198  0.00  0.00    +0.008 A 
ATOM     12  C   LIG    1       -5.365  -1.500   1.657  0.00  0.00    +0.001 A 
ATOM     13  C   LIG    1       -5.257  -2.790   1.196  0.00  0.00    +0.000 A 
ATOM     14  C   LIG    1       -4.259  -3.065   0.255  0.00  0.00    +0.001 A 
ATOM     15  C   LIG    1       -3.410  -2.066  -0.194  0.00  0.00    +0.008 A 
ENDBRANCH   2  10
BRANCH   2  16
ATOM     16  C   LIG    1       -1.148  -0.039  -0.232  0.00  0.00    -0.016 A 
ATOM     17  C   LIG    1       -0.468  -0.606   0.822  0.00  0.00    +0.012 A 
ATOM     18  C   LIG    1        0.888  -0.880   0.773  0.00  0.00    +0.046 A 
ATOM     19  C   LIG    1        1.575  -0.572  -0.381  0.00  0.00    +0.121 A 
ATOM     20  C   LIG    1        0.900  -0.008  -1.433  0.00  0.00    +0.046 A 
ATOM     21  C   LIG    1       -0.470   0.271  -1.385  0.00  0.00    +0.012 A 
BRANCH  19  22
ATOM     22  O   LIG    1        2.929  -0.811  -0.516  0.00  0.00    -0.491 OA
BRANCH  22  23
ATOM     23  C   LIG    1        3.608  -1.392   0.607  0.00  0.00    +0.244 C 
BRANCH  23  24
ATOM     24  C   LIG    1        5.054  -1.612   0.317  0.00  0.00    +0.125 C 
BRANCH  24  25
ATOM     25  N   LIG    1        5.766  -0.445  -0.002  0.00  0.00    -0.300 NA
BRANCH  25  26
ATOM     26  C   LIG    1        6.043   0.528   0.957  0.00  0.00    +0.081 C 
ATOM     27  C   LIG    1        4.844   1.320   1.394  0.00  0.00    +0.020 C 
ENDBRANCH  25  26
BRANCH  25  28
ATOM     28  C   LIG    1        6.650  -0.570  -1.119  0.00  0.00    +0.081 C 
ATOM     29  C   LIG    1        7.337   0.732  -1.426  0.00  0.00    +0.020 C 
ENDBRANCH  25  28
ENDBRANCH  24  25
ENDBRANCH  23  24
ENDBRANCH  22  23
ENDBRANCH  19  22
ENDBRANCH   2  16
TORSDOF 9
