REMARK  Name = molecules/GKNPSSNBBWDAGH-IBGZPJMESA-N.pdb
REMARK                            x       y       z     vdW  Elec       q    Type
REMARK                         _______ _______ _______ _____ _____    ______ ____
ROOT
ATOM      1  C   LIG    1       -2.001  -0.136   1.313  0.00  0.00    +0.213 C 
ENDROOT
BRANCH   1   2
ATOM      2  C   LIG    1       -2.585  -1.317   0.651  0.00  0.00    -0.001 A 
ATOM      3  C   LIG    1       -3.383  -2.203   1.332  0.00  0.00    +0.007 A 
ATOM      4  C   LIG    1       -3.929  -3.318   0.700  0.00  0.00    +0.000 A 
ATOM      5  C   LIG    1       -3.665  -3.539  -0.638  0.00  0.00    +0.000 A 
ATOM      6  C   LIG    1       -2.870  -2.663  -1.332  0.00  0.00    +0.000 A 
ATOM      7  C   LIG    1       -2.327  -1.544  -0.680  0.00  0.00    +0.007 A 
ENDBRANCH   1   2
BRANCH   1   8
ATOM      8  C   LIG    1       -2.533   1.053   0.629  0.00  0.00    -0.001 A 
ATOM      9  C   LIG    1       -3.884   1.312   0.728  0.00  0.00    +0.007 A 
ATOM     10  C   LIG    1       -4.477   2.403   0.119  0.00  0.00    +0.000 A 
ATOM     11  C   LIG    1       -3.721   3.270  -0.613  0.00  0.00    +0.000 A 
ATOM     12  C   LIG    1       -2.361   3.029  -0.727  0.00  0.00    +0.000 A 
ATOM     13  C   LIG    1       -1.785   1.937  -0.114  0.00  0.00    +0.007 A 
ENDBRANCH   1   8
BRANCH   1  14
ATOM     14  O   LIG    1       -2.432  -0.165   2.662  0.00  0.00    -0.370 OA
ATOM     15  H   LIG    1       -1.946   0.539   3.156  0.00  0.00    +0.212 HD
ENDBRANCH   1  14
BRANCH   1  16
ATOM     16  C   LIG    1       -0.542  -0.270   1.259  0.00  0.00    +0.349 C 
ATOM     17  O   LIG    1        0.088  -0.382   2.353  0.00  0.00    -0.247 OA
BRANCH  16  18
ATOM     18  O   LIG    1        0.235  -0.288   0.128  0.00  0.00    -0.461 OA
BRANCH  18  19
ATOM     19  C   LIG    1        1.647  -0.423   0.148  0.00  0.00    +0.161 C 
ATOM     20  C   LIG    1        2.206   0.914  -0.350  0.00  0.00    -0.031 C 
ATOM     21  N   LIG    1        3.641   0.817  -0.162  0.00  0.00    +0.379 N 
ATOM     22  C   LIG    1        4.007   0.484   1.196  0.00  0.00    -0.092 C 
ATOM     23  C   LIG    1        4.208   2.119  -0.459  0.00  0.00    -0.092 C 
ATOM     24  C   LIG    1        4.148  -0.112  -1.133  0.00  0.00    -0.076 C 
ATOM     25  C   LIG    1        3.551  -1.458  -1.128  0.00  0.00    -0.015 C 
ATOM     26  C   LIG    1        2.132  -1.564  -0.689  0.00  0.00    +0.041 C 
ENDBRANCH  18  19
ENDBRANCH  16  18
ENDBRANCH   1  16
TORSDOF 6
