REMARK  Name = molecules/GKTWGGQPFAXNFI-HNNXBMFYSA-N.pdb
REMARK                            x       y       z     vdW  Elec       q    Type
REMARK                         _______ _______ _______ _____ _____    ______ ____
ROOT
ATOM      1  C   LIG    1       -0.638   0.533  -0.675  0.00  0.00    +0.198 C 
ENDROOT
BRANCH   1   2
ATOM      2  N   LIG    1        0.641  -0.083  -0.733  0.00  0.00    -0.282 NA
ATOM      3  C   LIG    1        1.152  -0.468   0.470  0.00  0.00    +0.121 C 
ATOM      4  C   LIG    1        2.658  -0.674   0.506  0.00  0.00    -0.023 A 
ATOM      5  C   LIG    1        3.322  -1.157   1.591  0.00  0.00    +0.013 A 
ATOM      6  C   LIG    1        4.671  -1.291   1.470  0.00  0.00    +0.046 A 
ATOM      7  S   LIG    1        4.997  -0.759  -0.109  0.00  0.00    -0.101 S 
ATOM      8  C   LIG    1        3.378  -0.370  -0.591  0.00  0.00    -0.005 A 
ATOM      9  C   LIG    1        2.800   0.171  -1.857  0.00  0.00    +0.058 C 
ATOM     10  C   LIG    1        1.331  -0.040  -1.934  0.00  0.00    +0.091 C 
ENDBRANCH   1   2
BRANCH   1  11
ATOM     11  C   LIG    1       -1.725  -0.395  -0.281  0.00  0.00    -0.001 A 
ATOM     12  C   LIG    1       -2.049  -0.611   1.050  0.00  0.00    +0.007 A 
ATOM     13  C   LIG    1       -3.055  -1.466   1.434  0.00  0.00    +0.000 A 
ATOM     14  C   LIG    1       -3.739  -2.108   0.423  0.00  0.00    +0.001 A 
ATOM     15  C   LIG    1       -3.440  -1.914  -0.914  0.00  0.00    +0.020 A 
ATOM     16  C   LIG    1       -2.426  -1.052  -1.272  0.00  0.00    +0.046 A 
ATOM     17 CL   LIG    1       -2.036  -0.801  -2.981  0.00  0.00    -0.083 Cl
ENDBRANCH   1  11
BRANCH   1  18
ATOM     18  C   LIG    1       -0.673   1.804   0.097  0.00  0.00    +0.329 C 
ATOM     19  O   LIG    1        0.343   2.328   0.640  0.00  0.00    -0.249 OA
BRANCH  18  20
ATOM     20  O   LIG    1       -1.859   2.509   0.270  0.00  0.00    -0.467 OA
ATOM     21  C   LIG    1       -1.939   3.722   0.998  0.00  0.00    +0.280 C 
ENDBRANCH  18  20
ENDBRANCH   1  18
TORSDOF 4
