REMARK  Name = molecules/GKWPCEFFIHSJOE-UHFFFAOYSA-N.pdb
REMARK                            x       y       z     vdW  Elec       q    Type
REMARK                         _______ _______ _______ _____ _____    ______ ____
ROOT
ATOM      1  C   LIG    1       -4.357   0.628  -0.670  0.00  0.00    +0.027 A 
ATOM      2  C   LIG    1       -5.375   0.875   0.227  0.00  0.00    +0.003 A 
ATOM      3  C   LIG    1       -5.115   0.764   1.581  0.00  0.00    +0.021 A 
ATOM      4  C   LIG    1       -3.849   0.411   1.992  0.00  0.00    +0.054 A 
ATOM      5 CL   LIG    1       -3.553   0.278   3.716  0.00  0.00    -0.083 Cl
ATOM      6  C   LIG    1       -2.816   0.160   1.089  0.00  0.00    +0.059 A 
ATOM      7  C   LIG    1       -1.539  -0.196   1.559  0.00  0.00    +0.145 A 
ATOM      8  C   LIG    1       -0.503  -0.447   0.647  0.00  0.00    +0.143 A 
ATOM      9  C   LIG    1       -0.844  -0.317  -0.681  0.00  0.00    +0.267 A 
ATOM     10  N   LIG    1       -2.099   0.034  -1.097  0.00  0.00    -0.310 N 
ATOM     11  C   LIG    1       -2.401   0.156  -2.508  0.00  0.00    +0.152 C 
ATOM     12  O   LIG    1       -0.030  -0.515  -1.610  0.00  0.00    -0.267 OA
ATOM     13  C   LIG    1       -3.083   0.272  -0.232  0.00  0.00    +0.057 A 
ENDROOT
BRANCH   8  14
ATOM     14  C   LIG    1        0.760  -0.887   1.137  0.00  0.00    +0.260 C 
ATOM     15  O   LIG    1        0.700  -1.440   2.329  0.00  0.00    -0.269 OA
ATOM     16  N   LIG    1        2.053  -0.860   0.635  0.00  0.00    -0.267 N 
BRANCH  16  17
ATOM     17  C   LIG    1        2.452  -0.137  -0.509  0.00  0.00    +0.037 A 
ATOM     18  C   LIG    1        2.320   1.237  -0.624  0.00  0.00    +0.023 A 
ATOM     19  C   LIG    1        2.763   1.918  -1.740  0.00  0.00    +0.002 A 
ATOM     20  C   LIG    1        3.358   1.221  -2.780  0.00  0.00    +0.000 A 
ATOM     21  C   LIG    1        3.480  -0.152  -2.646  0.00  0.00    +0.002 A 
ATOM     22  C   LIG    1        3.044  -0.833  -1.543  0.00  0.00    +0.023 A 
ENDBRANCH  16  17
BRANCH  16  23
ATOM     23  C   LIG    1        3.139  -1.619   1.287  0.00  0.00    +0.110 C 
ATOM     24  C   LIG    1        3.846  -0.827   2.329  0.00  0.00    +0.025 C 
ENDBRANCH  16  23
ENDBRANCH   8  14
BRANCH   7  25
ATOM     25  O   LIG    1       -1.428  -0.263   2.909  0.00  0.00    -0.505 OA
ATOM     26  H   LIG    1       -0.760  -0.449   3.568  0.00  0.00    +0.292 HD
ENDBRANCH   7  25
TORSDOF 4
