REMARK  Name = molecules/GMHKMTDVRCWUDX-LBPRGKRZSA-N.pdb
REMARK                            x       y       z     vdW  Elec       q    Type
REMARK                         _______ _______ _______ _____ _____    ______ ____
ROOT
ATOM      1  C   LIG    1       -0.472  -0.635   0.098  0.00  0.00    +0.138 C 
ATOM      2  C   LIG    1       -1.194   0.491   0.744  0.00  0.00    +0.251 C 
ATOM      3  O   LIG    1       -1.497   0.664   1.951  0.00  0.00    -0.272 OA
ATOM      4  N   LIG    1       -1.502   1.397  -0.310  0.00  0.00    -0.227 N 
ATOM      5  C   LIG    1       -1.799   2.817  -0.228  0.00  0.00    +0.143 C 
ATOM      6  C   LIG    1       -1.464   0.625  -1.507  0.00  0.00    +0.309 C 
ATOM      7  O   LIG    1       -1.687   1.078  -2.679  0.00  0.00    -0.252 OA
ATOM      8  N   LIG    1       -1.134  -0.737  -1.166  0.00  0.00    -0.281 N 
ATOM      9  H   LIG    1       -1.378  -1.538  -1.787  0.00  0.00    +0.152 HD
ENDROOT
BRANCH   1  10
ATOM     10  C   LIG    1        0.936  -0.216  -0.076  0.00  0.00    -0.015 A 
ATOM     11  C   LIG    1        1.578   0.412   0.981  0.00  0.00    +0.006 A 
ATOM     12  C   LIG    1        2.882   0.801   0.822  0.00  0.00    +0.000 A 
ATOM     13  C   LIG    1        3.524   0.565  -0.370  0.00  0.00    +0.000 A 
ATOM     14  C   LIG    1        2.863  -0.064  -1.415  0.00  0.00    +0.000 A 
ATOM     15  C   LIG    1        1.550  -0.467  -1.282  0.00  0.00    +0.006 A 
ENDBRANCH   1  10
BRANCH   1  16
ATOM     16  C   LIG    1       -0.500  -1.889   0.913  0.00  0.00    +0.037 C 
ATOM     17  C   LIG    1       -1.888  -2.399   1.175  0.00  0.00    +0.007 C 
ENDBRANCH   1  16
TORSDOF 2
