REMARK  Name = molecules/GMRQFYUYWCNGIN-NKMMMXOESA-N.pdb
REMARK                            x       y       z     vdW  Elec       q    Type
REMARK                         _______ _______ _______ _____ _____    ______ ____
ROOT
ATOM      1  C   LIG    1        0.508   0.433   1.032  0.00  0.00    +0.012 C 
ATOM      2  C   LIG    1        1.059   0.738  -0.298  0.00  0.00    -0.022 C 
ATOM      3  C   LIG    1        0.982   2.175  -0.712  0.00  0.00    +0.008 C 
ATOM      4  C   LIG    1       -0.366   2.773  -0.555  0.00  0.00    +0.005 C 
ATOM      5  C   LIG    1       -1.538   1.905  -0.765  0.00  0.00    +0.031 C 
ATOM      6  C   LIG    1       -1.212   0.508  -1.131  0.00  0.00    -0.066 C 
ATOM      7  C   LIG    1       -2.241  -0.336  -1.289  0.00  0.00    -0.000 C 
ATOM      8  C   LIG    1        2.313   0.051  -0.723  0.00  0.00    -0.002 C 
ATOM      9  C   LIG    1        1.969  -1.376  -0.656  0.00  0.00    +0.005 C 
ATOM     10  C   LIG    1        0.445  -1.387  -0.929  0.00  0.00    +0.009 C 
ATOM     11  C   LIG    1        0.119   0.011  -1.304  0.00  0.00    +0.021 C 
ENDROOT
BRANCH   7  12
ATOM     12  C   LIG    1       -3.597   0.147  -1.120  0.00  0.00    +0.004 C 
ATOM     13  C   LIG    1       -4.629  -0.679  -1.216  0.00  0.00    -0.040 C 
ATOM     14  C   LIG    1       -6.050  -0.202  -1.116  0.00  0.00    +0.067 C 
ATOM     15  C   LIG    1       -6.879  -0.920  -2.128  0.00  0.00    +0.122 C 
ATOM     16  C   LIG    1       -6.077  -1.683  -3.152  0.00  0.00    +0.067 C 
ATOM     17  C   LIG    1       -5.211  -2.766  -2.539  0.00  0.00    +0.147 C 
ATOM     18  C   LIG    1       -4.411  -2.104  -1.480  0.00  0.00    -0.023 C 
ATOM     19  C   LIG    1       -3.521  -2.706  -0.711  0.00  0.00    +0.015 C 
BRANCH  15  20
ATOM     20  O   LIG    1       -7.572   0.073  -2.861  0.00  0.00    -0.391 OA
ATOM     21  H   LIG    1       -7.633   0.921  -2.384  0.00  0.00    +0.210 HD
ENDBRANCH  15  20
BRANCH  17  22
ATOM     22  O   LIG    1       -6.001  -3.791  -2.030  0.00  0.00    -0.387 OA
ATOM     23  H   LIG    1       -6.831  -3.425  -1.660  0.00  0.00    +0.210 HD
ENDBRANCH  17  22
ENDBRANCH   7  12
BRANCH   8  24
ATOM     24  C   LIG    1        3.577   0.600  -0.323  0.00  0.00    -0.010 C 
ATOM     25  C   LIG    1        4.702  -0.212  -1.013  0.00  0.00    +0.008 C 
BRANCH  24  26
ATOM     26  C   LIG    1        4.025   0.802   1.060  0.00  0.00    +0.003 C 
BRANCH  26  27
ATOM     27  C   LIG    1        4.160  -0.357   1.958  0.00  0.00    +0.003 C 
BRANCH  27  28
ATOM     28  C   LIG    1        4.638  -0.126   3.347  0.00  0.00    +0.034 C 
BRANCH  28  29
ATOM     29  C   LIG    1        3.865   0.710   4.273  0.00  0.00    +0.061 C 
ATOM     30  C   LIG    1        4.659   0.694   5.607  0.00  0.00    +0.041 C 
ATOM     31  C   LIG    1        3.622   2.135   3.950  0.00  0.00    +0.041 C 
BRANCH  29  32
ATOM     32  O   LIG    1        2.613   0.133   4.570  0.00  0.00    -0.389 OA
ATOM     33  H   LIG    1        2.391   0.260   5.508  0.00  0.00    +0.210 HD
ENDBRANCH  29  32
ENDBRANCH  28  29
ENDBRANCH  27  28
ENDBRANCH  26  27
ENDBRANCH  24  26
ENDBRANCH   8  24
TORSDOF 9
