REMARK  Name = molecules/GMVPRGQOIOIIMI-DWKJAMRDSA-N.pdb
REMARK                            x       y       z     vdW  Elec       q    Type
REMARK                         _______ _______ _______ _____ _____    ______ ____
ROOT
ATOM      1  C   LIG    1        0.709  -1.403  -1.311  0.00  0.00    +0.065 C 
ATOM      2  C   LIG    1       -0.007  -0.784  -0.099  0.00  0.00    +0.051 C 
ATOM      3  C   LIG    1       -0.220  -2.002   0.779  0.00  0.00    +0.129 C 
ATOM      4  C   LIG    1        1.090  -2.734   0.638  0.00  0.00    +0.106 C 
ATOM      5  C   LIG    1        1.468  -2.525  -0.772  0.00  0.00    +0.140 C 
ATOM      6  O   LIG    1        2.285  -3.195  -1.372  0.00  0.00    -0.297 OA
ENDROOT
BRANCH   2   7
ATOM      7  C   LIG    1       -1.267  -0.131  -0.479  0.00  0.00    -0.022 C 
ATOM      8  C   LIG    1       -1.551   1.135  -0.168  0.00  0.00    -0.000 C 
BRANCH   8   9
ATOM      9  C   LIG    1       -2.798   1.828  -0.528  0.00  0.00    +0.137 C 
BRANCH   9  10
ATOM     10  O   LIG    1       -2.601   2.456  -1.773  0.00  0.00    -0.388 OA
ATOM     11  H   LIG    1       -3.451   2.645  -2.227  0.00  0.00    +0.210 HD
ENDBRANCH   9  10
BRANCH   9  12
ATOM     12  C   LIG    1       -3.976   0.889  -0.662  0.00  0.00    +0.035 C 
BRANCH  12  13
ATOM     13  C   LIG    1       -4.166   0.200   0.688  0.00  0.00    +0.003 C 
BRANCH  13  14
ATOM     14  C   LIG    1       -5.319  -0.760   0.658  0.00  0.00    -0.000 C 
BRANCH  14  15
ATOM     15  C   LIG    1       -6.632  -0.111   0.330  0.00  0.00    -0.003 C 
ATOM     16  C   LIG    1       -6.955   0.940   1.359  0.00  0.00    +0.004 C 
ENDBRANCH  14  15
ENDBRANCH  13  14
ENDBRANCH  12  13
ENDBRANCH   9  12
ENDBRANCH   8   9
ENDBRANCH   2   7
BRANCH   3  17
ATOM     17  O   LIG    1       -0.439  -1.639   2.106  0.00  0.00    -0.391 OA
ATOM     18  H   LIG    1       -1.356  -1.250   2.149  0.00  0.00    +0.210 HD
ENDBRANCH   3  17
BRANCH   1  19
ATOM     19  C   LIG    1        1.437  -0.395  -2.108  0.00  0.00    +0.012 C 
BRANCH  19  20
ATOM     20  C   LIG    1        2.508   0.384  -1.448  0.00  0.00    +0.001 C 
BRANCH  20  21
ATOM     21  C   LIG    1        3.657  -0.401  -0.901  0.00  0.00    +0.000 C 
BRANCH  21  22
ATOM     22  C   LIG    1        4.670   0.562  -0.261  0.00  0.00    +0.001 C 
BRANCH  22  23
ATOM     23  C   LIG    1        5.819  -0.235   0.286  0.00  0.00    +0.011 C 
BRANCH  23  24
ATOM     24  C   LIG    1        6.849   0.643   0.928  0.00  0.00    +0.120 C 
BRANCH  24  25
ATOM     25  C   LIG    1        6.300   1.426   2.063  0.00  0.00    +0.305 C 
ATOM     26  O   LIG    1        6.052   0.855   3.143  0.00  0.00    -0.251 OA
BRANCH  25  27
ATOM     27  O   LIG    1        6.071   2.784   1.904  0.00  0.00    -0.481 OA
ATOM     28  H   LIG    1        6.810   3.466   2.050  0.00  0.00    +0.295 HD
ENDBRANCH  25  27
ENDBRANCH  24  25
ENDBRANCH  23  24
ENDBRANCH  22  23
ENDBRANCH  21  22
ENDBRANCH  20  21
ENDBRANCH  19  20
ENDBRANCH   1  19
TORSDOF 16
