REMARK  Name = molecules/GMZVRMREEHBGGF-UHFFFAOYSA-N.pdb
REMARK                            x       y       z     vdW  Elec       q    Type
REMARK                         _______ _______ _______ _____ _____    ______ ____
ROOT
ATOM      1  C   LIG    1        1.306   0.343   0.161  0.00  0.00    +0.203 C 
ENDROOT
BRANCH   1   2
ATOM      2  N   LIG    1       -0.108   0.227   0.041  0.00  0.00    -0.293 N 
ATOM      3  C   LIG    1       -0.927  -0.728   0.781  0.00  0.00    +0.109 C 
ATOM      4  C   LIG    1       -2.262   0.015   0.776  0.00  0.00    +0.028 C 
ATOM      5  C   LIG    1       -2.296   0.430  -0.682  0.00  0.00    +0.097 C 
ATOM      6  C   LIG    1       -0.935   1.013  -0.807  0.00  0.00    +0.216 C 
ATOM      7  O   LIG    1       -0.614   1.993  -1.520  0.00  0.00    -0.276 OA
ENDBRANCH   1   2
BRANCH   1  10
ATOM      8  N   LIG    1        3.461  -0.522  -0.798  0.00  0.00    -0.328 N 
ATOM      9  H   LIG    1        4.046  -1.382  -0.732  0.00  0.00    +0.145 HD
ATOM     10  C   LIG    1        2.046  -0.506  -0.774  0.00  0.00    +0.228 C 
ATOM     11  O   LIG    1        1.436  -1.245  -1.582  0.00  0.00    -0.274 OA
ATOM     12  H   LIG    1        3.981   0.395  -0.889  0.00  0.00    +0.145 HD
ENDBRANCH   1  10
TORSDOF 2
