REMARK  Name = molecules/GNOGSFBXBWBTIG-UHFFFAOYSA-N.pdb
REMARK                            x       y       z     vdW  Elec       q    Type
REMARK                         _______ _______ _______ _____ _____    ______ ____
ROOT
ATOM      1  C   LIG    1       -0.205  -0.302  -0.153  0.00  0.00    +0.061 A 
ATOM      2  C   LIG    1        0.661   0.657   0.328  0.00  0.00    +0.051 A 
ATOM      3  I   LIG    1       -0.054   2.541   0.839  0.00  0.00    -0.041 I 
ATOM      4  C   LIG    1        2.018   0.398   0.483  0.00  0.00    +0.087 A 
ATOM      5  C   LIG    1        2.525  -0.829   0.158  0.00  0.00    +0.029 A 
ATOM      6  I   LIG    1        4.567  -1.309   0.361  0.00  0.00    -0.043 I 
ATOM      7  C   LIG    1        1.673  -1.818  -0.330  0.00  0.00    +0.031 A 
ATOM      8  C   LIG    1        0.330  -1.525  -0.472  0.00  0.00    +0.037 A 
ATOM      9  I   LIG    1       -0.935  -3.018  -1.205  0.00  0.00    -0.042 I 
ENDROOT
BRANCH   1  10
ATOM     10  N   LIG    1       -1.565  -0.020  -0.301  0.00  0.00    -0.284 N 
ATOM     11  C   LIG    1       -2.560  -0.211   0.668  0.00  0.00    +0.214 C 
ATOM     12  O   LIG    1       -2.263  -0.674   1.787  0.00  0.00    -0.276 OA
ATOM     13  C   LIG    1       -3.976   0.114   0.430  0.00  0.00    +0.109 C 
ATOM     14  H   LIG    1       -1.891   0.380  -1.236  0.00  0.00    +0.155 HD
ENDBRANCH   1  10
BRANCH   4  15
ATOM     15  C   LIG    1        2.932   1.409   0.990  0.00  0.00    +0.339 C 
ATOM     16  O   LIG    1        3.196   1.565   2.197  0.00  0.00    -0.245 OA
BRANCH  15  17
ATOM     17  O   LIG    1        3.556   2.260   0.083  0.00  0.00    -0.477 OA
ATOM     18  H   LIG    1        2.934   2.668  -0.631  0.00  0.00    +0.295 HD
ENDBRANCH  15  17
ENDBRANCH   4  15
TORSDOF 3
