REMARK  Name = molecules/GNRXCIONJWKSEA-KTXOBNNYSA-N.pdb
REMARK                            x       y       z     vdW  Elec       q    Type
REMARK                         _______ _______ _______ _____ _____    ______ ____
ROOT
ATOM      1  C   LIG    1        0.262  -0.213  -0.738  0.00  0.00    +0.034 C 
ATOM      2  C   LIG    1       -0.434  -1.108   0.216  0.00  0.00    -0.032 A 
ATOM      3  C   LIG    1        0.080  -2.239   0.791  0.00  0.00    +0.005 A 
ATOM      4  C   LIG    1       -0.680  -3.000   1.690  0.00  0.00    +0.000 A 
ATOM      5  C   LIG    1       -1.955  -2.622   2.008  0.00  0.00    +0.000 A 
ATOM      6  C   LIG    1       -2.476  -1.467   1.419  0.00  0.00    +0.004 A 
ATOM      7  C   LIG    1       -1.728  -0.724   0.539  0.00  0.00    -0.036 A 
ATOM      8  C   LIG    1       -2.204   0.508  -0.144  0.00  0.00    +0.050 C 
ATOM      9  C   LIG    1       -1.166   1.559   0.100  0.00  0.00    -0.036 A 
ATOM     10  C   LIG    1       -1.441   2.803   0.592  0.00  0.00    +0.004 A 
ATOM     11  C   LIG    1       -0.395   3.705   0.772  0.00  0.00    +0.000 A 
ATOM     12  C   LIG    1        0.902   3.345   0.458  0.00  0.00    +0.000 A 
ATOM     13  C   LIG    1        1.143   2.069  -0.041  0.00  0.00    +0.005 A 
ATOM     14  C   LIG    1       -2.044   0.184  -1.643  0.00  0.00    +0.014 C 
ATOM     15  C   LIG    1        0.124   1.169  -0.224  0.00  0.00    -0.032 A 
ATOM     16  C   LIG    1       -0.658  -0.238  -1.981  0.00  0.00    +0.018 C 
ENDROOT
BRANCH   1  17
ATOM     17  C   LIG    1        1.641  -0.614  -1.060  0.00  0.00    +0.096 C 
BRANCH  17  18
ATOM     18  N   LIG    1        2.466  -0.529   0.080  0.00  0.00    -0.318 NA
ATOM     19  H   LIG    1        2.068  -0.466   0.996  0.00  0.00    +0.122 HD
ATOM     20  C   LIG    1        3.823  -0.894  -0.029  0.00  0.00    +0.101 C 
ENDBRANCH  17  18
ENDBRANCH   1  17
TORSDOF 2
