REMARK  Name = molecules/GOAZMLKQUGCOPO-UHFFFAOYSA-N.pdb
REMARK                            x       y       z     vdW  Elec       q    Type
REMARK                         _______ _______ _______ _____ _____    ______ ____
ROOT
ATOM      1  N   LIG    1       -0.447  -0.046   0.873  0.00  0.00    -0.314 N 
ENDROOT
BRANCH   1   2
ATOM      2  C   LIG    1       -0.486   1.230   0.294  0.00  0.00    +0.030 A 
ATOM      3  C   LIG    1       -1.714   1.882   0.136  0.00  0.00    +0.023 A 
ATOM      4  C   LIG    1       -1.843   3.144  -0.394  0.00  0.00    +0.002 A 
ATOM      5  C   LIG    1       -0.727   3.840  -0.805  0.00  0.00    +0.000 A 
ATOM      6  C   LIG    1        0.500   3.233  -0.666  0.00  0.00    +0.002 A 
ATOM      7  C   LIG    1        0.610   1.945  -0.123  0.00  0.00    +0.023 A 
ENDBRANCH   1   2
BRANCH   1   8
ATOM      8  C   LIG    1       -1.644  -0.440   1.675  0.00  0.00    +0.238 C 
BRANCH   8   9
ATOM      9  C   LIG    1       -2.348  -1.490   0.953  0.00  0.00    +0.348 C 
ATOM     10  N   LIG    1       -2.052  -1.903  -0.251  0.00  0.00    +0.147 NA
BRANCH   9  11
ATOM     11  N   LIG    1       -3.458  -2.139   1.559  0.00  0.00    -0.246 N 
ATOM     12  H   LIG    1       -3.436  -3.161   1.846  0.00  0.00    +0.288 HD
ATOM     13  H   LIG    1       -4.313  -1.568   1.718  0.00  0.00    +0.288 HD
ENDBRANCH   9  11
BRANCH  10  14
ATOM     14  O   LIG    1       -2.743  -2.895  -0.896  0.00  0.00    -0.311 OA
ATOM     15  H   LIG    1       -3.631  -3.252  -0.529  0.00  0.00    +0.361 HD
ENDBRANCH  10  14
ENDBRANCH   8   9
ENDBRANCH   1   8
BRANCH   1  16
ATOM     16  C   LIG    1        0.563  -1.040   0.863  0.00  0.00    +0.140 C 
BRANCH  16  17
ATOM     17  C   LIG    1        1.695  -0.914  -0.030  0.00  0.00    -0.030 A 
ATOM     18  C   LIG    1        2.977  -0.797   0.461  0.00  0.00    +0.005 A 
ATOM     19  C   LIG    1        4.064  -0.702  -0.376  0.00  0.00    +0.000 A 
ATOM     20  C   LIG    1        3.911  -0.720  -1.730  0.00  0.00    +0.000 A 
ATOM     21  C   LIG    1        2.636  -0.836  -2.253  0.00  0.00    +0.000 A 
ATOM     22  C   LIG    1        1.542  -0.932  -1.397  0.00  0.00    +0.005 A 
ENDBRANCH  16  17
ENDBRANCH   1  16
TORSDOF 7
