REMARK  Name = molecules/GODGZZGKTZQSAL-VXFFQEMOSA-N.pdb
REMARK                            x       y       z     vdW  Elec       q    Type
REMARK                         _______ _______ _______ _____ _____    ______ ____
ROOT
ATOM      1  C   LIG    1       -2.145  -1.805   0.072  0.00  0.00    +0.240 C 
ATOM      2  C   LIG    1       -2.738  -1.211   1.287  0.00  0.00    +0.017 C 
ATOM      3  C   LIG    1       -3.867  -1.719   1.752  0.00  0.00    -0.021 C 
ATOM      4  C   LIG    1       -4.424  -2.875   0.953  0.00  0.00    +0.043 C 
ATOM      5  C   LIG    1       -5.873  -3.102   1.327  0.00  0.00    +0.068 C 
ATOM      6  C   LIG    1       -6.766  -1.907   1.287  0.00  0.00    +0.055 C 
ATOM      7  C   LIG    1       -6.192  -0.807   0.481  0.00  0.00    -0.038 A 
ATOM      8  C   LIG    1       -6.700   0.491   0.512  0.00  0.00    +0.008 A 
ATOM      9  C   LIG    1       -6.078   1.490  -0.246  0.00  0.00    +0.050 A 
ATOM     10  C   LIG    1       -4.963   1.259  -1.042  0.00  0.00    +0.163 A 
ATOM     11  C   LIG    1       -4.493  -0.042  -1.043  0.00  0.00    +0.167 A 
ATOM     12  O   LIG    1       -3.400  -0.663  -1.702  0.00  0.00    -0.480 OA
ATOM     13  C   LIG    1       -5.103  -1.015  -0.305  0.00  0.00    +0.012 A 
ATOM     14  N   LIG    1       -6.448  -4.123   0.454  0.00  0.00    -0.301 NA
ATOM     15  C   LIG    1       -6.660  -5.341   1.223  0.00  0.00    +0.105 C 
ATOM     16  C   LIG    1       -5.603  -4.473  -0.650  0.00  0.00    +0.085 C 
ATOM     17  C   LIG    1       -5.138  -3.254  -1.421  0.00  0.00    +0.031 C 
ATOM     18  C   LIG    1       -4.450  -2.343  -0.473  0.00  0.00    +0.049 C 
ATOM     19  C   LIG    1       -3.132  -1.901  -1.019  0.00  0.00    +0.229 C 
ENDROOT
BRANCH  10  20
ATOM     20  O   LIG    1       -4.329   2.194  -1.792  0.00  0.00    -0.484 OA
BRANCH  20  21
ATOM     21  C   LIG    1       -4.648   3.546  -1.924  0.00  0.00    +0.264 C 
BRANCH  21  22
ATOM     22  C   LIG    1       -4.606   4.309  -0.670  0.00  0.00    -0.010 A 
ATOM     23  C   LIG    1       -3.585   4.032   0.212  0.00  0.00    +0.007 A 
ATOM     24  C   LIG    1       -3.483   4.711   1.410  0.00  0.00    +0.000 A 
ATOM     25  C   LIG    1       -4.391   5.682   1.764  0.00  0.00    +0.000 A 
ATOM     26  C   LIG    1       -5.416   5.953   0.868  0.00  0.00    +0.000 A 
ATOM     27  C   LIG    1       -5.515   5.277  -0.322  0.00  0.00    +0.007 A 
ENDBRANCH  21  22
ENDBRANCH  20  21
ENDBRANCH  10  20
BRANCH   1  28
ATOM     28  O   LIG    1       -0.922  -1.193  -0.285  0.00  0.00    -0.453 OA
BRANCH  28  29
ATOM     29  C   LIG    1        0.253  -1.872  -0.273  0.00  0.00    +0.308 C 
ATOM     30  O   LIG    1        0.203  -3.106   0.074  0.00  0.00    -0.251 OA
BRANCH  29  31
ATOM     31  C   LIG    1        1.599  -1.346  -0.618  0.00  0.00    +0.120 C 
BRANCH  31  32
ATOM     32  C   LIG    1        2.654  -2.396  -0.539  0.00  0.00    +0.011 C 
BRANCH  32  33
ATOM     33  C   LIG    1        4.050  -1.896  -0.884  0.00  0.00    +0.001 C 
BRANCH  33  34
ATOM     34  C   LIG    1        4.449  -0.833   0.072  0.00  0.00    +0.000 C 
BRANCH  34  35
ATOM     35  C   LIG    1        5.859  -0.283  -0.265  0.00  0.00    +0.000 C 
BRANCH  35  36
ATOM     36  C   LIG    1        6.845  -1.378  -0.195  0.00  0.00    +0.000 C 
BRANCH  36  37
ATOM     37  C   LIG    1        8.235  -1.036  -0.492  0.00  0.00    -0.000 C 
BRANCH  37  38
ATOM     38  C   LIG    1        9.050  -0.150   0.333  0.00  0.00    -0.000 C 
BRANCH  38  39
ATOM     39  C   LIG    1        8.658   1.273   0.520  0.00  0.00    -0.000 C 
BRANCH  39  40
ATOM     40  C   LIG    1        8.534   2.001  -0.773  0.00  0.00    -0.000 C 
BRANCH  40  41
ATOM     41  C   LIG    1        8.202   3.439  -0.669  0.00  0.00    -0.000 C 
BRANCH  41  42
ATOM     42  C   LIG    1        6.943   3.863  -0.043  0.00  0.00    -0.003 C 
ATOM     43  C   LIG    1        6.775   3.547   1.394  0.00  0.00    +0.004 C 
ENDBRANCH  41  42
ENDBRANCH  40  41
ENDBRANCH  39  40
ENDBRANCH  38  39
ENDBRANCH  37  38
ENDBRANCH  36  37
ENDBRANCH  35  36
ENDBRANCH  34  35
ENDBRANCH  33  34
ENDBRANCH  32  33
ENDBRANCH  31  32
ENDBRANCH  29  31
ENDBRANCH  28  29
ENDBRANCH   1  28
TORSDOF 17
