REMARK  Name = molecules/GPKJTRJOBQGKQK-INIZCTEOSA-N.pdb
REMARK                            x       y       z     vdW  Elec       q    Type
REMARK                         _______ _______ _______ _____ _____    ______ ____
ROOT
ATOM      1  C   LIG    1       -2.033  -0.709  -0.039  0.00  0.00    +0.046 A 
ATOM      2  C   LIG    1       -2.487  -2.025   0.138  0.00  0.00    +0.022 A 
ATOM      3  C   LIG    1       -1.586  -3.030   0.426  0.00  0.00    +0.013 A 
ATOM      4  C   LIG    1       -2.075  -4.319   0.581  0.00  0.00    +0.021 A 
ATOM      5  C   LIG    1       -3.416  -4.599   0.451  0.00  0.00    +0.043 A 
ATOM      6 CL   LIG    1       -4.053  -6.230   0.646  0.00  0.00    -0.083 Cl
ATOM      7  C   LIG    1       -4.323  -3.605   0.161  0.00  0.00    +0.048 A 
ATOM      8  C   LIG    1       -3.824  -2.317   0.008  0.00  0.00    +0.075 A 
ATOM      9  N   LIG    1       -4.683  -1.336  -0.288  0.00  0.00    -0.247 NA
ATOM     10  C   LIG    1       -4.307  -0.068  -0.469  0.00  0.00    +0.074 A 
ATOM     11  C   LIG    1       -5.283   0.886  -0.781  0.00  0.00    +0.032 A 
ATOM     12  C   LIG    1       -4.873   2.177  -0.966  0.00  0.00    +0.048 A 
ATOM     13  C   LIG    1       -3.552   2.539  -0.852  0.00  0.00    +0.121 A 
ATOM     14  C   LIG    1       -2.600   1.574  -0.541  0.00  0.00    +0.057 A 
ATOM     15  C   LIG    1       -2.970   0.260  -0.346  0.00  0.00    +0.025 A 
ENDROOT
BRANCH   1  16
ATOM     16  N   LIG    1       -0.653  -0.380   0.102  0.00  0.00    -0.340 N 
ATOM     17  H   LIG    1       -0.045  -0.549  -0.744  0.00  0.00    +0.146 HD
BRANCH  16  18
ATOM     18  C   LIG    1       -0.109   0.152   1.326  0.00  0.00    +0.067 C 
ATOM     19  C   LIG    1       -0.477  -0.748   2.476  0.00  0.00    +0.028 C 
BRANCH  18  20
ATOM     20  C   LIG    1        1.398   0.260   1.276  0.00  0.00    +0.023 C 
BRANCH  20  21
ATOM     21  C   LIG    1        1.897   1.161   0.173  0.00  0.00    +0.017 C 
BRANCH  21  22
ATOM     22  C   LIG    1        3.407   1.237   0.154  0.00  0.00    +0.084 C 
BRANCH  22  23
ATOM     23  N   LIG    1        4.054   0.012  -0.049  0.00  0.00    -0.303 NA
BRANCH  23  24
ATOM     24  C   LIG    1        5.024  -0.435   0.866  0.00  0.00    +0.081 C 
ATOM     25  C   LIG    1        6.303   0.336   0.925  0.00  0.00    +0.020 C 
ENDBRANCH  23  24
BRANCH  23  26
ATOM     26  C   LIG    1        3.971  -0.646  -1.282  0.00  0.00    +0.081 C 
ATOM     27  C   LIG    1        4.677   0.035  -2.432  0.00  0.00    +0.020 C 
ENDBRANCH  23  26
ENDBRANCH  22  23
ENDBRANCH  21  22
ENDBRANCH  20  21
ENDBRANCH  18  20
ENDBRANCH  16  18
ENDBRANCH   1  16
BRANCH  13  28
ATOM     28  O   LIG    1       -3.207   3.860  -1.051  0.00  0.00    -0.495 OA
ATOM     29  C   LIG    1       -4.053   4.915  -1.364  0.00  0.00    +0.277 C 
ENDBRANCH  13  28
TORSDOF 9
