REMARK  Name = molecules/GPMXUUPHFNMNDH-UHFFFAOYSA-N.pdb
REMARK                            x       y       z     vdW  Elec       q    Type
REMARK                         _______ _______ _______ _____ _____    ______ ____
ROOT
ATOM      1  C   LIG    1       -2.447   0.418  -0.488  0.00  0.00    +0.093 C 
ATOM      2  C   LIG    1       -1.616  -0.250   0.598  0.00  0.00    +0.055 C 
ATOM      3  C   LIG    1       -0.261  -0.548   0.026  0.00  0.00    +0.087 C 
ATOM      4  N   LIG    1        0.427   0.612  -0.514  0.00  0.00    -0.302 NA
ATOM      5  C   LIG    1       -0.435   1.354  -1.423  0.00  0.00    +0.087 C 
ATOM      6  C   LIG    1       -1.792   1.701  -0.823  0.00  0.00    +0.055 C 
ENDROOT
BRANCH   1   7
ATOM      7  C   LIG    1       -3.854   0.468  -0.121  0.00  0.00    -0.016 A 
ATOM      8  C   LIG    1       -4.531   1.542   0.388  0.00  0.00    +0.006 A 
ATOM      9  C   LIG    1       -5.870   1.458   0.718  0.00  0.00    +0.001 A 
ATOM     10  C   LIG    1       -6.569   0.282   0.544  0.00  0.00    +0.012 A 
ATOM     11  C   LIG    1       -5.923  -0.838   0.029  0.00  0.00    +0.055 A 
ATOM     12  C   LIG    1       -4.585  -0.721  -0.289  0.00  0.00    +0.018 A 
BRANCH  11  13
ATOM     13  C   LIG    1       -6.654  -2.138  -0.181  0.00  0.00    +0.417 C 
ATOM     14  F   LIG    1       -7.842  -2.130   0.468  0.00  0.00    -0.166 F 
ATOM     15  F   LIG    1       -5.873  -3.148   0.364  0.00  0.00    -0.166 F 
ATOM     16  F   LIG    1       -6.707  -2.364  -1.528  0.00  0.00    -0.166 F 
ENDBRANCH  11  13
ENDBRANCH   1   7
BRANCH   1  17
ATOM     17  O   LIG    1       -2.327  -0.393  -1.636  0.00  0.00    -0.384 OA
ATOM     18  H   LIG    1       -2.266  -1.336  -1.337  0.00  0.00    +0.211 HD
ENDBRANCH   1  17
BRANCH   4  19
ATOM     19  C   LIG    1        0.965   1.494   0.437  0.00  0.00    +0.085 C 
BRANCH  19  20
ATOM     20  C   LIG    1        2.080   1.200   1.325  0.00  0.00    +0.023 C 
BRANCH  20  21
ATOM     21  C   LIG    1        3.443   0.929   0.817  0.00  0.00    +0.081 C 
BRANCH  21  22
ATOM     22  C   LIG    1        3.675  -0.271   0.049  0.00  0.00    +0.163 C 
ATOM     23  O   LIG    1        2.783  -0.948  -0.442  0.00  0.00    -0.292 OA
BRANCH  22  24
ATOM     24  C   LIG    1        5.101  -0.726  -0.159  0.00  0.00    +0.018 A 
ATOM     25  C   LIG    1        6.153   0.002   0.306  0.00  0.00    +0.014 A 
ATOM     26  C   LIG    1        7.491  -0.417   0.221  0.00  0.00    +0.039 A 
ATOM     27  C   LIG    1        7.709  -1.637  -0.360  0.00  0.00    +0.123 A 
ATOM     28  F   LIG    1        8.991  -2.130  -0.421  0.00  0.00    -0.205 F 
ATOM     29  C   LIG    1        6.655  -2.394  -0.841  0.00  0.00    +0.039 A 
ATOM     30  C   LIG    1        5.342  -1.950  -0.748  0.00  0.00    +0.014 A 
ENDBRANCH  22  24
ENDBRANCH  21  22
ENDBRANCH  20  21
ENDBRANCH  19  20
ENDBRANCH   4  19
TORSDOF 8
