REMARK  Name = molecules/GPRBEKHLDVQUJE-QSWIMTSFSA-N.pdb
REMARK                            x       y       z     vdW  Elec       q    Type
REMARK                         _______ _______ _______ _____ _____    ______ ____
ROOT
ATOM      1  CA  LIG    1       -0.538   2.429  -0.584  0.00  0.00    +0.191 C 
ATOM      2  C   LIG    1        0.607   2.509   0.386  0.00  0.00    +0.169 C 
ATOM      3  S   LIG    1        0.703   1.203   1.608  0.00  0.00    -0.131 S 
ATOM      4  C   LIG    1        1.768  -0.071   0.892  0.00  0.00    +0.107 C 
ATOM      5  C   LIG    1        2.970   0.544   0.212  0.00  0.00    +0.006 C 
ATOM      6  CA  LIG    1        2.767   1.606  -0.566  0.00  0.00    +0.125 C 
ATOM      7  N   LIG    1        1.444   2.139  -0.734  0.00  0.00    -0.249 N 
ATOM      8  C   LIG    1        0.443   2.527  -1.655  0.00  0.00    +0.244 C 
ATOM      9  O   LIG    1        0.392   2.831  -2.870  0.00  0.00    -0.273 OA
ENDROOT
BRANCH   1  10
ATOM     10  N   LIG    1       -1.341   1.211  -0.525  0.00  0.00    -0.296 N 
ATOM     11  C   LIG    1       -2.735   1.240  -0.375  0.00  0.00    +0.268 C 
ATOM     12  O   LIG    1       -3.189   2.476  -0.311  0.00  0.00    -0.268 OA
ATOM     13  H   LIG    1       -0.808   0.358  -0.624  0.00  0.00    +0.150 HD
BRANCH  11  14
ATOM     14  C   LIG    1       -3.680   0.200  -0.283  0.00  0.00    +0.190 C 
ATOM     15  N   LIG    1       -4.955   0.603  -0.190  0.00  0.00    -0.078 NA
BRANCH  14  16
ATOM     16  C   LIG    1       -3.468  -1.270  -0.293  0.00  0.00    +0.107 A 
ATOM     17  C   LIG    1       -2.256  -1.877  -0.149  0.00  0.00    +0.078 A 
ATOM     18  S   LIG    1       -2.700  -3.556  -0.186  0.00  0.00    -0.060 S 
ATOM     19  C   LIG    1       -4.374  -3.364  -0.378  0.00  0.00    +0.156 A 
ATOM     20  N   LIG    1       -4.505  -2.071  -0.403  0.00  0.00    -0.223 NA
BRANCH  19  21
ATOM     21  N   LIG    1       -5.393  -4.388  -0.485  0.00  0.00    -0.338 N 
ATOM     22  H   LIG    1       -5.478  -5.032   0.330  0.00  0.00    +0.144 HD
ATOM     23  H   LIG    1       -5.944  -4.394  -1.349  0.00  0.00    +0.144 HD
ENDBRANCH  19  21
ENDBRANCH  14  16
BRANCH  15  24
ATOM     24  O   LIG    1       -5.297   1.920  -0.184  0.00  0.00    -0.396 OA
ATOM     25  C   LIG    1       -6.313   2.395   0.676  0.00  0.00    +0.313 C 
ENDBRANCH  15  24
ENDBRANCH  11  14
ENDBRANCH   1  10
BRANCH   6  26
ATOM     26  C   LIG    1        3.840   2.233  -1.305  0.00  0.00    +0.351 C 
ATOM     27  O   LIG    1        3.621   3.230  -2.034  0.00  0.00    -0.244 OA
BRANCH  26  28
ATOM     28  OXT LIG    1        5.135   1.799  -1.269  0.00  0.00    -0.476 OA
ATOM     29  HXT LIG    1        5.942   2.388  -1.072  0.00  0.00    +0.295 HD
ENDBRANCH  26  28
ENDBRANCH   6  26
BRANCH   5  30
ATOM     30  C   LIG    1        4.247  -0.097   0.509  0.00  0.00    +0.266 C 
BRANCH  30  31
ATOM     31  O   LIG    1        4.227  -1.479   0.069  0.00  0.00    -0.460 OA
BRANCH  31  32
ATOM     32  C   LIG    1        5.353  -2.264   0.262  0.00  0.00    +0.304 C 
ATOM     33  O   LIG    1        6.341  -1.723   0.816  0.00  0.00    -0.251 OA
ATOM     34  C   LIG    1        5.400  -3.703  -0.170  0.00  0.00    +0.136 C 
ENDBRANCH  31  32
ENDBRANCH  30  31
ENDBRANCH   5  30
TORSDOF 10
