REMARK  Name = molecules/GPTONYMQFTZPKC-UHFFFAOYSA-N.pdb
REMARK                            x       y       z     vdW  Elec       q    Type
REMARK                         _______ _______ _______ _____ _____    ______ ____
ROOT
ATOM      1  S   LIG    1        0.967  -2.547  -0.289  0.00  0.00    +0.075 S 
ATOM      2  O   LIG    1        1.705  -3.768   0.183  0.00  0.00    -0.150 OA
ATOM      3  O   LIG    1        0.461  -2.872  -1.677  0.00  0.00    -0.150 OA
ENDROOT
BRANCH   1   4
ATOM      4  C   LIG    1        2.036  -1.180  -0.335  0.00  0.00    +0.109 A 
ATOM      5  C   LIG    1        3.008  -1.079   0.629  0.00  0.00    +0.030 A 
ATOM      6  C   LIG    1        3.855  -0.002   0.604  0.00  0.00    +0.024 A 
ATOM      7  C   LIG    1        3.733   0.956  -0.367  0.00  0.00    +0.025 A 
ATOM      8  C   LIG    1        2.746   0.846  -1.340  0.00  0.00    +0.024 A 
ATOM      9  C   LIG    1        1.890  -0.238  -1.318  0.00  0.00    +0.030 A 
BRANCH   7  10
ATOM     10  N   LIG    1        4.607   2.067  -0.392  0.00  0.00    -0.358 N 
ATOM     11  H   LIG    1        4.860   2.564   0.475  0.00  0.00    +0.142 HD
ATOM     12  H   LIG    1        4.996   2.379  -1.295  0.00  0.00    +0.142 HD
ENDBRANCH   7  10
ENDBRANCH   1   4
BRANCH   1  13
ATOM     13  N   LIG    1       -0.406  -2.310   0.710  0.00  0.00    -0.184 N 
ATOM     14  H   LIG    1       -0.542  -2.937   1.531  0.00  0.00    +0.177 HD
BRANCH  13  15
ATOM     15  C   LIG    1       -1.349  -1.296   0.451  0.00  0.00    +0.235 A 
ATOM     16  N   LIG    1       -2.435  -1.093   1.224  0.00  0.00    -0.218 NA
ATOM     17  C   LIG    1       -3.339  -0.131   0.986  0.00  0.00    +0.161 A 
ATOM     18  C   LIG    1       -3.177   0.705  -0.094  0.00  0.00    +0.156 A 
ATOM     19  C   LIG    1       -2.071   0.511  -0.896  0.00  0.00    +0.161 A 
ATOM     20  N   LIG    1       -1.214  -0.467  -0.596  0.00  0.00    -0.218 NA
BRANCH  18  21
ATOM     21  O   LIG    1       -4.103   1.728  -0.381  0.00  0.00    -0.492 OA
ATOM     22  C   LIG    1       -5.200   1.857   0.487  0.00  0.00    +0.277 C 
ENDBRANCH  18  21
ENDBRANCH  13  15
ENDBRANCH   1  13
TORSDOF 5
