REMARK  Name = molecules/GPTXWRGISTZRIO-UHFFFAOYSA-N.pdb
REMARK                            x       y       z     vdW  Elec       q    Type
REMARK                         _______ _______ _______ _____ _____    ______ ____
ROOT
ATOM      1  C   LIG    1        1.685  -1.044   0.015  0.00  0.00    +0.161 A 
ATOM      2  C   LIG    1        0.473  -0.395   0.015  0.00  0.00    +0.115 A 
ATOM      3  N   LIG    1       -0.690  -1.068   0.095  0.00  0.00    -0.248 NA
ATOM      4  C   LIG    1       -1.894  -0.464   0.098  0.00  0.00    +0.039 A 
ATOM      5  C   LIG    1       -3.171  -1.233   0.188  0.00  0.00    +0.065 C 
ATOM      6  C   LIG    1       -1.927   0.915   0.014  0.00  0.00    +0.024 A 
ATOM      7  C   LIG    1       -0.747   1.648  -0.070  0.00  0.00    +0.013 A 
ATOM      8  C   LIG    1        0.471   1.001  -0.071  0.00  0.00    +0.022 A 
ATOM      9  C   LIG    1        1.665   1.694  -0.153  0.00  0.00    +0.052 A 
ATOM     10  C   LIG    1        2.885   1.047  -0.154  0.00  0.00    +0.044 A 
ATOM     11 CL   LIG    1        1.674   3.445  -0.262  0.00  0.00    -0.083 Cl
ATOM     12  C   LIG    1        2.868  -0.340  -0.068  0.00  0.00    +0.086 A 
ATOM     13 CL   LIG    1        4.384  -1.214  -0.065  0.00  0.00    -0.080 Cl
ENDROOT
BRANCH   1  14
ATOM     14  O   LIG    1        1.739  -2.424   0.098  0.00  0.00    -0.503 OA
ATOM     15  H   LIG    1        0.871  -2.934   0.158  0.00  0.00    +0.292 HD
ENDBRANCH   1  14
TORSDOF 1
