REMARK  Name = molecules/GQNZGCARKRHPOH-YGBQSPPGSA-N.pdb
REMARK                            x       y       z     vdW  Elec       q    Type
REMARK                         _______ _______ _______ _____ _____    ______ ____
ROOT
ATOM      1  C   LIG    1       -2.364  -0.549   0.662  0.00  0.00    +0.157 C 
ATOM      2  C   LIG    1       -2.718   0.852   0.654  0.00  0.00    +0.188 C 
ATOM      3  C   LIG    1       -3.598   1.465   1.668  0.00  0.00    +0.218 C 
ATOM      4  C   LIG    1       -4.945   1.895   1.135  0.00  0.00    +0.167 C 
ATOM      5  C   LIG    1       -4.745   3.111   0.304  0.00  0.00    +0.311 C 
ATOM      6  O   LIG    1       -3.886   3.934   0.786  0.00  0.00    -0.251 OA
ATOM      7  O   LIG    1       -5.414   3.300  -0.837  0.00  0.00    -0.461 OA
ATOM      8  C   LIG    1       -5.278   2.926  -2.149  0.00  0.00    +0.177 C 
ATOM      9  C   LIG    1       -6.530   2.283  -2.680  0.00  0.00    +0.071 C 
ATOM     10  C   LIG    1       -7.540   1.935  -1.657  0.00  0.00    -0.023 C 
ATOM     11  C   LIG    1       -8.183   0.766  -1.591  0.00  0.00    -0.004 C 
ATOM     12  C   LIG    1       -8.078  -0.395  -2.421  0.00  0.00    -0.001 C 
ATOM     13  C   LIG    1       -7.308  -1.462  -2.322  0.00  0.00    +0.017 C 
ATOM     14  C   LIG    1       -6.288  -1.750  -1.240  0.00  0.00    +0.202 C 
ATOM     15  C   LIG    1       -4.961  -1.151  -1.450  0.00  0.00    +0.031 C 
ATOM     16  C   LIG    1       -3.737  -1.842  -1.022  0.00  0.00    +0.013 C 
ATOM     17  C   LIG    1       -4.865  -1.231  -3.021  0.00  0.00    +0.011 C 
ATOM     18  C   LIG    1       -4.992   4.221  -2.955  0.00  0.00    +0.052 C 
ATOM     19  C   LIG    1       -3.110  -1.747   0.296  0.00  0.00    +0.028 C 
ENDROOT
BRANCH   2  20
ATOM     20  O   LIG    1       -2.847   1.448  -0.579  0.00  0.00    -0.374 OA
ATOM     21  C   LIG    1       -1.813   2.219  -1.020  0.00  0.00    +0.194 C 
ENDBRANCH   2  20
BRANCH   3  22
ATOM     22  O   LIG    1       -3.698   0.744   2.867  0.00  0.00    -0.458 OA
BRANCH  22  23
ATOM     23  C   LIG    1       -3.331   1.263   4.072  0.00  0.00    +0.307 C 
ATOM     24  O   LIG    1       -2.885   2.434   4.107  0.00  0.00    -0.251 OA
BRANCH  23  25
ATOM     25  C   LIG    1       -3.439   0.495   5.333  0.00  0.00    +0.117 C 
ATOM     26  C   LIG    1       -3.000   1.294   6.528  0.00  0.00    +0.015 C 
ENDBRANCH  23  25
ENDBRANCH  22  23
ENDBRANCH   3  22
BRANCH  14  27
ATOM     27  O   LIG    1       -6.930  -1.552   0.012  0.00  0.00    -0.457 OA
BRANCH  27  28
ATOM     28  C   LIG    1       -7.524  -2.552   0.745  0.00  0.00    +0.305 C 
ATOM     29  C   LIG    1       -8.178  -2.367   2.053  0.00  0.00    +0.136 C 
ATOM     30  O   LIG    1       -7.493  -3.708   0.232  0.00  0.00    -0.251 OA
ENDBRANCH  27  28
ENDBRANCH  14  27
BRANCH  19  31
ATOM     31  C   LIG    1       -3.801  -2.394   1.474  0.00  0.00    +0.076 C 
BRANCH  31  32
ATOM     32  C   LIG    1       -4.490  -3.663   1.206  0.00  0.00    +0.223 C 
ATOM     33  O   LIG    1       -4.472  -4.307   0.202  0.00  0.00    -0.301 OA
ENDBRANCH  31  32
ENDBRANCH  19  31
BRANCH   1  34
ATOM     34  O   LIG    1       -1.112  -0.589  -0.039  0.00  0.00    -0.343 OA
BRANCH  34  35
ATOM     35  C   LIG    1       -0.047  -0.781   0.806  0.00  0.00    +0.281 C 
ATOM     36  O   LIG    1        0.625   0.446   0.831  0.00  0.00    -0.343 OA
ATOM     37  C   LIG    1        1.969   0.335   0.998  0.00  0.00    +0.149 C 
ATOM     38  C   LIG    1        2.533   1.758   1.005  0.00  0.00    +0.041 C 
ATOM     39  C   LIG    1        2.653  -0.427  -0.128  0.00  0.00    +0.169 C 
ATOM     40  C   LIG    1        1.859  -1.559  -0.648  0.00  0.00    +0.121 C 
ATOM     41  C   LIG    1        0.792  -1.912   0.381  0.00  0.00    +0.190 C 
BRANCH  40  42
ATOM     42  N   LIG    1        1.402  -1.478  -1.978  0.00  0.00    -0.301 NA
ATOM     43  C   LIG    1        0.885  -2.663  -2.569  0.00  0.00    +0.105 C 
ATOM     44  C   LIG    1        1.881  -0.485  -2.833  0.00  0.00    +0.105 C 
ENDBRANCH  40  42
BRANCH  41  45
ATOM     45  O   LIG    1        1.508  -2.345   1.533  0.00  0.00    -0.385 OA
ATOM     46  H   LIG    1        0.955  -2.205   2.336  0.00  0.00    +0.210 HD
ENDBRANCH  41  45
BRANCH  39  47
ATOM     47  O   LIG    1        3.822  -0.914   0.462  0.00  0.00    -0.344 OA
BRANCH  47  48
ATOM     48  C   LIG    1        4.979  -0.362  -0.025  0.00  0.00    +0.255 C 
ATOM     49  C   LIG    1        5.637   0.395   1.103  0.00  0.00    +0.113 C 
ATOM     50  C   LIG    1        7.149   0.204   1.088  0.00  0.00    +0.154 C 
ATOM     51  C   LIG    1        7.798   1.288   1.883  0.00  0.00    +0.060 C 
ATOM     52  C   LIG    1        7.528   0.326  -0.399  0.00  0.00    +0.248 C 
ATOM     53  C   LIG    1        6.955  -0.873  -1.101  0.00  0.00    +0.163 C 
ATOM     54  C   LIG    1        6.770  -0.605  -2.583  0.00  0.00    +0.042 C 
ATOM     55  O   LIG    1        5.791  -1.367  -0.525  0.00  0.00    -0.344 OA
BRANCH  52  56
ATOM     56  O   LIG    1        8.907   0.376  -0.592  0.00  0.00    -0.455 OA
BRANCH  56  57
ATOM     57  C   LIG    1        9.562   1.453  -1.123  0.00  0.00    +0.307 C 
ATOM     58  O   LIG    1        8.861   2.455  -1.453  0.00  0.00    -0.251 OA
BRANCH  57  59
ATOM     59  C   LIG    1       11.026   1.487  -1.320  0.00  0.00    +0.117 C 
ATOM     60  C   LIG    1       11.425   2.825  -1.887  0.00  0.00    +0.015 C 
ENDBRANCH  57  59
ENDBRANCH  56  57
ENDBRANCH  52  56
BRANCH  50  61
ATOM     61  O   LIG    1        7.393  -1.093   1.547  0.00  0.00    -0.455 OA
BRANCH  61  62
ATOM     62  C   LIG    1        8.610  -1.685   1.720  0.00  0.00    +0.305 C 
ATOM     63  C   LIG    1        8.717  -3.096   2.219  0.00  0.00    +0.136 C 
ATOM     64  O   LIG    1        9.638  -1.040   1.457  0.00  0.00    -0.251 OA
ENDBRANCH  61  62
ENDBRANCH  50  61
ENDBRANCH  47  48
ENDBRANCH  39  47
ENDBRANCH  34  35
ENDBRANCH   1  34
TORSDOF 19
