REMARK  Name = molecules/GQYIWUVLTXOXAJ-UHFFFAOYSA-N.pdb
REMARK                            x       y       z     vdW  Elec       q    Type
REMARK                         _______ _______ _______ _____ _____    ______ ____
ROOT
ATOM      1  N   LIG    1        0.513   0.196  -0.225  0.00  0.00    -0.295 N 
ATOM      2  H   LIG    1        1.068   0.874   0.363  0.00  0.00    +0.151 HD
ATOM      3  C   LIG    1        1.212  -0.539  -1.210  0.00  0.00    +0.324 C 
ATOM      4  N   LIG    1        2.616  -0.391  -1.426  0.00  0.00    -0.140 N 
ATOM      5  O   LIG    1        0.566  -1.370  -1.937  0.00  0.00    -0.251 OA
ENDROOT
BRANCH   1   6
ATOM      6  C   LIG    1       -0.897   0.007  -0.051  0.00  0.00    +0.074 C 
ATOM      7  C   LIG    1       -1.240  -0.477   1.352  0.00  0.00    +0.022 C 
ATOM      8  C   LIG    1       -2.697  -0.158   1.611  0.00  0.00    +0.002 C 
ATOM      9  C   LIG    1       -3.440  -0.334   0.306  0.00  0.00    +0.000 C 
ATOM     10  C   LIG    1       -3.124   0.845  -0.578  0.00  0.00    +0.002 C 
ATOM     11  C   LIG    1       -1.694   1.263  -0.308  0.00  0.00    +0.022 C 
ENDBRANCH   1   6
BRANCH   4  12
ATOM     12  N   LIG    1        3.232  -1.164  -2.424  0.00  0.00    +0.053 NA
ATOM     13  O   LIG    1        3.166  -2.402  -2.446  0.00  0.00    -0.126 OA
ENDBRANCH   4  12
BRANCH   4  14
ATOM     14  C   LIG    1        3.423   0.512  -0.668  0.00  0.00    +0.155 C 
BRANCH  14  15
ATOM     15  C   LIG    1        3.969  -0.209   0.572  0.00  0.00    +0.130 C 
ATOM     16 CL   LIG    1        4.963   0.950   1.479  0.00  0.00    -0.124 Cl
ENDBRANCH  14  15
ENDBRANCH   4  14
TORSDOF 4
