REMARK  Name = molecules/GQZQCROBCYNTMU-UHFFFAOYSA-N.pdb
REMARK                            x       y       z     vdW  Elec       q    Type
REMARK                         _______ _______ _______ _____ _____    ______ ____
ROOT
ATOM      1  C   LIG    1        0.606   0.624  -0.108  0.00  0.00    +0.258 C 
ATOM      2  N   LIG    1       -0.392  -0.273   0.359  0.00  0.00    -0.245 N 
ATOM      3  H   LIG    1       -0.169  -1.197   0.780  0.00  0.00    +0.169 HD
ATOM      4  O   LIG    1        0.280   1.737  -0.611  0.00  0.00    -0.269 OA
ENDROOT
BRANCH   1   5
ATOM      5  C   LIG    1        2.031   0.318  -0.034  0.00  0.00    +0.041 A 
ATOM      6  C   LIG    1        2.473  -0.901   0.419  0.00  0.00    +0.033 A 
ATOM      7  C   LIG    1        3.828  -1.166   0.481  0.00  0.00    +0.111 A 
ATOM      8  N   LIG    1        4.696  -0.226   0.097  0.00  0.00    -0.263 NA
ATOM      9  C   LIG    1        4.335   0.982  -0.354  0.00  0.00    +0.111 A 
ATOM     10  C   LIG    1        2.977   1.253  -0.417  0.00  0.00    +0.033 A 
ENDBRANCH   1   5
BRANCH   2  11
ATOM     11  N   LIG    1       -1.717   0.098   0.251  0.00  0.00    -0.217 NA
ATOM     12  H   LIG    1       -1.953   1.004   0.686  0.00  0.00    +0.146 HD
BRANCH  11  13
ATOM     13  C   LIG    1       -2.663  -0.950   0.469  0.00  0.00    +0.299 C 
BRANCH  13  14
ATOM     14  S   LIG    1       -4.293  -0.214   0.279  0.00  0.00    +0.094 S 
ATOM     15  O   LIG    1       -5.290  -1.298   0.510  0.00  0.00    -0.146 OA
ATOM     16  O   LIG    1       -4.419   0.331  -1.095  0.00  0.00    -0.146 OA
BRANCH  14  17
ATOM     17  O   LIG    1       -4.488   1.013   1.408  0.00  0.00    -0.253 OA
ATOM     18  H   LIG    1       -4.335   1.889   0.981  0.00  0.00    +0.245 HD
ENDBRANCH  14  17
ENDBRANCH  13  14
ENDBRANCH  11  13
ENDBRANCH   2  11
TORSDOF 5
