REMARK  Name = molecules/GSDSWSVVBLHKDQ-JTQLQIEISA-N.pdb
REMARK                            x       y       z     vdW  Elec       q    Type
REMARK                         _______ _______ _______ _____ _____    ______ ____
ROOT
ATOM      1  C   LIG    1       -0.338  -0.136   0.348  0.00  0.00    +0.168 A 
ATOM      2  O   LIG    1       -0.223  -1.458   0.693  0.00  0.00    -0.486 OA
ATOM      3  C   LIG    1       -1.142  -2.459   0.238  0.00  0.00    +0.254 C 
ATOM      4  C   LIG    1       -2.526  -1.956   0.553  0.00  0.00    +0.122 C 
ATOM      5  N   LIG    1       -2.661  -0.576   0.195  0.00  0.00    -0.337 N 
ATOM      6  C   LIG    1       -3.904  -0.079  -0.070  0.00  0.00    +0.105 A 
ATOM      7  C   LIG    1       -4.122   1.222  -0.419  0.00  0.00    +0.122 A 
ATOM      8  C   LIG    1       -3.061   2.092  -0.515  0.00  0.00    +0.204 A 
ATOM      9  C   LIG    1       -1.800   1.611  -0.252  0.00  0.00    +0.052 A 
ATOM     10  C   LIG    1       -0.732   2.473  -0.346  0.00  0.00    +0.054 A 
ATOM     11  C   LIG    1        0.544   1.981  -0.079  0.00  0.00    +0.149 A 
ATOM     12  F   LIG    1        1.537   2.889  -0.205  0.00  0.00    -0.203 F 
ATOM     13  O   LIG    1       -3.260   3.290  -0.836  0.00  0.00    -0.286 OA
ATOM     14  C   LIG    1       -3.586  -2.814  -0.111  0.00  0.00    +0.034 C 
ATOM     15  C   LIG    1        0.767   0.650   0.278  0.00  0.00    +0.110 A 
ATOM     16  C   LIG    1       -1.643   0.292   0.094  0.00  0.00    +0.097 A 
ENDROOT
BRANCH  15  17
ATOM     17  N   LIG    1        2.095   0.216   0.509  0.00  0.00    -0.322 N 
ATOM     18  C   LIG    1        2.547  -1.108   0.774  0.00  0.00    +0.120 C 
ATOM     19  C   LIG    1        3.774  -1.355  -0.135  0.00  0.00    +0.103 C 
ATOM     20  N   LIG    1        4.860  -0.497   0.169  0.00  0.00    -0.302 NA
ATOM     21  C   LIG    1        4.480   0.585   1.014  0.00  0.00    +0.103 C 
ATOM     22  C   LIG    1        5.422   0.014  -1.067  0.00  0.00    +0.105 C 
ATOM     23  C   LIG    1        3.187   1.197   0.465  0.00  0.00    +0.120 C 
ENDBRANCH  15  17
BRANCH   7  24
ATOM     24  C   LIG    1       -5.458   1.729  -0.696  0.00  0.00    +0.342 C 
ATOM     25  O   LIG    1       -6.423   0.946  -0.611  0.00  0.00    -0.245 OA
BRANCH  24  26
ATOM     26  O   LIG    1       -5.680   3.051  -1.051  0.00  0.00    -0.477 OA
ATOM     27  H   LIG    1       -5.803   3.726  -0.310  0.00  0.00    +0.295 HD
ENDBRANCH  24  26
ENDBRANCH   7  24
TORSDOF 3
