REMARK  Name = molecules/GSNOZLZNQMLSKJ-UHFFFAOYSA-N.pdb
REMARK                            x       y       z     vdW  Elec       q    Type
REMARK                         _______ _______ _______ _____ _____    ______ ____
ROOT
ATOM      1  C   LIG    1        0.404  -0.048   0.124  0.00  0.00    +0.128 A 
ATOM      2  N   LIG    1        0.836  -1.327   0.339  0.00  0.00    -0.182 N 
ATOM      3  N   LIG    1        0.192  -2.472   0.490  0.00  0.00    -0.151 NA
ATOM      4  C   LIG    1        1.047  -3.491   0.674  0.00  0.00    +0.247 A 
ATOM      5  N   LIG    1        2.283  -2.926   0.632  0.00  0.00    -0.197 NA
ATOM      6  C   LIG    1        2.155  -1.590   0.425  0.00  0.00    +0.255 A 
ATOM      7  N   LIG    1        3.087  -0.623   0.307  0.00  0.00    -0.216 NA
ATOM      8  C   LIG    1        2.720   0.665   0.093  0.00  0.00    +0.045 A 
ATOM      9  C   LIG    1        3.736   1.734  -0.037  0.00  0.00    +0.066 C 
ATOM     10  C   LIG    1        1.365   0.920   0.006  0.00  0.00    +0.067 A 
ENDROOT
BRANCH   1  11
ATOM     11  N   LIG    1       -0.994   0.203   0.048  0.00  0.00    -0.316 N 
BRANCH  11  12
ATOM     12  C   LIG    1       -1.857  -0.352   1.082  0.00  0.00    +0.103 C 
ATOM     13  C   LIG    1       -2.759  -1.448   0.589  0.00  0.00    +0.024 C 
ENDBRANCH  11  12
BRANCH  11  14
ATOM     14  C   LIG    1       -1.542   0.978  -1.046  0.00  0.00    +0.103 C 
ATOM     15  C   LIG    1       -2.112   2.296  -0.642  0.00  0.00    +0.024 C 
ENDBRANCH  11  14
ENDBRANCH   1  11
TORSDOF 3
