REMARK  Name = molecules/GSVQIUGOUKJHRC-RXMQYKEDSA-N.pdb
REMARK                            x       y       z     vdW  Elec       q    Type
REMARK                         _______ _______ _______ _____ _____    ______ ____
ROOT
ATOM      1  C   LIG    1       -1.034   0.122  -0.471  0.00  0.00    +0.064 A 
ATOM      2  C   LIG    1       -1.784  -0.158   0.660  0.00  0.00    +0.057 A 
ATOM      3  I   LIG    1       -1.325   0.629   2.550  0.00  0.00    -0.040 I 
ATOM      4  C   LIG    1       -2.910  -0.983   0.563  0.00  0.00    +0.053 A 
ATOM      5  C   LIG    1       -3.264  -1.509  -0.652  0.00  0.00    +0.036 A 
ATOM      6  I   LIG    1       -4.942  -2.754  -0.858  0.00  0.00    -0.042 I 
ATOM      7  C   LIG    1       -2.520  -1.230  -1.773  0.00  0.00    +0.032 A 
ATOM      8  C   LIG    1       -1.391  -0.405  -1.687  0.00  0.00    +0.037 A 
ATOM      9  I   LIG    1       -0.325   0.001  -3.476  0.00  0.00    -0.042 I 
ENDROOT
BRANCH   1  10
ATOM     10  N   LIG    1        0.097   0.944  -0.371  0.00  0.00    -0.269 N 
ATOM     11  C   LIG    1       -0.112   2.304   0.051  0.00  0.00    +0.217 C 
ATOM     12  O   LIG    1       -1.270   2.756   0.309  0.00  0.00    -0.276 OA
ATOM     13  C   LIG    1        1.001   3.274   0.214  0.00  0.00    +0.109 C 
BRANCH  10  14
ATOM     14  C   LIG    1        1.403   0.483  -0.671  0.00  0.00    +0.128 C 
BRANCH  14  15
ATOM     15  C   LIG    1        2.117  -0.095   0.535  0.00  0.00    +0.112 C 
ATOM     16  C   LIG    1        1.484  -1.383   1.014  0.00  0.00    +0.021 C 
BRANCH  15  17
ATOM     17  C   LIG    1        3.480  -0.494   0.016  0.00  0.00    +0.309 C 
ATOM     18  O   LIG    1        4.485   0.018   0.534  0.00  0.00    -0.251 OA
BRANCH  17  19
ATOM     19  O   LIG    1        3.516  -1.416  -1.017  0.00  0.00    -0.480 OA
ATOM     20  H   LIG    1        4.318  -1.363  -1.639  0.00  0.00    +0.295 HD
ENDBRANCH  17  19
ENDBRANCH  15  17
ENDBRANCH  14  15
ENDBRANCH  10  14
ENDBRANCH   1  10
BRANCH   4  21
ATOM     21  N   LIG    1       -3.699  -1.292   1.693  0.00  0.00    -0.356 N 
ATOM     22  H   LIG    1       -3.369  -2.001   2.365  0.00  0.00    +0.142 HD
ATOM     23  H   LIG    1       -4.598  -0.803   1.832  0.00  0.00    +0.142 HD
ENDBRANCH   4  21
TORSDOF 6
