REMARK  Name = molecules/GTEPPJFJSNSNIH-QFIPXVFZSA-N.pdb
REMARK                            x       y       z     vdW  Elec       q    Type
REMARK                         _______ _______ _______ _____ _____    ______ ____
ROOT
ATOM      1  C   LIG    1        0.528   1.628   0.448  0.00  0.00    +0.075 C 
ENDROOT
BRANCH   1   2
ATOM      2  C   LIG    1       -0.131   2.848  -0.171  0.00  0.00    -0.014 A 
ATOM      3  C   LIG    1        0.365   4.096   0.173  0.00  0.00    +0.045 A 
ATOM      4 CL   LIG    1        1.701   4.283   1.302  0.00  0.00    -0.083 Cl
ATOM      5  C   LIG    1       -0.142   5.276  -0.352  0.00  0.00    +0.020 A 
ATOM      6  C   LIG    1       -1.184   5.185  -1.255  0.00  0.00    +0.001 A 
ATOM      7  C   LIG    1       -1.669   3.939  -1.591  0.00  0.00    +0.000 A 
ATOM      8  C   LIG    1       -1.156   2.772  -1.062  0.00  0.00    +0.006 A 
ENDBRANCH   1   2
BRANCH   1   9
ATOM      9  C   LIG    1        0.418   1.735   1.888  0.00  0.00    +0.221 C 
ATOM     10  N   LIG    1        1.007   0.876   2.840  0.00  0.00    -0.329 N 
ATOM     11  H   LIG    1        1.773   1.215   3.430  0.00  0.00    +0.145 HD
ATOM     12  H   LIG    1        0.667  -0.086   2.937  0.00  0.00    +0.145 HD
ATOM     13  O   LIG    1       -0.264   2.678   2.380  0.00  0.00    -0.275 OA
ENDBRANCH   1   9
BRANCH   1  14
ATOM     14  C   LIG    1       -0.350   0.403   0.104  0.00  0.00    +0.040 C 
BRANCH  14  15
ATOM     15  C   LIG    1       -1.694   0.470   0.800  0.00  0.00    +0.109 C 
BRANCH  15  16
ATOM     16  N   LIG    1       -2.455  -0.721   0.414  0.00  0.00    -0.299 N 
ATOM     17  C   LIG    1       -2.300  -1.881   1.208  0.00  0.00    +0.213 C 
ATOM     18  O   LIG    1       -1.515  -1.783   2.226  0.00  0.00    -0.276 OA
ATOM     19  C   LIG    1       -2.967  -3.169   0.945  0.00  0.00    +0.109 C 
BRANCH  16  20
ATOM     20  C   LIG    1       -3.348  -0.701  -0.722  0.00  0.00    +0.070 C 
ATOM     21  C   LIG    1       -4.782  -0.806  -0.200  0.00  0.00    +0.028 C 
ATOM     22  C   LIG    1       -3.129  -1.796  -1.714  0.00  0.00    +0.028 C 
ENDBRANCH  16  20
ENDBRANCH  15  16
ENDBRANCH  14  15
ENDBRANCH   1  14
BRANCH   1  23
ATOM     23  C   LIG    1        1.818   1.488  -0.211  0.00  0.00    +0.036 C 
BRANCH  23  24
ATOM     24  C   LIG    1        2.708   0.343   0.074  0.00  0.00    +0.086 C 
BRANCH  24  25
ATOM     25  N   LIG    1        2.237  -0.963  -0.212  0.00  0.00    -0.302 NA
ATOM     26  C   LIG    1        2.951  -1.929   0.576  0.00  0.00    +0.084 C 
ATOM     27  C   LIG    1        4.318  -2.202  -0.053  0.00  0.00    +0.015 C 
ATOM     28  C   LIG    1        3.987  -2.961  -1.337  0.00  0.00    +0.002 C 
ATOM     29  C   LIG    1        3.155  -2.099  -2.220  0.00  0.00    +0.015 C 
ATOM     30  C   LIG    1        2.072  -1.322  -1.567  0.00  0.00    +0.084 C 
ENDBRANCH  24  25
ENDBRANCH  23  24
ENDBRANCH   1  23
TORSDOF 9
