REMARK  Name = molecules/GTYWGUNQAMYZPF-FAJKJHJLSA-N.pdb
REMARK                            x       y       z     vdW  Elec       q    Type
REMARK                         _______ _______ _______ _____ _____    ______ ____
ROOT
ATOM      1  C   LIG    1       -2.469   2.392  -0.982  0.00  0.00    +0.214 C 
ATOM      2  C   LIG    1       -2.199   2.493   0.482  0.00  0.00    +0.107 C 
ATOM      3  C   LIG    1       -0.958   3.311   0.762  0.00  0.00    +0.090 C 
ATOM      4  S   LIG    1        0.522   2.261   0.756  0.00  0.00    -0.093 S 
ATOM      5  S   LIG    1        0.390   0.779  -0.775  0.00  0.00    -0.091 S 
ATOM      6  C   LIG    1        2.065  -0.007  -0.970  0.00  0.00    +0.112 C 
ATOM      7  C   LIG    1        2.232  -1.135  -0.033  0.00  0.00    +0.170 C 
ATOM      8  N   LIG    1        1.447  -2.335  -0.306  0.00  0.00    -0.302 N 
ATOM      9  H   LIG    1        2.107  -3.228  -0.277  0.00  0.00    +0.150 HD
ATOM     10  C   LIG    1        0.118  -2.513  -0.616  0.00  0.00    +0.234 C 
ATOM     11  C   LIG    1       -1.141  -2.377   0.131  0.00  0.00    +0.168 C 
ATOM     12  N   LIG    1       -2.269  -2.858  -0.624  0.00  0.00    -0.302 N 
ATOM     13  C   LIG    1       -3.600  -2.539  -0.464  0.00  0.00    +0.234 C 
ATOM     14  C   LIG    1       -4.453  -2.639   0.743  0.00  0.00    +0.159 C 
ATOM     15  N   LIG    1       -4.687  -1.323   1.330  0.00  0.00    -0.302 N 
ATOM     16  H   LIG    1       -3.761  -0.905   1.702  0.00  0.00    +0.150 HD
ATOM     17  C   LIG    1       -5.821  -0.580   1.497  0.00  0.00    +0.234 C 
ATOM     18  O   LIG    1       -6.194  -0.380   2.735  0.00  0.00    -0.274 OA
ATOM     19  C   LIG    1       -6.753   0.077   0.566  0.00  0.00    +0.162 C 
ATOM     20  N   LIG    1       -6.517  -0.048  -0.817  0.00  0.00    -0.302 N 
ATOM     21  H   LIG    1       -6.821  -0.881  -1.404  0.00  0.00    +0.150 HD
ATOM     22  C   LIG    1       -5.852   0.948  -1.592  0.00  0.00    +0.234 C 
ATOM     23  C   LIG    1       -4.963   2.002  -1.066  0.00  0.00    +0.163 C 
ATOM     24  O   LIG    1       -6.009   0.973  -2.863  0.00  0.00    -0.274 OA
ATOM     25  O   LIG    1       -4.229  -2.088  -1.499  0.00  0.00    -0.274 OA
ATOM     26  H   LIG    1       -1.980  -3.553  -1.415  0.00  0.00    +0.150 HD
ATOM     27  O   LIG    1       -0.100  -2.896  -1.867  0.00  0.00    -0.274 OA
ATOM     28  N   LIG    1       -3.610   1.788  -1.549  0.00  0.00    -0.304 N 
ATOM     29  H   LIG    1       -3.478   1.162  -2.368  0.00  0.00    +0.149 HD
ATOM     30  O   LIG    1       -1.569   2.904  -1.745  0.00  0.00    -0.276 OA
ENDROOT
BRANCH   7  31
ATOM     31  C   LIG    1        3.626  -1.473   0.256  0.00  0.00    +0.237 C 
ATOM     32  O   LIG    1        3.728  -2.430   1.182  0.00  0.00    -0.274 OA
ATOM     33  N   LIG    1        4.821  -1.037  -0.213  0.00  0.00    -0.288 N 
ATOM     34  C   LIG    1        6.207  -1.366   0.265  0.00  0.00    +0.162 C 
ATOM     35  C   LIG    1        6.820  -1.851  -1.045  0.00  0.00    +0.033 C 
ATOM     36  C   LIG    1        6.386  -0.770  -1.973  0.00  0.00    +0.021 C 
ATOM     37  C   LIG    1        5.130  -0.135  -1.333  0.00  0.00    +0.109 C 
BRANCH  34  38
ATOM     38  C   LIG    1        6.913  -0.137   0.681  0.00  0.00    +0.234 C 
ATOM     39  O   LIG    1        6.253   0.694   1.399  0.00  0.00    -0.274 OA
ATOM     40  N   LIG    1        8.252   0.164   0.332  0.00  0.00    -0.302 N 
ATOM     41  H   LIG    1        8.726  -0.561  -0.295  0.00  0.00    +0.150 HD
BRANCH  40  42
ATOM     42  C   LIG    1        9.022   1.309   0.697  0.00  0.00    +0.159 C 
BRANCH  42  43
ATOM     43  C   LIG    1        8.836   2.329  -0.474  0.00  0.00    +0.234 C 
ATOM     44  O   LIG    1        7.619   2.308  -0.855  0.00  0.00    -0.274 OA
ATOM     45  N   LIG    1        9.820   3.043  -0.932  0.00  0.00    -0.305 N 
ATOM     46  H   LIG    1        9.040   3.577  -1.958  0.00  0.00    +0.149 HD
BRANCH  45  47
ATOM     47  C   LIG    1       10.897   3.833  -1.443  0.00  0.00    +0.199 C 
BRANCH  47  48
ATOM     48  C   LIG    1       10.534   5.293  -1.265  0.00  0.00    +0.228 C 
ATOM     49  O   LIG    1        9.413   5.575  -0.741  0.00  0.00    -0.274 OA
ATOM     50  N   LIG    1       11.411   6.313  -1.666  0.00  0.00    -0.328 N 
ATOM     51  H   LIG    1       12.311   6.447  -1.171  0.00  0.00    +0.145 HD
ATOM     52  H   LIG    1       11.160   6.935  -2.448  0.00  0.00    +0.145 HD
ENDBRANCH  47  48
ENDBRANCH  45  47
ENDBRANCH  42  43
BRANCH  42  53
ATOM     53  C   LIG    1       10.491   1.075   0.733  0.00  0.00    +0.034 C 
BRANCH  53  54
ATOM     54  C   LIG    1       10.982   0.045   1.695  0.00  0.00    -0.015 C 
ATOM     55  C   LIG    1       10.426  -1.333   1.488  0.00  0.00    +0.007 C 
ATOM     56  C   LIG    1       12.494  -0.095   1.426  0.00  0.00    +0.007 C 
ENDBRANCH  53  54
ENDBRANCH  42  53
ENDBRANCH  40  42
ENDBRANCH  34  38
ENDBRANCH   7  31
BRANCH  19  57
ATOM     57  C   LIG    1       -8.191  -0.118   1.014  0.00  0.00    +0.015 C 
ATOM     58  C   LIG    1       -9.071   0.989   0.489  0.00  0.00    +0.010 C 
BRANCH  57  59
ATOM     59  C   LIG    1       -8.805  -1.429   0.710  0.00  0.00    +0.002 C 
ATOM     60  C   LIG    1      -10.171  -1.538   1.361  0.00  0.00    +0.004 C 
ENDBRANCH  57  59
ENDBRANCH  19  57
BRANCH  11  61
ATOM     61  C   LIG    1       -0.983  -3.117   1.450  0.00  0.00    +0.127 C 
BRANCH  61  62
ATOM     62  C   LIG    1       -0.783  -4.560   1.304  0.00  0.00    +0.213 C 
ATOM     63  O   LIG    1       -0.735  -5.246   2.356  0.00  0.00    -0.276 OA
ATOM     64  N   LIG    1       -0.643  -5.243   0.080  0.00  0.00    -0.329 N 
ATOM     65  H   LIG    1       -1.440  -5.783  -0.297  0.00  0.00    +0.145 HD
ATOM     66  H   LIG    1        0.239  -5.216  -0.438  0.00  0.00    +0.145 HD
ENDBRANCH  61  62
ENDBRANCH  11  61
BRANCH  23  67
ATOM     67  C   LIG    1       -5.347   3.405  -1.503  0.00  0.00    +0.067 C 
BRANCH  67  68
ATOM     68  C   LIG    1       -6.722   3.796  -1.121  0.00  0.00    -0.045 A 
ATOM     69  C   LIG    1       -6.913   4.345   0.140  0.00  0.00    +0.007 A 
ATOM     70  C   LIG    1       -8.159   4.749   0.559  0.00  0.00    +0.045 A 
ATOM     71  C   LIG    1       -9.258   4.601  -0.305  0.00  0.00    +0.117 A 
ATOM     72  C   LIG    1       -9.066   4.056  -1.556  0.00  0.00    +0.045 A 
ATOM     73  C   LIG    1       -7.809   3.661  -1.950  0.00  0.00    +0.007 A 
BRANCH  71  74
ATOM     74  O   LIG    1      -10.514   5.000   0.107  0.00  0.00    -0.507 OA
ATOM     75  H   LIG    1      -11.090   4.303   0.588  0.00  0.00    +0.292 HD
ENDBRANCH  71  74
ENDBRANCH  67  68
ENDBRANCH  23  67
BRANCH  14  76
ATOM     76  C   LIG    1       -5.699  -3.421   0.488  0.00  0.00    +0.041 C 
BRANCH  76  77
ATOM     77  C   LIG    1       -5.453  -4.750  -0.105  0.00  0.00    +0.098 C 
BRANCH  77  78
ATOM     78  C   LIG    1       -4.700  -5.657   0.749  0.00  0.00    +0.211 C 
ATOM     79  O   LIG    1       -4.266  -5.396   1.902  0.00  0.00    -0.276 OA
ATOM     80  N   LIG    1       -4.388  -7.002   0.290  0.00  0.00    -0.329 N 
ATOM     81  H   LIG    1       -5.021  -7.776   0.640  0.00  0.00    +0.145 HD
ATOM     82  H   LIG    1       -3.586  -7.180  -0.339  0.00  0.00    +0.145 HD
ENDBRANCH  77  78
ENDBRANCH  76  77
ENDBRANCH  14  76
TORSDOF 18
