REMARK  Name = molecules/GUFHWUFYAOUKTI-UHFFFAOYSA-N.pdb
REMARK                            x       y       z     vdW  Elec       q    Type
REMARK                         _______ _______ _______ _____ _____    ______ ____
ROOT
ATOM      1  C   LIG    1       -1.245   0.186   0.303  0.00  0.00    +0.142 A 
ATOM      2  C   LIG    1       -0.310   0.060   1.283  0.00  0.00    +0.181 A 
ATOM      3  C   LIG    1        0.969  -0.104   0.903  0.00  0.00    +0.181 A 
ATOM      4  C   LIG    1        1.237  -0.132  -0.433  0.00  0.00    +0.142 A 
ATOM      5  S   LIG    1       -0.331   0.075  -1.126  0.00  0.00    -0.068 S 
ENDROOT
BRANCH   1   6
ATOM      6  C   LIG    1       -2.695   0.374   0.374  0.00  0.00    +0.350 C 
ATOM      7  O   LIG    1       -3.356   0.454   1.418  0.00  0.00    -0.244 OA
BRANCH   6   8
ATOM      8  O   LIG    1       -3.437   0.476  -0.820  0.00  0.00    -0.461 OA
BRANCH   8   9
ATOM      9  C   LIG    1       -4.816   0.654  -0.846  0.00  0.00    +0.232 C 
BRANCH   9  10
ATOM     10  C   LIG    1       -5.597  -0.450  -0.189  0.00  0.00    +0.038 C 
ATOM     11  C   LIG    1       -7.072  -0.087  -0.314  0.00  0.00    +0.007 C 
ENDBRANCH   9  10
ENDBRANCH   8   9
ENDBRANCH   6   8
ENDBRANCH   1   6
BRANCH   2  12
ATOM     12  O   LIG    1       -0.711   0.104   2.643  0.00  0.00    -0.502 OA
ATOM     13  H   LIG    1       -1.638   0.223   2.945  0.00  0.00    +0.292 HD
ENDBRANCH   2  12
BRANCH   3  14
ATOM     14  O   LIG    1        2.025  -0.246   1.842  0.00  0.00    -0.502 OA
ATOM     15  H   LIG    1        2.966  -0.366   1.608  0.00  0.00    +0.292 HD
ENDBRANCH   3  14
BRANCH   4  16
ATOM     16  C   LIG    1        2.518  -0.294  -1.153  0.00  0.00    +0.350 C 
ATOM     17  O   LIG    1        2.461  -0.280  -2.407  0.00  0.00    -0.244 OA
BRANCH  16  18
ATOM     18  O   LIG    1        3.711  -0.452  -0.542  0.00  0.00    -0.461 OA
BRANCH  18  19
ATOM     19  C   LIG    1        4.954  -0.609  -1.203  0.00  0.00    +0.232 C 
BRANCH  19  20
ATOM     20  C   LIG    1        6.071  -0.759  -0.207  0.00  0.00    +0.038 C 
ATOM     21  C   LIG    1        6.141   0.466   0.667  0.00  0.00    +0.007 C 
ENDBRANCH  19  20
ENDBRANCH  18  19
ENDBRANCH  16  18
ENDBRANCH   4  16
TORSDOF 10
