REMARK  Name = molecules/GUGOEEXESWIERI-SSEXGKCCSA-N.pdb
REMARK                            x       y       z     vdW  Elec       q    Type
REMARK                         _______ _______ _______ _____ _____    ______ ____
ROOT
ATOM      1  C   LIG    1       -3.804  -0.097   0.587  0.00  0.00    +0.032 C 
ATOM      2  C   LIG    1       -2.759   0.895   1.029  0.00  0.00    +0.022 C 
ATOM      3  C   LIG    1       -1.790   1.227  -0.080  0.00  0.00    +0.085 C 
ATOM      4  N   LIG    1       -1.187   0.055  -0.628  0.00  0.00    -0.302 NA
ATOM      5  C   LIG    1       -2.003  -1.094  -0.635  0.00  0.00    +0.085 C 
ATOM      6  C   LIG    1       -3.497  -0.656  -0.786  0.00  0.00    +0.022 C 
ENDROOT
BRANCH   1   7
ATOM      7  C   LIG    1       -5.201   0.234   0.872  0.00  0.00    +0.119 C 
BRANCH   7  10
ATOM      8  C   LIG    1       -8.157   2.230  -0.048  0.00  0.00    +0.000 A 
ATOM      9  C   LIG    1       -7.311   1.317   0.534  0.00  0.00    +0.007 A 
ATOM     10  C   LIG    1       -5.954   1.230   0.180  0.00  0.00    -0.011 A 
ATOM     11  C   LIG    1       -5.546   2.117  -0.774  0.00  0.00    +0.007 A 
ATOM     12  C   LIG    1       -6.380   3.046  -1.375  0.00  0.00    +0.000 A 
ATOM     13  C   LIG    1       -7.702   3.108  -1.012  0.00  0.00    +0.000 A 
ENDBRANCH   7  10
BRANCH   7  14
ATOM     14  C   LIG    1       -5.937  -1.096   0.550  0.00  0.00    -0.011 A 
ATOM     15  C   LIG    1       -5.843  -2.163   1.395  0.00  0.00    +0.007 A 
ATOM     16  C   LIG    1       -6.491  -3.359   1.093  0.00  0.00    +0.000 A 
ATOM     17  C   LIG    1       -7.230  -3.459  -0.071  0.00  0.00    +0.000 A 
ATOM     18  C   LIG    1       -7.314  -2.365  -0.913  0.00  0.00    +0.000 A 
ATOM     19  C   LIG    1       -6.668  -1.195  -0.598  0.00  0.00    +0.007 A 
ENDBRANCH   7  14
BRANCH   7  20
ATOM     20  O   LIG    1       -5.369   0.366   2.247  0.00  0.00    -0.379 OA
ATOM     21  H   LIG    1       -5.997  -0.249   2.664  0.00  0.00    +0.211 HD
ENDBRANCH   7  20
ENDBRANCH   1   7
BRANCH   4  22
ATOM     22  C   LIG    1        0.172  -0.038  -0.248  0.00  0.00    +0.084 C 
BRANCH  22  23
ATOM     23  C   LIG    1        1.009  -0.817  -1.189  0.00  0.00    +0.018 C 
BRANCH  23  24
ATOM     24  C   LIG    1        2.459  -0.870  -0.825  0.00  0.00    +0.037 C 
BRANCH  24  25
ATOM     25  C   LIG    1        3.157   0.440  -0.871  0.00  0.00    +0.145 C 
BRANCH  25  26
ATOM     26  C   LIG    1        4.609   0.270  -0.506  0.00  0.00    -0.019 A 
ATOM     27  C   LIG    1        5.070   0.523   0.771  0.00  0.00    +0.006 A 
ATOM     28  C   LIG    1        6.421   0.406   1.063  0.00  0.00    +0.004 A 
ATOM     29  C   LIG    1        7.356   0.039   0.114  0.00  0.00    -0.042 A 
ATOM     30  C   LIG    1        6.870  -0.209  -1.155  0.00  0.00    +0.004 A 
ATOM     31  C   LIG    1        5.527  -0.098  -1.466  0.00  0.00    +0.006 A 
BRANCH  29  32
ATOM     32  C   LIG    1        8.805  -0.011   0.462  0.00  0.00    -0.013 C 
ATOM     33  C   LIG    1        9.132  -0.895   1.621  0.00  0.00    +0.015 C 
ATOM     34  C   LIG    1        9.201   1.435   0.736  0.00  0.00    +0.015 C 
ATOM     35  C   LIG    1        9.615  -0.428  -0.754  0.00  0.00    +0.015 C 
ENDBRANCH  29  32
ENDBRANCH  25  26
BRANCH  25  36
ATOM     36  O   LIG    1        2.633   1.460  -0.119  0.00  0.00    -0.387 OA
ATOM     37  H   LIG    1        3.150   2.283  -0.169  0.00  0.00    +0.210 HD
ENDBRANCH  25  36
ENDBRANCH  24  25
ENDBRANCH  23  24
ENDBRANCH  22  23
ENDBRANCH   4  22
TORSDOF 11
