REMARK  Name = molecules/GUHPRPJDBZHYCJ-VIFPVBQESA-N.pdb
REMARK                            x       y       z     vdW  Elec       q    Type
REMARK                         _______ _______ _______ _____ _____    ______ ____
ROOT
ATOM      1  C   LIG    1        0.292  -0.003  -0.879  0.00  0.00    +0.060 A 
ATOM      2  C   LIG    1       -0.285  -0.435   0.278  0.00  0.00    +0.019 A 
ATOM      3  C   LIG    1       -1.588  -0.195   0.465  0.00  0.00    +0.013 A 
ATOM      4  C   LIG    1       -2.257   0.474  -0.526  0.00  0.00    +0.004 A 
ATOM      5  S   LIG    1       -1.042   0.744  -1.687  0.00  0.00    -0.089 S 
ENDROOT
BRANCH   1   6
ATOM      6  C   LIG    1        1.653  -0.115  -1.390  0.00  0.00    +0.200 C 
ATOM      7  O   LIG    1        1.796  -0.061  -2.653  0.00  0.00    -0.286 OA
BRANCH   6   8
ATOM      8  C   LIG    1        2.795  -0.280  -0.554  0.00  0.00    +0.023 A 
ATOM      9  C   LIG    1        2.883   0.090   0.764  0.00  0.00    +0.012 A 
ATOM     10  C   LIG    1        4.048  -0.141   1.505  0.00  0.00    +0.001 A 
ATOM     11  C   LIG    1        5.148  -0.744   0.948  0.00  0.00    +0.000 A 
ATOM     12  C   LIG    1        5.069  -1.118  -0.374  0.00  0.00    +0.001 A 
ATOM     13  C   LIG    1        3.924  -0.894  -1.109  0.00  0.00    +0.012 A 
ENDBRANCH   6   8
ENDBRANCH   1   6
BRANCH   4  14
ATOM     14  C   LIG    1       -3.693   0.876  -0.607  0.00  0.00    +0.131 C 
ATOM     15  C   LIG    1       -3.964   2.045   0.357  0.00  0.00    +0.025 C 
BRANCH  14  16
ATOM     16  C   LIG    1       -4.573  -0.254  -0.340  0.00  0.00    +0.312 C 
ATOM     17  O   LIG    1       -5.382  -0.223   0.607  0.00  0.00    -0.250 OA
BRANCH  16  18
ATOM     18  O   LIG    1       -4.521  -1.375  -1.137  0.00  0.00    -0.480 OA
ATOM     19  H   LIG    1       -4.651  -2.325  -0.770  0.00  0.00    +0.295 HD
ENDBRANCH  16  18
ENDBRANCH  14  16
ENDBRANCH   4  14
TORSDOF 5
