REMARK  Name = molecules/GULNIHOSWFYMRN-UHFFFAOYSA-N.pdb
REMARK                            x       y       z     vdW  Elec       q    Type
REMARK                         _______ _______ _______ _____ _____    ______ ____
ROOT
ATOM      1  N   LIG    1        0.626   1.035  -0.659  0.00  0.00    -0.294 N 
ENDROOT
BRANCH   1   2
ATOM      2  C   LIG    1        1.169   2.093   0.092  0.00  0.00    +0.218 A 
ATOM      3  N   LIG    1        0.890   2.345   1.389  0.00  0.00    -0.223 NA
ATOM      4  C   LIG    1        1.440   3.373   2.056  0.00  0.00    +0.116 A 
ATOM      5  C   LIG    1        2.326   4.226   1.433  0.00  0.00    +0.039 A 
ATOM      6  C   LIG    1        2.611   3.968   0.107  0.00  0.00    +0.116 A 
ATOM      7  N   LIG    1        2.033   2.928  -0.510  0.00  0.00    -0.223 NA
ENDBRANCH   1   2
BRANCH   1   8
ATOM      8  C   LIG    1        1.314  -0.225  -0.678  0.00  0.00    +0.123 C 
BRANCH   8   9
ATOM      9  C   LIG    1        2.569  -0.216   0.167  0.00  0.00    +0.102 C 
BRANCH   9  10
ATOM     10  N   LIG    1        3.152  -1.544   0.051  0.00  0.00    -0.307 NA
ATOM     11  C   LIG    1        4.359  -1.702   0.803  0.00  0.00    +0.104 C 
ATOM     12  C   LIG    1        2.219  -2.585   0.417  0.00  0.00    +0.104 C 
ENDBRANCH   9  10
ENDBRANCH   8   9
ENDBRANCH   1   8
BRANCH   1  13
ATOM     13  C   LIG    1       -0.592   1.204  -1.394  0.00  0.00    +0.143 C 
BRANCH  13  14
ATOM     14  C   LIG    1       -1.700   0.339  -0.959  0.00  0.00    -0.030 A 
ATOM     15  C   LIG    1       -1.771  -0.285   0.270  0.00  0.00    +0.009 A 
ATOM     16  C   LIG    1       -2.865  -1.087   0.574  0.00  0.00    +0.046 A 
ATOM     17  C   LIG    1       -3.904  -1.294  -0.310  0.00  0.00    +0.120 A 
ATOM     18  C   LIG    1       -3.832  -0.668  -1.538  0.00  0.00    +0.046 A 
ATOM     19  C   LIG    1       -2.739   0.132  -1.840  0.00  0.00    +0.009 A 
BRANCH  17  20
ATOM     20  O   LIG    1       -4.979  -2.111   0.051  0.00  0.00    -0.495 OA
ATOM     21  C   LIG    1       -6.046  -2.336  -0.830  0.00  0.00    +0.277 C 
ENDBRANCH  17  20
ENDBRANCH  13  14
ENDBRANCH   1  13
TORSDOF 7
