REMARK  Name = molecules/GVEZIHKRYBHEFX-NQQPLRFYSA-N.pdb
REMARK                            x       y       z     vdW  Elec       q    Type
REMARK                         _______ _______ _______ _____ _____    ______ ____
ROOT
ATOM      1  C   LIG    1       -2.200  -0.971  -0.265  0.00  0.00    +0.165 C 
ATOM      2  O   LIG    1       -2.844  -1.785   0.336  0.00  0.00    -0.295 OA
ENDROOT
BRANCH   1   3
ATOM      3  C   LIG    1       -2.707  -0.219  -1.397  0.00  0.00    +0.223 C 
ATOM      4  C   LIG    1       -4.088   0.384  -1.462  0.00  0.00    +0.240 C 
ATOM      5  O   LIG    1       -3.724  -0.736  -2.198  0.00  0.00    -0.351 OA
BRANCH   4   6
ATOM      6  C   LIG    1       -4.955   0.301  -0.295  0.00  0.00    +0.242 C 
ATOM      7  O   LIG    1       -5.085  -0.710   0.461  0.00  0.00    -0.273 OA
ATOM      8  N   LIG    1       -5.746   1.475   0.041  0.00  0.00    -0.327 N 
ATOM      9  H   LIG    1       -5.485   1.969   0.900  0.00  0.00    +0.145 HD
ATOM     10  H   LIG    1       -6.495   1.695  -0.622  0.00  0.00    +0.145 HD
ENDBRANCH   4   6
ENDBRANCH   1   3
BRANCH   1  11
ATOM     11  C   LIG    1       -0.785  -0.746   0.216  0.00  0.00    +0.081 C 
BRANCH  11  12
ATOM     12  C   LIG    1        0.041  -1.848  -0.358  0.00  0.00    +0.034 C 
BRANCH  12  13
ATOM     13  C   LIG    1        1.461  -1.801   0.004  0.00  0.00    -0.030 C 
ATOM     14  C   LIG    1        2.034  -0.894   0.769  0.00  0.00    -0.027 C 
BRANCH  14  15
ATOM     15  C   LIG    1        3.489  -0.964   1.058  0.00  0.00    +0.053 C 
BRANCH  15  16
ATOM     16  C   LIG    1        4.213   0.239   0.598  0.00  0.00    -0.027 C 
ATOM     17  C   LIG    1        3.627   1.277  -0.012  0.00  0.00    -0.034 C 
ATOM     18  C   LIG    1        4.414   2.468  -0.456  0.00  0.00    +0.035 C 
ENDBRANCH  15  16
ENDBRANCH  14  15
ENDBRANCH  12  13
ENDBRANCH  11  12
ENDBRANCH   1  11
TORSDOF 7
