REMARK  Name = molecules/GVNYSERWAKVROD-BLLLJJGKSA-N.pdb
REMARK                            x       y       z     vdW  Elec       q    Type
REMARK                         _______ _______ _______ _____ _____    ______ ____
ROOT
ATOM      1  C   LIG    1       -0.747  -1.126   0.975  0.00  0.00    +0.158 C 
ENDROOT
BRANCH   1   2
ATOM      2  C   LIG    1        0.678  -0.922   0.640  0.00  0.00    -0.018 A 
ATOM      3  C   LIG    1        1.585  -1.752   1.261  0.00  0.00    +0.006 A 
ATOM      4  C   LIG    1        2.941  -1.652   1.021  0.00  0.00    +0.004 A 
ATOM      5  C   LIG    1        3.368  -0.676   0.120  0.00  0.00    -0.044 A 
ATOM      6  C   LIG    1        4.803  -0.533  -0.172  0.00  0.00    +0.035 C 
ATOM      7  C   LIG    1        5.228   0.880  -0.335  0.00  0.00    +0.005 C 
ATOM      8  C   LIG    1        4.239   1.809  -0.943  0.00  0.00    +0.005 C 
ATOM      9  C   LIG    1        3.008   1.159  -1.467  0.00  0.00    +0.035 C 
ATOM     10  C   LIG    1        2.480   0.162  -0.511  0.00  0.00    -0.044 A 
ATOM     11  C   LIG    1        1.136   0.026  -0.239  0.00  0.00    +0.010 A 
ENDBRANCH   1   2
BRANCH   1  12
ATOM     12  O   LIG    1       -1.024  -2.478   0.707  0.00  0.00    -0.386 OA
ATOM     13  H   LIG    1       -0.370  -2.897   0.110  0.00  0.00    +0.210 HD
ENDBRANCH   1  12
BRANCH   1  14
ATOM     14  C   LIG    1       -1.652  -0.316   0.026  0.00  0.00    +0.117 C 
BRANCH  14  15
ATOM     15  N   LIG    1       -2.958  -0.707   0.303  0.00  0.00    -0.311 NA
ATOM     16  H   LIG    1       -3.127  -1.243   1.176  0.00  0.00    +0.122 HD
BRANCH  15  17
ATOM     17  C   LIG    1       -4.093  -0.319  -0.386  0.00  0.00    +0.050 C 
ATOM     18  C   LIG    1       -5.323  -1.035   0.232  0.00  0.00    +0.024 C 
BRANCH  17  19
ATOM     19  C   LIG    1       -4.427   1.135  -0.301  0.00  0.00    +0.015 C 
ATOM     20  C   LIG    1       -3.379   2.003  -0.880  0.00  0.00    +0.005 C 
ENDBRANCH  17  19
ENDBRANCH  15  17
ENDBRANCH  14  15
ENDBRANCH   1  14
TORSDOF 6
