REMARK  Name = molecules/GVPIXRLYKVFFMK-UHFFFAOYSA-N.pdb
REMARK                            x       y       z     vdW  Elec       q    Type
REMARK                         _______ _______ _______ _____ _____    ______ ____
ROOT
ATOM      1  C   LIG    1        2.731  -0.266  -1.566  0.00  0.00    +0.104 C 
ATOM      2  N   LIG    1        3.081  -0.065  -0.186  0.00  0.00    -0.304 NA
ATOM      3  C   LIG    1        2.256   0.895   0.501  0.00  0.00    +0.097 C 
ATOM      4  C   LIG    1        0.878   0.503   0.426  0.00  0.00    +0.031 C 
ATOM      5  C   LIG    1       -0.089   1.594   0.567  0.00  0.00    -0.035 A 
ATOM      6  C   LIG    1        0.426   2.534   1.429  0.00  0.00    +0.004 A 
ATOM      7  C   LIG    1       -0.319   3.665   1.704  0.00  0.00    +0.000 A 
ATOM      8  C   LIG    1       -1.557   3.814   1.105  0.00  0.00    +0.000 A 
ATOM      9  C   LIG    1       -2.042   2.845   0.242  0.00  0.00    +0.004 A 
ATOM     10  C   LIG    1       -1.316   1.690  -0.060  0.00  0.00    -0.039 A 
ATOM     11  C   LIG    1       -2.001   0.781  -1.011  0.00  0.00    +0.070 C 
ATOM     12  C   LIG    1       -1.828  -0.654  -0.694  0.00  0.00    -0.039 A 
ATOM     13  C   LIG    1       -0.766  -1.339  -0.164  0.00  0.00    -0.036 A 
ATOM     14  C   LIG    1       -0.867  -2.696   0.040  0.00  0.00    +0.004 A 
ATOM     15  C   LIG    1       -2.015  -3.399  -0.276  0.00  0.00    +0.000 A 
ATOM     16  C   LIG    1       -3.071  -2.693  -0.807  0.00  0.00    +0.000 A 
ATOM     17  C   LIG    1       -3.003  -1.342  -1.022  0.00  0.00    +0.004 A 
ATOM     18  C   LIG    1        0.534  -0.765   0.235  0.00  0.00    +0.019 C 
ATOM     19  C   LIG    1        1.503  -1.860   0.432  0.00  0.00    +0.029 C 
ATOM     20  C   LIG    1        2.957  -1.371   0.459  0.00  0.00    +0.085 C 
ENDROOT
TORSDOF 0
