REMARK  Name = molecules/GVXBHSBKKJRBMS-UHFFFAOYSA-N.pdb
REMARK                            x       y       z     vdW  Elec       q    Type
REMARK                         _______ _______ _______ _____ _____    ______ ____
ROOT
ATOM      1  C   LIG    1       -4.612   0.637   0.479  0.00  0.00    +0.276 C 
ATOM      2  N   LIG    1       -3.351   0.088   0.030  0.00  0.00    -0.220 N 
ATOM      3  C   LIG    1       -2.187   0.929   0.044  0.00  0.00    +0.332 C 
ATOM      4  N   LIG    1       -2.219   2.209   0.073  0.00  0.00    -0.081 NA
ATOM      5  C   LIG    1       -1.032   3.012   0.087  0.00  0.00    +0.295 C 
ATOM      6  C   LIG    1        0.292   2.348   0.049  0.00  0.00    +0.088 C 
ATOM      7  C   LIG    1        0.273   0.878   0.026  0.00  0.00    -0.003 A 
ATOM      8  C   LIG    1        1.264  -0.108  -0.003  0.00  0.00    +0.007 A 
ATOM      9  C   LIG    1        2.629  -0.027  -0.014  0.00  0.00    +0.056 A 
ATOM     10  C   LIG    1        3.386  -1.172  -0.043  0.00  0.00    +0.121 A 
ATOM     11  C   LIG    1        2.711  -2.386  -0.060  0.00  0.00    +0.047 A 
ATOM     12  C   LIG    1        1.331  -2.461  -0.048  0.00  0.00    +0.030 A 
ATOM     13  C   LIG    1        0.572  -1.316  -0.019  0.00  0.00    +0.050 A 
ATOM     14  N   LIG    1       -0.763  -1.103  -0.002  0.00  0.00    -0.330 N 
ATOM     15  C   LIG    1       -1.924  -1.938  -0.004  0.00  0.00    +0.166 C 
ATOM     16  C   LIG    1       -0.916   0.209   0.025  0.00  0.00    +0.138 A 
ATOM     17  C   LIG    1       -3.168  -1.254  -0.440  0.00  0.00    +0.247 C 
ENDROOT
BRANCH  10  18
ATOM     18  O   LIG    1        4.760  -1.087  -0.055  0.00  0.00    -0.495 OA
ATOM     19  C   LIG    1        5.399   0.171  -0.038  0.00  0.00    +0.277 C 
ENDBRANCH  10  18
TORSDOF 1
