REMARK  Name = molecules/GWEVSGVZZGPLCZ-UHFFFAOYSA-N.pdb
REMARK                            x       y       z     vdW  Elec       q    Type
REMARK                         _______ _______ _______ _____ _____    ______ ____
ROOT
ATOM      1 TI   LIG    1       -0.064   0.568   0.000  0.00  0.00    +0.000 Ti
ATOM      2  O   LIG    1        1.879  -0.054   0.000  0.00  0.00    +0.000 OA
ATOM      3  O   LIG    1       -1.815   0.085   0.000  0.00  0.00    +0.000 OA
ENDROOT
TORSDOF 0
