REMARK  Name = molecules/GWOFUCIGLDBNKM-ZDUSSCGKSA-N.pdb
REMARK                            x       y       z     vdW  Elec       q    Type
REMARK                         _______ _______ _______ _____ _____    ______ ____
ROOT
ATOM      1  C   LIG    1       -0.012   0.756  -1.745  0.00  0.00    +0.045 A 
ATOM      2  C   LIG    1        1.302   1.096  -1.774  0.00  0.00    +0.080 A 
ATOM      3  C   LIG    1        1.860   1.484  -3.000  0.00  0.00    +0.017 A 
ATOM      4  C   LIG    1        1.112   1.527  -4.156  0.00  0.00    +0.001 A 
ATOM      5  C   LIG    1       -0.205   1.188  -4.125  0.00  0.00    +0.002 A 
ATOM      6  C   LIG    1       -0.773   0.802  -2.933  0.00  0.00    +0.024 A 
ENDROOT
BRANCH   1   7
ATOM      7  N   LIG    1       -0.610   0.241  -0.582  0.00  0.00    -0.313 N 
ATOM      8  H   LIG    1       -0.006  -0.252   0.090  0.00  0.00    +0.152 HD
BRANCH   7   9
ATOM      9  C   LIG    1       -2.006   0.374  -0.349  0.00  0.00    +0.042 A 
ATOM     10  C   LIG    1       -2.660  -0.480   0.540  0.00  0.00    +0.022 A 
ATOM     11  C   LIG    1       -1.999  -1.524   1.141  0.00  0.00    +0.013 A 
ATOM     12  C   LIG    1       -2.656  -2.373   2.023  0.00  0.00    +0.021 A 
ATOM     13  C   LIG    1       -3.987  -2.196   2.320  0.00  0.00    +0.043 A 
ATOM     14 CL   LIG    1       -4.822  -3.261   3.429  0.00  0.00    -0.083 Cl
ATOM     15  C   LIG    1       -4.628  -1.149   1.708  0.00  0.00    +0.048 A 
ATOM     16  C   LIG    1       -3.994  -0.287   0.825  0.00  0.00    +0.074 A 
ATOM     17  N   LIG    1       -4.663   0.717   0.251  0.00  0.00    -0.255 NA
ATOM     18  C   LIG    1       -4.095   1.558  -0.598  0.00  0.00    +0.113 A 
ATOM     19  C   LIG    1       -2.749   1.391  -0.906  0.00  0.00    +0.043 A 
ENDBRANCH   7   9
ENDBRANCH   1   7
BRANCH   2  20
ATOM     20  C   LIG    1        2.157   1.131  -0.636  0.00  0.00    +0.341 C 
ATOM     21  O   LIG    1        3.396   1.448  -0.722  0.00  0.00    -0.245 OA
BRANCH  20  22
ATOM     22  O   LIG    1        1.744   0.837   0.630  0.00  0.00    -0.458 OA
BRANCH  22  23
ATOM     23  C   LIG    1        2.517   0.851   1.788  0.00  0.00    +0.266 C 
BRANCH  23  24
ATOM     24  C   LIG    1        3.692  -0.109   1.739  0.00  0.00    +0.177 C 
BRANCH  24  25
ATOM     25  O   LIG    1        4.362   0.023   2.961  0.00  0.00    -0.386 OA
ATOM     26  H   LIG    1        4.738  -0.850   3.215  0.00  0.00    +0.210 HD
ENDBRANCH  24  25
BRANCH  24  27
ATOM     27  C   LIG    1        3.193  -1.537   1.666  0.00  0.00    +0.190 C 
BRANCH  27  28
ATOM     28  O   LIG    1        4.321  -2.363   1.739  0.00  0.00    -0.392 OA
ATOM     29  H   LIG    1        5.021  -1.941   1.175  0.00  0.00    +0.210 HD
ENDBRANCH  27  28
ENDBRANCH  24  27
ENDBRANCH  23  24
ENDBRANCH  22  23
ENDBRANCH  20  22
ENDBRANCH   2  20
TORSDOF 9
