REMARK  Name = molecules/GXCXYCOOYDMQOK-UHFFFAOYSA-N.pdb
REMARK                            x       y       z     vdW  Elec       q    Type
REMARK                         _______ _______ _______ _____ _____    ______ ____
ROOT
ATOM      1  C   LIG    1        5.797  -2.935  -0.240  0.00  0.00    +0.057 A 
ATOM      2  C   LIG    1        4.802  -2.066   0.220  0.00  0.00    +0.036 A 
ATOM      3  C   LIG    1        4.952  -0.691   0.241  0.00  0.00    +0.045 A 
ATOM      4  N   LIG    1        3.886   0.135   0.777  0.00  0.00    -0.313 N 
ATOM      5  C   LIG    1        3.984   1.537   0.866  0.00  0.00    +0.115 C 
ATOM      6  C   LIG    1        2.969   2.282   1.448  0.00  0.00    +0.007 C 
ATOM      7  C   LIG    1        3.024   3.657   1.608  0.00  0.00    -0.002 C 
ATOM      8  C   LIG    1        4.124   4.374   1.189  0.00  0.00    +0.001 C 
ATOM      9  C   LIG    1        5.137   3.674   0.618  0.00  0.00    +0.013 C 
ATOM     10  C   LIG    1        5.057   2.309   0.467  0.00  0.00    +0.020 C 
ATOM     11  S   LIG    1        6.449   1.507  -0.283  0.00  0.00    -0.089 S 
ATOM     12  C   LIG    1        6.143  -0.221  -0.225  0.00  0.00    +0.034 A 
ATOM     13  C   LIG    1        7.157  -1.028  -0.689  0.00  0.00    +0.017 A 
ATOM     14  C   LIG    1        6.989  -2.384  -0.699  0.00  0.00    +0.013 A 
ENDROOT
BRANCH   1  16
ATOM     15  F   LIG    1        4.210  -4.656  -0.126  0.00  0.00    -0.166 F 
ATOM     16  C   LIG    1        5.578  -4.402  -0.227  0.00  0.00    +0.417 C 
ATOM     17  F   LIG    1        6.293  -5.063   0.745  0.00  0.00    -0.166 F 
ATOM     18  F   LIG    1        5.981  -4.885  -1.474  0.00  0.00    -0.166 F 
ENDBRANCH   1  16
BRANCH   4  19
ATOM     19  C   LIG    1        2.692  -0.527   1.234  0.00  0.00    +0.108 C 
BRANCH  19  20
ATOM     20  C   LIG    1        1.425  -0.365   0.508  0.00  0.00    +0.034 C 
BRANCH  20  21
ATOM     21  C   LIG    1        1.377  -0.607  -0.967  0.00  0.00    +0.086 C 
BRANCH  21  22
ATOM     22  N   LIG    1       -0.020  -0.451  -1.413  0.00  0.00    -0.300 NA
ATOM     23  C   LIG    1       -0.838  -1.520  -0.963  0.00  0.00    +0.100 C 
ATOM     24  C   LIG    1       -1.860  -1.250   0.070  0.00  0.00    +0.100 C 
ATOM     25  N   LIG    1       -2.426   0.064   0.079  0.00  0.00    -0.300 NA
ATOM     26  C   LIG    1       -1.978   0.940  -0.960  0.00  0.00    +0.100 C 
ATOM     27  C   LIG    1       -0.531   0.862  -1.285  0.00  0.00    +0.100 C 
BRANCH  25  28
ATOM     28  C   LIG    1       -3.888  -0.023   0.025  0.00  0.00    +0.089 C 
BRANCH  28  29
ATOM     29  C   LIG    1       -4.550   1.309   0.114  0.00  0.00    +0.076 C 
BRANCH  29  30
ATOM     30  C   LIG    1       -6.057   1.114  -0.005  0.00  0.00    +0.251 C 
ATOM     31  O   LIG    1       -6.476   0.284   1.011  0.00  0.00    -0.351 OA
ATOM     32  C   LIG    1       -7.657  -0.391   0.718  0.00  0.00    +0.165 C 
ATOM     33  C   LIG    1       -8.445   0.381  -0.310  0.00  0.00    +0.056 C 
ATOM     34  C   LIG    1       -7.621   0.397  -1.576  0.00  0.00    +0.165 C 
ATOM     35  O   LIG    1       -6.313   0.686  -1.284  0.00  0.00    -0.351 OA
ENDBRANCH  29  30
ENDBRANCH  28  29
ENDBRANCH  25  28
ENDBRANCH  21  22
ENDBRANCH  20  21
ENDBRANCH  19  20
ENDBRANCH   4  19
TORSDOF 8
