REMARK  Name = molecules/GXFAIFRPOKBQRV-GHXCTMGLSA-N.pdb
REMARK                            x       y       z     vdW  Elec       q    Type
REMARK                         _______ _______ _______ _____ _____    ______ ____
ROOT
ATOM      1  O   LIG    1       -1.673  -2.336  -2.678  0.00  0.00    -0.274 OA
ATOM      2  C   LIG    1       -1.250  -1.911  -1.573  0.00  0.00    +0.237 C 
ATOM      3  C   LIG    1       -2.219  -1.559  -0.510  0.00  0.00    +0.194 C 
ATOM      4  N   LIG    1       -3.244  -0.735  -1.093  0.00  0.00    -0.299 N 
ATOM      5  C   LIG    1       -4.577  -0.599  -0.625  0.00  0.00    +0.245 C 
ATOM      6  C   LIG    1       -4.955  -0.288   0.770  0.00  0.00    +0.177 C 
ATOM      7  N   LIG    1       -4.189   0.563   1.606  0.00  0.00    -0.293 N 
ATOM      8  H   LIG    1       -4.010   0.083   2.577  0.00  0.00    +0.150 HD
ATOM      9  C   LIG    1       -3.627   1.825   1.399  0.00  0.00    +0.237 C 
ATOM     10  O   LIG    1       -4.059   2.844   2.071  0.00  0.00    -0.274 OA
ATOM     11  CA  LIG    1       -2.531   2.191   0.461  0.00  0.00    +0.184 C 
ATOM     12  N   LIG    1       -3.005   2.707  -0.800  0.00  0.00    -0.300 N 
ATOM     13  H   LIG    1       -3.938   3.159  -0.874  0.00  0.00    +0.150 HD
ATOM     14  C   LIG    1       -2.161   2.578  -1.938  0.00  0.00    +0.236 C 
ATOM     15  CA  LIG    1       -0.696   2.388  -1.900  0.00  0.00    +0.184 C 
ATOM     16  N   LIG    1       -0.278   1.304  -2.781  0.00  0.00    -0.301 N 
ATOM     17  C   LIG    1        0.957   0.665  -2.811  0.00  0.00    +0.236 C 
ATOM     18  CA  LIG    1        1.685  -0.003  -1.715  0.00  0.00    +0.176 C 
ATOM     19  C   LIG    1        0.764  -0.673  -0.699  0.00  0.00    +0.136 C 
ATOM     20  O   LIG    1        1.555   0.650  -3.960  0.00  0.00    -0.274 OA
ATOM     21  H   LIG    1       -1.016   0.975  -3.480  0.00  0.00    +0.150 HD
ATOM     22  O   LIG    1       -2.706   2.629  -3.090  0.00  0.00    -0.274 OA
ATOM     23  O   LIG    1       -5.540  -0.754  -1.469  0.00  0.00    -0.273 OA
ATOM     24  H   LIG    1       -3.014  -0.166  -1.966  0.00  0.00    +0.150 HD
ATOM     25  N   LIG    1        0.154  -1.789  -1.409  0.00  0.00    -0.311 N 
ATOM     26  H   LIG    1        0.816  -2.497  -1.792  0.00  0.00    +0.149 HD
ENDROOT
BRANCH   6  27
ATOM     27  C   LIG    1       -5.979  -0.969   1.272  0.00  0.00    +0.086 C 
ATOM     28  N   LIG    1       -6.497  -0.805   2.557  0.00  0.00    -0.277 N 
ATOM     29  C   LIG    1       -6.333  -0.040   3.678  0.00  0.00    +0.301 C 
ATOM     30  N   LIG    1       -7.192  -0.340   4.838  0.00  0.00    -0.313 N 
ATOM     31  H   LIG    1       -6.758  -0.738   5.660  0.00  0.00    +0.146 HD
ATOM     32  H   LIG    1       -8.175  -0.128   4.740  0.00  0.00    +0.146 HD
ATOM     33  O   LIG    1       -5.561   0.918   3.943  0.00  0.00    -0.253 OA
ATOM     34  H   LIG    1       -7.306  -1.569   2.715  0.00  0.00    +0.156 HD
ENDBRANCH   6  27
BRANCH   3  35
ATOM     35  C   LIG    1       -2.733  -2.818   0.146  0.00  0.00    +0.171 C 
ATOM     36  N   LIG    1       -1.653  -3.554   0.713  0.00  0.00    -0.233 N 
ATOM     37  C   LIG    1       -1.842  -4.921   1.039  0.00  0.00    +0.365 C 
ATOM     38  N   LIG    1       -2.894  -5.582   0.655  0.00  0.00    -0.085 NA
ATOM     39  C   LIG    1       -3.920  -4.953  -0.123  0.00  0.00    +0.319 C 
ATOM     40  H   LIG    1       -0.744  -3.090   0.883  0.00  0.00    +0.245 HD
ATOM     41  C   LIG    1       -3.425  -3.722  -0.859  0.00  0.00    +0.115 C 
BRANCH  37  42
ATOM     42  N   LIG    1       -0.889  -5.637   1.805  0.00  0.00    -0.252 N 
ATOM     43  H   LIG    1       -0.932  -5.579   2.842  0.00  0.00    +0.241 HD
ATOM     44  H   LIG    1       -0.167  -6.204   1.319  0.00  0.00    +0.241 HD
ENDBRANCH  37  42
BRANCH  39  45
ATOM     45  O   LIG    1       -5.028  -4.696   0.679  0.00  0.00    -0.358 OA
ATOM     46  H   LIG    1       -5.621  -4.006   0.281  0.00  0.00    +0.213 HD
ENDBRANCH  39  45
ENDBRANCH   3  35
BRANCH  18  47
ATOM     47  N   LIG    1        2.697   0.783  -1.073  0.00  0.00    -0.303 N 
ATOM     48  H   LIG    1        2.485   1.753  -0.781  0.00  0.00    +0.149 HD
ATOM     49  C   LIG    1        3.995   0.283  -0.817  0.00  0.00    +0.215 C 
ATOM     50  O   LIG    1        4.257  -0.900  -1.169  0.00  0.00    -0.276 OA
BRANCH  49  51
ATOM     51  C   LIG    1        5.072   1.053  -0.159  0.00  0.00    +0.114 C 
BRANCH  51  52
ATOM     52  C   LIG    1        6.274   0.175   0.095  0.00  0.00    +0.059 C 
BRANCH  52  53
ATOM     53  N   LIG    1        6.740  -0.528  -1.071  0.00  0.00    -0.327 NA
ATOM     54  H   LIG    1        6.510  -1.546  -1.046  0.00  0.00    +0.118 HD
ATOM     55  H   LIG    1        6.311  -0.093  -1.930  0.00  0.00    +0.118 HD
ENDBRANCH  52  53
BRANCH  52  56
ATOM     56  C   LIG    1        7.419   0.865   0.752  0.00  0.00    +0.020 C 
BRANCH  56  57
ATOM     57  C   LIG    1        7.969   2.012  -0.032  0.00  0.00    +0.016 C 
BRANCH  57  58
ATOM     58  C   LIG    1        9.139   2.637   0.727  0.00  0.00    +0.078 C 
BRANCH  58  59
ATOM     59  N   LIG    1       10.144   1.583   0.893  0.00  0.00    -0.330 NA
ATOM     60  H   LIG    1       10.897   1.858   1.559  0.00  0.00    +0.118 HD
ATOM     61  H   LIG    1       10.619   1.411  -0.032  0.00  0.00    +0.118 HD
ENDBRANCH  58  59
ENDBRANCH  57  58
ENDBRANCH  56  57
ENDBRANCH  52  56
ENDBRANCH  51  52
ENDBRANCH  49  51
ENDBRANCH  18  47
BRANCH  11  62
ATOM     62  C   LIG    1       -1.800   3.368   1.143  0.00  0.00    +0.187 C 
BRANCH  62  63
ATOM     63  O   LIG    1       -1.293   2.946   2.351  0.00  0.00    -0.393 OA
ATOM     64  H   LIG    1       -1.931   3.077   3.107  0.00  0.00    +0.209 HD
ENDBRANCH  62  63
ENDBRANCH  11  62
BRANCH  15  65
ATOM     65  CB  LIG    1       -0.080   3.706  -2.335  0.00  0.00    +0.187 C 
BRANCH  65  66
ATOM     66  O   LIG    1       -0.452   4.053  -3.631  0.00  0.00    -0.393 OA
ATOM     67  H   LIG    1        0.350   4.283  -4.195  0.00  0.00    +0.209 HD
ENDBRANCH  65  66
ENDBRANCH  15  65
TORSDOF 16
