REMARK  Name = molecules/GXHBCWCMYVTJOW-YGRHGMIBSA-N.pdb
REMARK                            x       y       z     vdW  Elec       q    Type
REMARK                         _______ _______ _______ _____ _____    ______ ____
ROOT
ATOM      1  C   LIG    1       -2.854   0.669  -1.169  0.00  0.00    +0.014 C 
ATOM      2  C   LIG    1       -2.344   0.434   0.217  0.00  0.00    -0.003 C 
ATOM      3  C   LIG    1       -3.531   0.025   1.073  0.00  0.00    +0.121 C 
ATOM      4  C   LIG    1       -3.591  -1.488   0.962  0.00  0.00    +0.032 C 
ATOM      5  C   LIG    1       -2.422  -1.898   0.077  0.00  0.00    +0.007 C 
ATOM      6  C   LIG    1       -1.583   1.590   0.758  0.00  0.00    +0.010 C 
ATOM      7  C   LIG    1       -0.164   1.689   0.352  0.00  0.00    +0.005 C 
ATOM      8  C   LIG    1        0.567   0.418   0.165  0.00  0.00    -0.000 C 
ATOM      9  C   LIG    1       -0.261  -0.685  -0.478  0.00  0.00    -0.003 C 
ATOM     10  C   LIG    1        0.493  -1.950  -0.621  0.00  0.00    +0.008 C 
ATOM     11  C   LIG    1        1.919  -1.954  -0.214  0.00  0.00    +0.035 C 
ATOM     12  C   LIG    1        2.622  -0.660  -0.341  0.00  0.00    -0.021 C 
ATOM     13  C   LIG    1        3.926  -0.628  -0.146  0.00  0.00    +0.159 C 
ATOM     14  C   LIG    1        4.650   0.663  -0.256  0.00  0.00    +0.197 C 
ATOM     15  C   LIG    1        3.823   1.851   0.124  0.00  0.00    +0.083 C 
ATOM     16  C   LIG    1        2.525   1.825  -0.602  0.00  0.00    +0.016 C 
ATOM     17  O   LIG    1        5.827   0.701  -0.631  0.00  0.00    -0.289 OA
ATOM     18  C   LIG    1        1.810   0.541  -0.672  0.00  0.00    +0.022 C 
ATOM     19  C   LIG    1       -1.485  -0.796   0.358  0.00  0.00    +0.001 C 
ENDROOT
BRANCH   3  20
ATOM     20  O   LIG    1       -4.704   0.573   0.530  0.00  0.00    -0.391 OA
ATOM     21  H   LIG    1       -4.585   1.553   0.577  0.00  0.00    +0.210 HD
ENDBRANCH   3  20
BRANCH  13  22
ATOM     22  O   LIG    1        4.652  -1.780   0.163  0.00  0.00    -0.503 OA
ATOM     23  H   LIG    1        5.321  -2.082  -0.531  0.00  0.00    +0.292 HD
ENDBRANCH  13  22
TORSDOF 2
