REMARK  Name = molecules/GXJABQQUPOEUTA-RDJZCZTQSA-N.pdb
REMARK                            x       y       z     vdW  Elec       q    Type
REMARK                         _______ _______ _______ _____ _____    ______ ____
ROOT
ATOM      1  C   LIG    1       -0.402  -0.605   0.338  0.00  0.00    +0.000 C 
ENDROOT
BRANCH   1   3
ATOM      2  N   LIG    1        1.948  -1.395   0.763  0.00  0.00    +0.000 N 
ATOM      3  C   LIG    1        0.996  -0.353   0.730  0.00  0.00    +0.000 C 
ATOM      4  O   LIG    1        1.343   0.804   1.038  0.00  0.00    +0.000 OA
ATOM      5  H   LIG    1        1.588  -2.357   0.491  0.00  0.00    +0.000 HD
BRANCH   2   6
ATOM      6  C   LIG    1        3.341  -1.221   1.137  0.00  0.00    +0.000 C 
BRANCH   6   7
ATOM      7  C   LIG    1        4.020  -0.045   0.517  0.00  0.00    +0.000 C 
BRANCH   7   9
ATOM      8  C   LIG    1        2.849  -0.038  -1.735  0.00  0.00    +0.000 C 
ATOM      9  C   LIG    1        4.115  -0.021  -0.959  0.00  0.00    +0.000 C 
ATOM     10  C   LIG    1        4.835   1.288  -1.331  0.00  0.00    +0.000 C 
ENDBRANCH   7   9
ENDBRANCH   6   7
BRANCH   6  11
ATOM     11  B   LIG    1        3.388  -1.056   2.709  0.00  0.00    +0.000 B 
BRANCH  11  12
ATOM     12  O   LIG    1        3.872  -2.148   3.518  0.00  0.00    +0.000 OA
ATOM     13  H   LIG    1        3.954  -2.981   3.019  0.00  0.00    +0.000 HD
ENDBRANCH  11  12
BRANCH  11  14
ATOM     14  O   LIG    1        3.376   0.302   3.248  0.00  0.00    +0.000 OA
ATOM     15  H   LIG    1        3.996   0.402   4.012  0.00  0.00    +0.000 HD
ENDBRANCH  11  14
ENDBRANCH   6  11
ENDBRANCH   2   6
ENDBRANCH   1   3
BRANCH   1  16
ATOM     16  N   LIG    1       -1.208   0.597   0.372  0.00  0.00    +0.000 N 
ATOM     17  C   LIG    1       -2.369   0.718   1.182  0.00  0.00    +0.000 C 
ATOM     18  O   LIG    1       -2.694  -0.267   1.889  0.00  0.00    +0.000 OA
ATOM     19  H   LIG    1       -0.962   1.447  -0.213  0.00  0.00    +0.000 HD
BRANCH  17  20
ATOM     20  C   LIG    1       -3.181   1.911   1.224  0.00  0.00    +0.000 A 
ATOM     21  C   LIG    1       -4.290   1.974   2.022  0.00  0.00    +0.000 A 
ATOM     22  N   LIG    1       -5.017   3.111   2.028  0.00  0.00    +0.000 NA
ATOM     23  C   LIG    1       -4.701   4.188   1.284  0.00  0.00    +0.000 A 
ATOM     24  C   LIG    1       -3.582   4.113   0.484  0.00  0.00    +0.000 A 
ATOM     25  N   LIG    1       -2.852   2.971   0.478  0.00  0.00    +0.000 NA
ENDBRANCH  17  20
ENDBRANCH   1  16
BRANCH   1  26
ATOM     26  C   LIG    1       -0.484  -1.278  -1.030  0.00  0.00    +0.000 C 
BRANCH  26  27
ATOM     27  C   LIG    1       -1.894  -1.526  -1.413  0.00  0.00    +0.000 A 
ATOM     28  C   LIG    1       -2.528  -2.704  -1.081  0.00  0.00    +0.000 A 
ATOM     29  C   LIG    1       -3.856  -2.923  -1.448  0.00  0.00    +0.000 A 
ATOM     30  C   LIG    1       -4.545  -1.978  -2.140  0.00  0.00    +0.000 A 
ATOM     31  C   LIG    1       -3.937  -0.799  -2.482  0.00  0.00    +0.000 A 
ATOM     32  C   LIG    1       -2.626  -0.589  -2.116  0.00  0.00    +0.000 A 
ENDBRANCH  26  27
ENDBRANCH   1  26
TORSDOF 11
