REMARK  Name = molecules/GXPHKUHSUJUWKP-YADARESESA-N.pdb
REMARK                            x       y       z     vdW  Elec       q    Type
REMARK                         _______ _______ _______ _____ _____    ______ ____
ROOT
ATOM      1  C   LIG    1       -0.019   1.050   1.147  0.00  0.00    +0.276 C 
ENDROOT
BRANCH   1   6
ATOM      2  C   LIG    1       -3.371  -2.687   0.243  0.00  0.00    +0.048 C 
ATOM      3  C   LIG    1       -3.934  -1.382  -0.173  0.00  0.00    -0.002 A 
ATOM      4  C   LIG    1       -3.232  -0.239   0.163  0.00  0.00    +0.128 A 
ATOM      5  O   LIG    1       -2.038  -0.280   0.865  0.00  0.00    -0.482 OA
ATOM      6  C   LIG    1       -1.478   0.795   1.554  0.00  0.00    +0.142 C 
ATOM      7  C   LIG    1       -1.418   0.417   3.043  0.00  0.00    +0.059 C 
ATOM      8  C   LIG    1       -2.207   2.090   1.422  0.00  0.00    +0.056 C 
ATOM      9  C   LIG    1       -3.003   2.227   0.142  0.00  0.00    +0.043 C 
ATOM     10  C   LIG    1       -3.736   0.987  -0.213  0.00  0.00    +0.001 A 
ATOM     11  C   LIG    1       -4.926   1.122  -0.919  0.00  0.00    -0.002 A 
ATOM     12  C   LIG    1       -5.630  -0.019  -1.256  0.00  0.00    +0.123 A 
ATOM     13  C   LIG    1       -5.386   2.485  -1.287  0.00  0.00    +0.048 C 
ATOM     14  C   LIG    1       -5.111  -1.262  -0.870  0.00  0.00    -0.002 A 
ATOM     15  C   LIG    1       -5.857  -2.482  -1.228  0.00  0.00    +0.048 C 
BRANCH  12  16
ATOM     16  O   LIG    1       -6.822   0.057  -1.958  0.00  0.00    -0.506 OA
ATOM     17  H   LIG    1       -7.253   0.887  -2.262  0.00  0.00    +0.292 HD
ENDBRANCH  12  16
ENDBRANCH   1   6
BRANCH   1  18
ATOM     18  O   LIG    1        0.782  -0.063   1.405  0.00  0.00    -0.488 OA
BRANCH  18  19
ATOM     19  C   LIG    1        2.130  -0.030   1.109  0.00  0.00    +0.121 A 
ATOM     20  C   LIG    1        2.935  -1.124   1.359  0.00  0.00    +0.046 A 
ATOM     21  C   LIG    1        4.289  -1.107   1.069  0.00  0.00    +0.007 A 
ATOM     22  C   LIG    1        4.851   0.028   0.516  0.00  0.00    -0.046 A 
ATOM     23  C   LIG    1        4.025   1.113   0.273  0.00  0.00    +0.007 A 
ATOM     24  C   LIG    1        2.673   1.105   0.560  0.00  0.00    +0.046 A 
BRANCH  22  25
ATOM     25  C   LIG    1        6.290   0.125   0.179  0.00  0.00    +0.059 C 
BRANCH  25  26
ATOM     26  C   LIG    1        6.505  -0.345  -1.242  0.00  0.00    +0.146 C 
ATOM     27  S   LIG    1        6.314  -2.180  -1.242  0.00  0.00    -0.054 S 
ATOM     28  C   LIG    1        7.761  -2.534  -2.220  0.00  0.00    +0.279 C 
ATOM     29  N   LIG    1        8.354  -1.283  -2.479  0.00  0.00    -0.246 N 
ATOM     30  H   LIG    1        9.056  -1.121  -3.262  0.00  0.00    +0.158 HD
ATOM     31  O   LIG    1        8.144  -3.650  -2.583  0.00  0.00    -0.263 OA
ATOM     32  C   LIG    1        7.945  -0.261  -1.615  0.00  0.00    +0.234 C 
ATOM     33  O   LIG    1        8.668   0.687  -1.146  0.00  0.00    -0.274 OA
ENDBRANCH  25  26
ENDBRANCH  22  25
ENDBRANCH  18  19
ENDBRANCH   1  18
TORSDOF 6
