REMARK  Name = molecules/GYHCTFXIZSNGJT-DEOSSOPVSA-N.pdb
REMARK                            x       y       z     vdW  Elec       q    Type
REMARK                         _______ _______ _______ _____ _____    ______ ____
ROOT
ATOM      1  C   LIG    1       -0.589   0.778   0.779  0.00  0.00    +0.040 A 
ATOM      2  C   LIG    1       -0.039  -0.432   1.184  0.00  0.00    +0.015 A 
ATOM      3  C   LIG    1        1.240  -0.800   0.937  0.00  0.00    +0.024 A 
ATOM      4  C   LIG    1        2.084   0.068   0.234  0.00  0.00    +0.034 A 
ATOM      5  C   LIG    1        1.556   1.269  -0.172  0.00  0.00    +0.027 A 
ATOM      6  C   LIG    1        0.238   1.643   0.085  0.00  0.00    -0.037 A 
ATOM      7  C   LIG    1       -0.322   2.921  -0.350  0.00  0.00    +0.044 C 
ENDROOT
BRANCH   1   8
ATOM      8  C   LIG    1       -1.937   1.026   1.127  0.00  0.00    +0.251 C 
ATOM      9  O   LIG    1       -1.919   1.715   2.277  0.00  0.00    -0.270 OA
ATOM     10  N   LIG    1       -3.235   0.834   0.750  0.00  0.00    -0.267 N 
ATOM     11  C   LIG    1       -4.261   1.435   1.651  0.00  0.00    +0.114 C 
ATOM     12  C   LIG    1       -5.064   0.405   2.339  0.00  0.00    +0.022 C 
ATOM     13  C   LIG    1       -5.865  -0.539   1.544  0.00  0.00    +0.038 C 
ATOM     14  C   LIG    1       -6.195  -0.125   0.130  0.00  0.00    +0.146 C 
ATOM     15  C   LIG    1       -4.972  -0.347  -0.690  0.00  0.00    +0.004 A 
ATOM     16  C   LIG    1       -5.202  -1.059  -1.839  0.00  0.00    +0.028 A 
ATOM     17  C   LIG    1       -4.123  -1.312  -2.692  0.00  0.00    +0.041 A 
ATOM     18  C   LIG    1       -2.876  -0.845  -2.360  0.00  0.00    +0.022 A 
ATOM     19  C   LIG    1       -2.618  -0.126  -1.211  0.00  0.00    +0.025 A 
ATOM     20 CL   LIG    1       -4.441  -2.222  -4.149  0.00  0.00    -0.084 Cl
ATOM     21  C   LIG    1       -3.676   0.113  -0.388  0.00  0.00    +0.042 A 
BRANCH  14  22
ATOM     22  O   LIG    1       -7.204  -0.999  -0.320  0.00  0.00    -0.387 OA
ATOM     23  H   LIG    1       -8.039  -0.690   0.166  0.00  0.00    +0.210 HD
ENDBRANCH  14  22
ENDBRANCH   1   8
BRANCH   4  24
ATOM     24  N   LIG    1        3.417  -0.357   0.000  0.00  0.00    -0.281 N 
ATOM     25  H   LIG    1        3.661  -1.341   0.337  0.00  0.00    +0.155 HD
ATOM     26  C   LIG    1        4.437   0.336  -0.656  0.00  0.00    +0.249 C 
ATOM     27  O   LIG    1        4.211   1.476  -1.136  0.00  0.00    -0.270 OA
BRANCH  26  28
ATOM     28  C   LIG    1        5.764  -0.176  -0.831  0.00  0.00    +0.040 A 
ATOM     29  C   LIG    1        6.400  -0.994   0.044  0.00  0.00    -0.038 A 
ATOM     30  C   LIG    1        5.885  -1.375   1.381  0.00  0.00    +0.044 C 
ATOM     31  C   LIG    1        7.677  -1.510  -0.249  0.00  0.00    +0.004 A 
ATOM     32  C   LIG    1        8.306  -1.195  -1.426  0.00  0.00    +0.000 A 
ATOM     33  C   LIG    1        7.671  -0.360  -2.327  0.00  0.00    +0.001 A 
ATOM     34  C   LIG    1        6.422   0.140  -2.032  0.00  0.00    +0.013 A 
ENDBRANCH  26  28
ENDBRANCH   4  24
TORSDOF 4
