REMARK  Name = molecules/GYNNRVJJLAVVTQ-UHFFFAOYSA-N.pdb
REMARK                            x       y       z     vdW  Elec       q    Type
REMARK                         _______ _______ _______ _____ _____    ______ ____
ROOT
ATOM      1  C   LIG    1        0.023   2.170   0.331  0.00  0.00    +0.045 C 
ATOM      2  C   LIG    1       -0.131   0.761  -0.041  0.00  0.00    -0.030 A 
ATOM      3  C   LIG    1        0.933  -0.107   0.036  0.00  0.00    +0.022 A 
ATOM      4  C   LIG    1        2.186   0.297   0.461  0.00  0.00    +0.015 A 
ATOM      5  C   LIG    1        3.241  -0.595   0.530  0.00  0.00    +0.048 A 
ATOM      6  C   LIG    1        3.099  -1.919   0.180  0.00  0.00    +0.143 A 
ATOM      7  C   LIG    1        1.835  -2.336  -0.251  0.00  0.00    +0.125 A 
ATOM      8 CL   LIG    1        1.613  -4.016  -0.707  0.00  0.00    -0.076 Cl
ATOM      9  C   LIG    1        0.784  -1.432  -0.315  0.00  0.00    +0.161 A 
ATOM     10  O   LIG    1       -0.396  -1.819  -0.718  0.00  0.00    -0.420 OA
ATOM     11  C   LIG    1       -1.452  -1.004  -0.806  0.00  0.00    +0.341 A 
ATOM     12  O   LIG    1       -2.553  -1.483  -1.212  0.00  0.00    -0.245 OA
ATOM     13  C   LIG    1       -1.401   0.325  -0.479  0.00  0.00    +0.042 A 
ENDROOT
BRANCH   6  14
ATOM     14  O   LIG    1        4.104  -2.864   0.224  0.00  0.00    -0.479 OA
BRANCH  14  15
ATOM     15  C   LIG    1        5.392  -2.501   0.630  0.00  0.00    +0.349 C 
BRANCH  15  16
ATOM     16  C   LIG    1        5.958  -1.511  -0.316  0.00  0.00    +0.345 C 
ATOM     17  O   LIG    1        5.373  -1.119  -1.359  0.00  0.00    -0.247 OA
BRANCH  16  18
ATOM     18  O   LIG    1        7.214  -0.989  -0.024  0.00  0.00    -0.463 OA
BRANCH  18  19
ATOM     19  C   LIG    1        7.815  -0.046  -0.874  0.00  0.00    +0.229 C 
ATOM     20  C   LIG    1        6.941   1.173  -0.975  0.00  0.00    +0.048 C 
ENDBRANCH  18  19
ENDBRANCH  16  18
ENDBRANCH  15  16
ENDBRANCH  14  15
ENDBRANCH   6  14
BRANCH  13  21
ATOM     21  C   LIG    1       -2.500   1.290  -0.546  0.00  0.00    +0.058 C 
BRANCH  21  22
ATOM     22  C   LIG    1       -3.862   0.807  -0.810  0.00  0.00    +0.089 C 
BRANCH  22  23
ATOM     23  N   LIG    1       -4.432  -0.111   0.108  0.00  0.00    -0.303 NA
BRANCH  23  24
ATOM     24  C   LIG    1       -4.668   0.406   1.416  0.00  0.00    +0.081 C 
ATOM     25  C   LIG    1       -5.706   1.448   1.573  0.00  0.00    +0.020 C 
ENDBRANCH  23  24
BRANCH  23  26
ATOM     26  C   LIG    1       -5.550  -0.855  -0.423  0.00  0.00    +0.081 C 
ATOM     27  C   LIG    1       -6.775  -0.065  -0.714  0.00  0.00    +0.020 C 
ENDBRANCH  23  26
ENDBRANCH  22  23
ENDBRANCH  21  22
ENDBRANCH  13  21
TORSDOF 10
