REMARK  Name = molecules/GYQYAJJFPNQOOW-UHFFFAOYSA-N.pdb
REMARK                            x       y       z     vdW  Elec       q    Type
REMARK                         _______ _______ _______ _____ _____    ______ ____
ROOT
ATOM      1  N   LIG    1        2.199   2.622  -1.030  0.00  0.00    -0.297 N 
ATOM      2  H   LIG    1        1.908   3.472  -1.541  0.00  0.00    +0.154 HD
ENDROOT
BRANCH   1   4
ATOM      3  C   LIG    1       -0.111   1.978  -1.196  0.00  0.00    +0.070 A 
ATOM      4  C   LIG    1        1.183   1.704  -0.690  0.00  0.00    +0.036 A 
ATOM      5  C   LIG    1        1.328   0.581   0.075  0.00  0.00    +0.025 A 
ATOM      6  C   LIG    1        0.233  -0.248   0.332  0.00  0.00    +0.028 A 
ATOM      7  C   LIG    1       -1.020   0.010  -0.155  0.00  0.00    +0.072 A 
ATOM      8  C   LIG    1       -1.168   1.139  -0.923  0.00  0.00    +0.143 A 
BRANCH   7   9
ATOM      9  N   LIG    1       -2.111  -0.842   0.096  0.00  0.00    -0.327 N 
ATOM     10  C   LIG    1       -2.674  -1.139   1.382  0.00  0.00    +0.107 C 
ATOM     11  C   LIG    1       -4.093  -0.615   1.432  0.00  0.00    +0.038 C 
ATOM     12  C   LIG    1       -4.764  -0.936   0.141  0.00  0.00    +0.060 C 
ATOM     13  C   LIG    1       -4.056  -2.033  -0.628  0.00  0.00    +0.038 C 
ATOM     14  C   LIG    1       -2.725  -1.485  -1.067  0.00  0.00    +0.107 C 
BRANCH  12  15
ATOM     15  N   LIG    1       -6.146  -1.263   0.213  0.00  0.00    -0.297 NA
ATOM     16  C   LIG    1       -6.482  -2.403   1.012  0.00  0.00    +0.100 C 
ATOM     17  C   LIG    1       -7.874  -2.820   0.670  0.00  0.00    +0.099 C 
ATOM     18  N   LIG    1       -8.841  -1.783   0.576  0.00  0.00    -0.303 NA
ATOM     19  C   LIG    1       -8.373  -0.475   0.277  0.00  0.00    +0.099 C 
ATOM     20  C   LIG    1       -9.772  -2.146  -0.505  0.00  0.00    +0.105 C 
ATOM     21  C   LIG    1       -6.973  -0.166   0.709  0.00  0.00    +0.100 C 
ENDBRANCH  12  15
ENDBRANCH   7   9
BRANCH   8  22
ATOM     22  O   LIG    1       -2.421   1.416  -1.419  0.00  0.00    -0.493 OA
ATOM     23  C   LIG    1       -2.642   2.550  -2.206  0.00  0.00    +0.277 C 
ENDBRANCH   8  22
ENDBRANCH   1   4
BRANCH   1  24
ATOM     24  C   LIG    1        3.555   2.470  -0.724  0.00  0.00    +0.156 A 
ATOM     25  N   LIG    1        4.036   1.405  -0.042  0.00  0.00    -0.213 NA
ATOM     26  C   LIG    1        5.303   1.212   0.278  0.00  0.00    +0.143 A 
ATOM     27  C   LIG    1        6.228   2.167  -0.107  0.00  0.00    +0.082 A 
ATOM     28  N   LIG    1        5.783   3.216  -0.773  0.00  0.00    -0.240 NA
ATOM     29  C   LIG    1        4.482   3.443  -1.118  0.00  0.00    +0.165 A 
BRANCH  29  30
ATOM     30  C   LIG    1        4.135   4.635  -1.849  0.00  0.00    +0.263 C 
ATOM     31  N   LIG    1        5.227   5.526  -2.173  0.00  0.00    -0.324 N 
ATOM     32  H   LIG    1        5.692   6.005  -1.402  0.00  0.00    +0.145 HD
ATOM     33  H   LIG    1        5.506   5.654  -3.148  0.00  0.00    +0.145 HD
ATOM     34  O   LIG    1        3.032   5.021  -2.249  0.00  0.00    -0.269 OA
ENDBRANCH  29  30
BRANCH  26  35
ATOM     35  N   LIG    1        5.731   0.054   1.016  0.00  0.00    -0.325 N 
ATOM     36  H   LIG    1        6.746  -0.009   1.232  0.00  0.00    +0.148 HD
BRANCH  35  37
ATOM     37  C   LIG    1        4.854  -0.989   1.459  0.00  0.00    +0.076 C 
ATOM     38  C   LIG    1        5.678  -2.002   2.268  0.00  0.00    +0.050 C 
ATOM     39  C   LIG    1        6.872  -2.448   1.489  0.00  0.00    +0.161 C 
ATOM     40  O   LIG    1        6.512  -2.619   0.159  0.00  0.00    -0.380 OA
ATOM     41  C   LIG    1        5.180  -2.937  -0.009  0.00  0.00    +0.161 C 
ATOM     42  C   LIG    1        4.285  -1.735   0.265  0.00  0.00    +0.050 C 
ENDBRANCH  35  37
ENDBRANCH  26  35
BRANCH  27  43
ATOM     43  C   LIG    1        7.657   1.958   0.246  0.00  0.00    +0.055 C 
ATOM     44  C   LIG    1        7.897   2.256   1.692  0.00  0.00    +0.010 C 
ENDBRANCH  27  43
ENDBRANCH   1  24
TORSDOF 9
