REMARK  Name = molecules/GZENKSODFLBBHQ-ILSZZQPISA-N.pdb
REMARK                            x       y       z     vdW  Elec       q    Type
REMARK                         _______ _______ _______ _____ _____    ______ ____
ROOT
ATOM      1  C   LIG    1       -2.341  -1.540  -0.972  0.00  0.00    +0.016 C 
ATOM      2  C   LIG    1       -2.142  -0.594   0.174  0.00  0.00    -0.005 C 
ATOM      3  C   LIG    1       -2.825  -1.184   1.401  0.00  0.00    +0.019 C 
ATOM      4  C   LIG    1       -4.265  -1.554   1.121  0.00  0.00    +0.080 C 
ATOM      5  C   LIG    1       -4.921  -0.540   0.247  0.00  0.00    +0.156 C 
ATOM      6  C   LIG    1       -4.179   0.645  -0.106  0.00  0.00    +0.046 C 
ATOM      7  O   LIG    1       -6.093  -0.770  -0.140  0.00  0.00    -0.293 OA
ATOM      8  C   LIG    1       -0.713  -0.337   0.523  0.00  0.00    +0.031 C 
ATOM      9  C   LIG    1        0.059  -1.591   0.693  0.00  0.00    +0.119 C 
ATOM     10  C   LIG    1        1.536  -1.412   0.834  0.00  0.00    +0.039 C 
ATOM     11  C   LIG    1        2.117  -0.484  -0.208  0.00  0.00    -0.017 C 
ATOM     12  C   LIG    1        3.484   0.005   0.140  0.00  0.00    +0.061 C 
ATOM     13  C   LIG    1        3.555   1.432  -0.401  0.00  0.00    +0.012 C 
ATOM     14  C   LIG    1        2.131   1.768  -0.867  0.00  0.00    +0.005 C 
ATOM     15  C   LIG    1        1.325   0.811  -0.075  0.00  0.00    -0.001 C 
ATOM     16  C   LIG    1        2.015  -1.112  -1.555  0.00  0.00    +0.012 C 
ATOM     17  C   LIG    1       -0.097   0.664  -0.432  0.00  0.00    -0.000 C 
ATOM     18  C   LIG    1       -0.780   2.002  -0.104  0.00  0.00    +0.011 C 
ATOM     19  C   LIG    1       -2.211   1.930  -0.527  0.00  0.00    +0.013 C 
ATOM     20  C   LIG    1       -2.942   3.136   0.072  0.00  0.00    +0.012 C 
ATOM     21  C   LIG    1       -2.857   0.662  -0.153  0.00  0.00    -0.057 C 
ENDROOT
BRANCH  12  22
ATOM     22  C   LIG    1        4.589  -0.757  -0.419  0.00  0.00    +0.134 C 
ATOM     23  C   LIG    1        5.981  -0.341  -0.126  0.00  0.00    +0.086 C 
ATOM     24  O   LIG    1        4.431  -1.728  -1.124  0.00  0.00    -0.297 OA
ENDBRANCH  12  22
BRANCH   9  25
ATOM     25  O   LIG    1       -0.162  -2.550  -0.286  0.00  0.00    -0.391 OA
ATOM     26  H   LIG    1       -0.022  -3.462   0.076  0.00  0.00    +0.210 HD
ENDBRANCH   9  25
TORSDOF 2
