REMARK  Name = molecules/GZHFODJQISUKAY-UHFFFAOYSA-N.pdb
REMARK                            x       y       z     vdW  Elec       q    Type
REMARK                         _______ _______ _______ _____ _____    ______ ____
ROOT
ATOM      1  C   LIG    1       -2.289  -0.668  -0.758  0.00  0.00    +0.164 C 
ATOM      2  C   LIG    1       -3.081  -1.434   0.181  0.00  0.00    +0.013 A 
ATOM      3  C   LIG    1       -2.531  -2.568   0.819  0.00  0.00    +0.008 A 
ATOM      4  C   LIG    1       -3.218  -3.325   1.730  0.00  0.00    +0.001 A 
ATOM      5  C   LIG    1       -4.508  -2.963   2.041  0.00  0.00    +0.004 A 
ATOM      6  C   LIG    1       -5.065  -1.861   1.432  0.00  0.00    +0.046 A 
ATOM      7  C   LIG    1       -4.365  -1.088   0.500  0.00  0.00    +0.133 A 
ATOM      8  O   LIG    1       -4.990   0.018  -0.088  0.00  0.00    -0.455 OA
ATOM      9  C   LIG    1       -4.283   0.770  -1.013  0.00  0.00    +0.133 A 
ATOM     10  C   LIG    1       -4.869   1.883  -1.630  0.00  0.00    +0.046 A 
ATOM     11  C   LIG    1       -4.196   2.649  -2.556  0.00  0.00    +0.004 A 
ATOM     12  C   LIG    1       -2.902   2.329  -2.901  0.00  0.00    +0.001 A 
ATOM     13  C   LIG    1       -2.306   1.246  -2.311  0.00  0.00    +0.008 A 
ATOM     14  C   LIG    1       -3.006   0.461  -1.358  0.00  0.00    +0.013 A 
ENDROOT
BRANCH   1  15
ATOM     15  C   LIG    1       -0.969  -0.240  -0.233  0.00  0.00    +0.319 C 
ATOM     16  O   LIG    1       -0.656   0.959  -0.336  0.00  0.00    -0.250 OA
BRANCH  15  17
ATOM     17  O   LIG    1       -0.119  -1.127   0.344  0.00  0.00    -0.466 OA
BRANCH  17  18
ATOM     18  C   LIG    1        1.139  -0.758   0.850  0.00  0.00    +0.214 C 
BRANCH  18  19
ATOM     19  C   LIG    1        2.071  -0.179  -0.175  0.00  0.00    -0.034 C 
BRANCH  19  20
ATOM     20  N   LIG    1        3.346   0.173   0.435  0.00  0.00    +0.380 N 
ATOM     21  C   LIG    1        3.774  -0.866   1.368  0.00  0.00    -0.092 C 
BRANCH  20  22
ATOM     22  C   LIG    1        3.259   1.455   1.108  0.00  0.00    -0.079 C 
ATOM     23  C   LIG    1        4.315   1.561   2.184  0.00  0.00    -0.016 C 
ENDBRANCH  20  22
BRANCH  20  24
ATOM     24  C   LIG    1        4.356   0.231  -0.604  0.00  0.00    -0.079 C 
ATOM     25  C   LIG    1        3.848   0.926  -1.845  0.00  0.00    -0.016 C 
ENDBRANCH  20  24
ENDBRANCH  19  20
ENDBRANCH  18  19
ENDBRANCH  17  18
ENDBRANCH  15  17
ENDBRANCH   1  15
TORSDOF 7
