REMARK  Name = molecules/HAPOVYFOVVWLRS-ZETCQYMHSA-N.pdb
REMARK                            x       y       z     vdW  Elec       q    Type
REMARK                         _______ _______ _______ _____ _____    ______ ____
ROOT
ATOM      1  C   LIG    1       -0.078   0.311  -0.060  0.00  0.00    +0.053 C 
ATOM      2  C   LIG    1       -0.837   0.183   1.186  0.00  0.00    +0.226 C 
ATOM      3  O   LIG    1       -0.636   0.689   2.326  0.00  0.00    -0.275 OA
ATOM      4  N   LIG    1       -1.950  -0.683   0.904  0.00  0.00    -0.256 N 
ATOM      5  H   LIG    1       -2.532  -1.135   1.630  0.00  0.00    +0.157 HD
ATOM      6  C   LIG    1       -2.129  -0.825  -0.485  0.00  0.00    +0.220 C 
ATOM      7  O   LIG    1       -2.943  -1.531  -1.140  0.00  0.00    -0.275 OA
ATOM      8  C   LIG    1        0.440   1.698  -0.323  0.00  0.00    +0.021 C 
ATOM      9  C   LIG    1       -1.131   0.058  -1.149  0.00  0.00    +0.112 C 
ENDROOT
BRANCH   1  11
ATOM     10  C   LIG    1        2.156  -0.571   0.675  0.00  0.00    +0.005 C 
ATOM     11  C   LIG    1        0.987  -0.743  -0.235  0.00  0.00    +0.013 C 
ENDBRANCH   1  11
TORSDOF 1
