REMARK  Name = molecules/HAWWPSYXSLJRBO-UHFFFAOYSA-N.pdb
REMARK                            x       y       z     vdW  Elec       q    Type
REMARK                         _______ _______ _______ _____ _____    ______ ____
ROOT
ATOM      1  N   LIG    1       -0.115  -0.042   0.323  0.00  0.00    -0.312 N 
ATOM      2  C   LIG    1        0.194   1.230   0.569  0.00  0.00    +0.055 A 
ATOM      3  C   LIG    1        1.582   1.371   0.308  0.00  0.00    +0.037 A 
ATOM      4  C   LIG    1        2.065   0.158  -0.093  0.00  0.00    +0.004 A 
ATOM      5  C   LIG    1        3.399  -0.263  -0.481  0.00  0.00    -0.013 A 
ATOM      6  C   LIG    1        4.440   0.665  -0.475  0.00  0.00    +0.009 A 
ATOM      7  C   LIG    1        5.692   0.265  -0.840  0.00  0.00    +0.001 A 
ATOM      8  C   LIG    1        5.880  -1.055  -1.204  0.00  0.00    +0.000 A 
ATOM      9  C   LIG    1        4.855  -1.970  -1.211  0.00  0.00    +0.004 A 
ATOM     10  C   LIG    1        3.582  -1.567  -0.841  0.00  0.00    -0.039 A 
ATOM     11  C   LIG    1        2.506  -2.546  -0.854  0.00  0.00    +0.042 C 
ATOM     12  C   LIG    1        1.154  -2.120  -0.457  0.00  0.00    +0.059 C 
ATOM     13  C   LIG    1        1.033  -0.695  -0.082  0.00  0.00    +0.032 A 
ENDROOT
BRANCH   1  18
ATOM     14  C   LIG    1       -3.493  -1.470  -0.517  0.00  0.00    +0.102 A 
ATOM     15  C   LIG    1       -3.836  -2.067   0.661  0.00  0.00    +0.131 A 
ATOM     16  C   LIG    1       -2.938  -1.982   1.750  0.00  0.00    +0.048 A 
ATOM     17  C   LIG    1       -1.752  -1.314   1.619  0.00  0.00    +0.030 A 
ATOM     18  C   LIG    1       -1.372  -0.695   0.431  0.00  0.00    +0.048 A 
ATOM     19  C   LIG    1       -2.266  -0.795  -0.609  0.00  0.00    +0.044 A 
BRANCH  14  20
ATOM     20  C   LIG    1       -4.358  -1.514  -1.676  0.00  0.00    +0.340 C 
ATOM     21  O   LIG    1       -5.457  -2.082  -1.697  0.00  0.00    -0.245 OA
BRANCH  20  22
ATOM     22  O   LIG    1       -3.910  -0.864  -2.849  0.00  0.00    -0.477 OA
ATOM     23  H   LIG    1       -4.359  -0.040  -3.201  0.00  0.00    +0.295 HD
ENDBRANCH  20  22
ENDBRANCH  14  20
BRANCH  15  24
ATOM     24  O   LIG    1       -5.011  -2.742   0.829  0.00  0.00    -0.506 OA
ATOM     25  H   LIG    1       -5.772  -2.939   0.259  0.00  0.00    +0.292 HD
ENDBRANCH  15  24
ENDBRANCH   1  18
BRANCH   2  26
ATOM     26  C   LIG    1       -0.636   2.336   1.017  0.00  0.00    -0.001 A 
ATOM     27  C   LIG    1       -1.967   2.251   1.280  0.00  0.00    +0.010 A 
ATOM     28  C   LIG    1       -2.732   3.353   1.713  0.00  0.00    +0.001 A 
ATOM     29  C   LIG    1       -2.122   4.557   1.879  0.00  0.00    +0.000 A 
ATOM     30  C   LIG    1       -0.777   4.679   1.623  0.00  0.00    +0.001 A 
ATOM     31  C   LIG    1       -0.055   3.581   1.199  0.00  0.00    +0.010 A 
ENDBRANCH   2  26
TORSDOF 5
