REMARK  Name = molecules/HBNPJJILLOYFJU-VMPREFPWSA-N.pdb
REMARK                            x       y       z     vdW  Elec       q    Type
REMARK                         _______ _______ _______ _____ _____    ______ ____
ROOT
ATOM      1  C   LIG    1       -2.420   0.336  -0.251  0.00  0.00    +0.122 C 
ATOM      2  C   LIG    1       -2.887  -0.787   0.636  0.00  0.00    +0.066 C 
ATOM      3  C   LIG    1       -2.735  -2.091  -0.067  0.00  0.00    -0.037 A 
ATOM      4  C   LIG    1       -2.688  -3.226   0.695  0.00  0.00    +0.007 A 
ATOM      5  C   LIG    1       -2.556  -4.450   0.073  0.00  0.00    +0.038 A 
ATOM      6  C   LIG    1       -2.469  -4.569  -1.294  0.00  0.00    +0.124 A 
ATOM      7  F   LIG    1       -2.341  -5.814  -1.864  0.00  0.00    -0.205 F 
ATOM      8  C   LIG    1       -2.513  -3.446  -2.074  0.00  0.00    +0.042 A 
ATOM      9  C   LIG    1       -2.648  -2.198  -1.430  0.00  0.00    -0.041 A 
ATOM     10  C   LIG    1       -2.661  -1.019  -2.313  0.00  0.00    +0.039 C 
ATOM     11  C   LIG    1       -3.080   0.213  -1.604  0.00  0.00    +0.053 C 
ENDROOT
BRANCH   2  12
ATOM     12  C   LIG    1       -4.298  -0.565   1.132  0.00  0.00    -0.006 C 
ATOM     13  C   LIG    1       -4.452   0.693   1.958  0.00  0.00    +0.008 C 
ATOM     14  C   LIG    1       -4.870  -1.757   1.866  0.00  0.00    +0.008 C 
ENDBRANCH   2  12
BRANCH   1  15
ATOM     15  C   LIG    1       -0.905   0.298  -0.511  0.00  0.00    +0.064 C 
BRANCH  15  16
ATOM     16  C   LIG    1       -0.111   0.434   0.730  0.00  0.00    +0.088 C 
BRANCH  16  17
ATOM     17  N   LIG    1        1.263   0.502   0.730  0.00  0.00    -0.305 NA
ATOM     18  C   LIG    1        1.838   1.813   0.954  0.00  0.00    +0.104 C 
BRANCH  17  19
ATOM     19  C   LIG    1        2.160  -0.504   0.444  0.00  0.00    +0.084 C 
BRANCH  19  20
ATOM     20  C   LIG    1        2.225  -0.941  -0.986  0.00  0.00    +0.023 C 
BRANCH  20  21
ATOM     21  C   LIG    1        3.301  -2.036  -1.110  0.00  0.00    +0.075 C 
BRANCH  21  22
ATOM     22  C   LIG    1        4.584  -1.425  -0.684  0.00  0.00    +0.108 A 
ATOM     23  N   LIG    1        5.164  -1.369   0.519  0.00  0.00    -0.342 N 
ATOM     24  H   LIG    1        4.752  -1.783   1.387  0.00  0.00    +0.167 HD
ATOM     25  C   LIG    1        6.334  -0.711   0.437  0.00  0.00    +0.066 A 
ATOM     26  C   LIG    1        7.318  -0.371   1.355  0.00  0.00    +0.028 A 
ATOM     27  C   LIG    1        8.440   0.328   0.967  0.00  0.00    +0.002 A 
ATOM     28  C   LIG    1        8.607   0.703  -0.344  0.00  0.00    +0.002 A 
ATOM     29  C   LIG    1        7.621   0.358  -1.250  0.00  0.00    +0.030 A 
ATOM     30  C   LIG    1        6.486  -0.341  -0.895  0.00  0.00    +0.089 A 
ATOM     31  N   LIG    1        5.408  -0.790  -1.539  0.00  0.00    -0.232 NA
ENDBRANCH  21  22
ENDBRANCH  20  21
ENDBRANCH  19  20
ENDBRANCH  17  19
ENDBRANCH  16  17
ENDBRANCH  15  16
ENDBRANCH   1  15
BRANCH   1  32
ATOM     32  O   LIG    1       -2.654   1.554   0.365  0.00  0.00    -0.456 OA
BRANCH  32  33
ATOM     33  C   LIG    1       -2.413   2.813  -0.087  0.00  0.00    +0.334 C 
ATOM     34  O   LIG    1       -1.914   2.962  -1.205  0.00  0.00    -0.248 OA
BRANCH  33  35
ATOM     35  C   LIG    1       -2.735   4.001   0.728  0.00  0.00    +0.279 C 
BRANCH  35  36
ATOM     36  O   LIG    1       -2.410   5.173   0.050  0.00  0.00    -0.372 OA
ATOM     37  C   LIG    1       -2.700   6.292   0.800  0.00  0.00    +0.194 C 
ENDBRANCH  35  36
ENDBRANCH  33  35
ENDBRANCH  32  33
ENDBRANCH   1  32
TORSDOF 12
