REMARK  Name = molecules/HCCUQCPVNVAHMV-CSBHBGLHSA-N.pdb
REMARK                            x       y       z     vdW  Elec       q    Type
REMARK                         _______ _______ _______ _____ _____    ______ ____
ROOT
ATOM      1  S   LIG    1       -0.168   2.185   2.156  0.00  0.00    +0.025 S 
ATOM      2  O   LIG    1       -0.380   1.964   3.624  0.00  0.00    -0.164 OA
ATOM      3  O   LIG    1        0.000   3.655   1.880  0.00  0.00    -0.164 OA
ENDROOT
BRANCH   1   7
ATOM      4  C   LIG    1        3.469  -0.331   1.015  0.00  0.00    +0.029 A 
ATOM      5  C   LIG    1        2.591  -0.687   2.062  0.00  0.00    +0.025 A 
ATOM      6  C   LIG    1        1.526   0.111   2.347  0.00  0.00    +0.029 A 
ATOM      7  C   LIG    1        1.239   1.267   1.671  0.00  0.00    +0.094 A 
ATOM      8  C   LIG    1        2.064   1.642   0.656  0.00  0.00    +0.029 A 
ATOM      9  C   LIG    1        3.162   0.833   0.351  0.00  0.00    +0.025 A 
BRANCH   4  10
ATOM     10  N   LIG    1        4.552  -1.186   0.776  0.00  0.00    -0.321 N 
ATOM     11  H   LIG    1        4.538  -2.109   1.347  0.00  0.00    +0.148 HD
BRANCH  10  12
ATOM     12  C   LIG    1        5.685  -1.084  -0.095  0.00  0.00    +0.246 C 
BRANCH  12  13
ATOM     13  S   LIG    1        5.254  -1.405  -1.756  0.00  0.00    +0.099 S 
ATOM     14  O   LIG    1        4.392  -2.680  -1.756  0.00  0.00    -0.146 OA
ATOM     15  O   LIG    1        6.423  -1.764  -2.637  0.00  0.00    -0.146 OA
BRANCH  13  16
ATOM     16  O   LIG    1        4.360  -0.245  -2.514  0.00  0.00    -0.252 OA
ATOM     17  H   LIG    1        4.919   0.437  -2.995  0.00  0.00    +0.245 HD
ENDBRANCH  13  16
ENDBRANCH  12  13
BRANCH  12  18
ATOM     18  C   LIG    1        6.470   0.137   0.191  0.00  0.00    +0.082 C 
BRANCH  18  19
ATOM     19  C   LIG    1        7.703   0.340  -0.652  0.00  0.00    +0.193 C 
BRANCH  19  20
ATOM     20  C   LIG    1        8.704  -0.728  -0.518  0.00  0.00    -0.021 A 
ATOM     21  C   LIG    1        9.031  -1.340   0.672  0.00  0.00    +0.005 A 
ATOM     22  C   LIG    1        9.992  -2.352   0.753  0.00  0.00    +0.000 A 
ATOM     23  C   LIG    1       10.644  -2.763  -0.386  0.00  0.00    +0.000 A 
ATOM     24  C   LIG    1       10.339  -2.169  -1.592  0.00  0.00    +0.000 A 
ATOM     25  C   LIG    1        9.387  -1.177  -1.628  0.00  0.00    +0.005 A 
ENDBRANCH  19  20
BRANCH  19  26
ATOM     26  S   LIG    1        8.400   1.907  -0.067  0.00  0.00    +0.087 S 
ATOM     27  O   LIG    1        8.642   1.838   1.419  0.00  0.00    -0.147 OA
ATOM     28  O   LIG    1        9.617   2.268  -0.831  0.00  0.00    -0.147 OA
BRANCH  26  29
ATOM     29  O   LIG    1        7.185   3.052  -0.307  0.00  0.00    -0.253 OA
ATOM     30  H   LIG    1        7.022   3.185  -1.294  0.00  0.00    +0.244 HD
ENDBRANCH  26  29
ENDBRANCH  19  26
ENDBRANCH  18  19
ENDBRANCH  12  18
ENDBRANCH  10  12
ENDBRANCH   4  10
ENDBRANCH   1   7
BRANCH   1  31
ATOM     31  C   LIG    1       -1.520   1.586   1.207  0.00  0.00    +0.094 A 
ATOM     32  C   LIG    1       -2.274   0.539   1.692  0.00  0.00    +0.029 A 
ATOM     33  C   LIG    1       -3.344   0.083   0.914  0.00  0.00    +0.025 A 
ATOM     34  C   LIG    1       -3.663   0.639  -0.304  0.00  0.00    +0.029 A 
ATOM     35  C   LIG    1       -2.889   1.701  -0.785  0.00  0.00    +0.025 A 
ATOM     36  C   LIG    1       -1.845   2.138  -0.015  0.00  0.00    +0.029 A 
BRANCH  34  37
ATOM     37  N   LIG    1       -4.766   0.152  -1.059  0.00  0.00    -0.321 N 
ATOM     38  H   LIG    1       -4.553  -0.725  -1.619  0.00  0.00    +0.148 HD
BRANCH  37  39
ATOM     39  C   LIG    1       -6.036   0.792  -1.054  0.00  0.00    +0.246 C 
BRANCH  39  40
ATOM     40  S   LIG    1       -5.988   2.508  -1.562  0.00  0.00    +0.099 S 
ATOM     41  O   LIG    1       -7.418   3.039  -1.519  0.00  0.00    -0.146 OA
ATOM     42  O   LIG    1       -5.526   2.687  -2.954  0.00  0.00    -0.146 OA
BRANCH  40  43
ATOM     43  O   LIG    1       -5.142   3.365  -0.419  0.00  0.00    -0.252 OA
ATOM     44  H   LIG    1       -5.272   4.350  -0.494  0.00  0.00    +0.245 HD
ENDBRANCH  40  43
ENDBRANCH  39  40
BRANCH  39  45
ATOM     45  C   LIG    1       -6.782   0.770   0.239  0.00  0.00    +0.082 C 
BRANCH  45  46
ATOM     46  C   LIG    1       -7.118  -0.594   0.762  0.00  0.00    +0.193 C 
BRANCH  46  47
ATOM     47  C   LIG    1       -8.041  -1.320  -0.182  0.00  0.00    -0.021 A 
ATOM     48  C   LIG    1       -9.227  -0.762  -0.593  0.00  0.00    +0.005 A 
ATOM     49  C   LIG    1      -10.089  -1.411  -1.458  0.00  0.00    +0.000 A 
ATOM     50  C   LIG    1       -9.732  -2.665  -1.919  0.00  0.00    +0.000 A 
ATOM     51  C   LIG    1       -8.559  -3.244  -1.526  0.00  0.00    +0.000 A 
ATOM     52  C   LIG    1       -7.701  -2.571  -0.650  0.00  0.00    +0.005 A 
ENDBRANCH  46  47
BRANCH  46  53
ATOM     53  S   LIG    1       -7.999  -0.354   2.306  0.00  0.00    +0.087 S 
ATOM     54  O   LIG    1       -7.054   0.446   3.192  0.00  0.00    -0.147 OA
ATOM     55  O   LIG    1       -8.269  -1.634   3.001  0.00  0.00    -0.147 OA
BRANCH  53  56
ATOM     56  O   LIG    1       -9.355   0.587   2.080  0.00  0.00    -0.253 OA
ATOM     57  H   LIG    1       -9.399   1.370   2.694  0.00  0.00    +0.244 HD
ENDBRANCH  53  56
ENDBRANCH  46  53
ENDBRANCH  45  46
ENDBRANCH  39  45
ENDBRANCH  37  39
ENDBRANCH  34  37
ENDBRANCH   1  31
TORSDOF 20
