REMARK  Name = molecules/HCFSGRMEEXUOSS-JXEXPEPMSA-N.pdb
REMARK                            x       y       z     vdW  Elec       q    Type
REMARK                         _______ _______ _______ _____ _____    ______ ____
ROOT
ATOM      1  C   LIG    1        1.890   1.403  -0.893  0.00  0.00    +0.012 C 
ATOM      2  C   LIG    1        1.894  -0.048  -0.555  0.00  0.00    -0.017 C 
ATOM      3  C   LIG    1        1.133  -0.391   0.710  0.00  0.00    +0.003 C 
ATOM      4  C   LIG    1        2.122  -0.081   1.758  0.00  0.00    +0.005 C 
ATOM      5  C   LIG    1        3.299  -0.883   1.245  0.00  0.00    +0.015 C 
ATOM      6  C   LIG    1       -0.145   0.329   0.708  0.00  0.00    +0.020 C 
ATOM      7  C   LIG    1       -0.874   0.292   1.999  0.00  0.00    -0.019 C 
ATOM      8  C   LIG    1       -2.178   0.184   2.096  0.00  0.00    -0.050 C 
ATOM      9  C   LIG    1       -2.787   0.159   3.447  0.00  0.00    +0.044 C 
ATOM     10  C   LIG    1       -2.999   0.091   0.904  0.00  0.00    -0.035 C 
ATOM     11  C   LIG    1       -4.302  -0.057   1.053  0.00  0.00    +0.050 C 
ATOM     12  C   LIG    1       -5.191  -0.159  -0.095  0.00  0.00    +0.156 C 
ATOM     13  O   LIG    1       -6.433  -0.179   0.101  0.00  0.00    -0.293 OA
ATOM     14  C   LIG    1       -4.627  -0.236  -1.447  0.00  0.00    +0.080 C 
ATOM     15  C   LIG    1       -3.184  -0.726  -1.349  0.00  0.00    +0.019 C 
ATOM     16  C   LIG    1       -2.360   0.164  -0.459  0.00  0.00    -0.003 C 
ATOM     17  C   LIG    1       -2.427   1.558  -0.994  0.00  0.00    +0.016 C 
ATOM     18  C   LIG    1       -0.981  -0.383  -0.366  0.00  0.00    +0.006 C 
ATOM     19  C   LIG    1       -0.291  -0.399  -1.682  0.00  0.00    +0.005 C 
ATOM     20  C   LIG    1        3.232  -0.623  -0.268  0.00  0.00    +0.032 C 
ATOM     21  C   LIG    1        3.375  -1.994  -0.958  0.00  0.00    +0.019 C 
ATOM     22  C   LIG    1        1.142  -0.795  -1.644  0.00  0.00    +0.008 C 
ENDROOT
BRANCH  20  23
ATOM     23  C   LIG    1        4.378   0.195  -0.682  0.00  0.00    +0.137 C 
ATOM     24  C   LIG    1        4.756   1.533  -0.179  0.00  0.00    +0.086 C 
ATOM     25  O   LIG    1        5.140  -0.260  -1.556  0.00  0.00    -0.297 OA
ENDBRANCH  20  23
TORSDOF 1
