REMARK  Name = molecules/HCRKCZRJWPKOAR-JTQLQIEISA-N.pdb
REMARK                            x       y       z     vdW  Elec       q    Type
REMARK                         _______ _______ _______ _____ _____    ______ ____
ROOT
ATOM      1  O   LIG    1       -0.269  -0.326  -2.686  0.00  0.00    -0.152 OA
ATOM      2  S   LIG    1        0.230   0.381  -1.458  0.00  0.00    +0.068 S 
ATOM      3  N   LIG    1        0.965  -0.715  -0.358  0.00  0.00    -0.174 NA
ATOM      4  C   LIG    1        0.036  -1.170   0.657  0.00  0.00    +0.133 C 
ATOM      5  C   LIG    1       -1.402  -1.063   0.299  0.00  0.00    +0.102 C 
ATOM      6  C   LIG    1       -1.854   0.378   0.252  0.00  0.00    +0.006 A 
ATOM      7  C   LIG    1       -2.865   0.987   0.903  0.00  0.00    +0.043 A 
ATOM      8  C   LIG    1       -3.050   2.321   0.667  0.00  0.00    +0.144 A 
ATOM      9  S   LIG    1       -1.818   2.691  -0.449  0.00  0.00    -0.048 S 
ATOM     10  C   LIG    1       -1.103   1.152  -0.588  0.00  0.00    +0.149 A 
ATOM     11  O   LIG    1        1.141   1.467  -1.906  0.00  0.00    -0.152 OA
ENDROOT
BRANCH   8  12
ATOM     12  S   LIG    1       -4.246   3.431   1.329  0.00  0.00    +0.062 S 
ATOM     13  O   LIG    1       -5.118   2.733   2.331  0.00  0.00    -0.153 OA
ATOM     14  O   LIG    1       -3.580   4.566   2.051  0.00  0.00    -0.153 OA
BRANCH  12  15
ATOM     15  N   LIG    1       -5.145   4.073   0.022  0.00  0.00    -0.203 NA
ATOM     16  H   LIG    1       -5.841   4.735   0.392  0.00  0.00    +0.144 HD
ATOM     17  H   LIG    1       -5.523   3.307  -0.563  0.00  0.00    +0.144 HD
ENDBRANCH  12  15
ENDBRANCH   8  12
BRANCH   5  18
ATOM     18  N   LIG    1       -1.781  -1.673  -0.938  0.00  0.00    -0.308 NA
ATOM     19  H   LIG    1       -2.778  -1.416  -1.121  0.00  0.00    +0.123 HD
BRANCH  18  20
ATOM     20  C   LIG    1       -1.574  -3.102  -0.958  0.00  0.00    +0.078 C 
ATOM     21  C   LIG    1       -2.515  -3.826  -0.018  0.00  0.00    +0.020 C 
ENDBRANCH  18  20
ENDBRANCH   5  18
BRANCH   3  22
ATOM     22  C   LIG    1        2.097  -0.139   0.330  0.00  0.00    +0.112 C 
BRANCH  22  23
ATOM     23  C   LIG    1        3.395  -0.312  -0.411  0.00  0.00    +0.045 C 
BRANCH  23  24
ATOM     24  C   LIG    1        4.490   0.335   0.413  0.00  0.00    +0.161 C 
BRANCH  24  25
ATOM     25  O   LIG    1        5.714   0.181  -0.273  0.00  0.00    -0.383 OA
ATOM     26  C   LIG    1        6.758   0.756   0.434  0.00  0.00    +0.193 C 
ENDBRANCH  24  25
ENDBRANCH  23  24
ENDBRANCH  22  23
ENDBRANCH   3  22
TORSDOF 8
