REMARK  Name = molecules/HDACQVRGBOVJII-JBDAPHQKSA-N.pdb
REMARK                            x       y       z     vdW  Elec       q    Type
REMARK                         _______ _______ _______ _____ _____    ______ ____
ROOT
ATOM      1  CA  ALA A  1       -0.600   0.860   0.843  0.00  0.00    +0.138 C 
ATOM      2  CB  ALA A  1       -1.047   1.727   1.973  0.00  0.00    +0.034 C 
ENDROOT
BRANCH   1   3
ATOM      3  C   ALA A  1       -1.623   0.228   0.020  0.00  0.00    +0.233 C 
ATOM      4  N   UNK A  2       -2.989  -0.008   0.230  0.00  0.00    -0.283 N 
ATOM      5  C   UNK A  2       -3.823   0.338   1.328  0.00  0.00    +0.185 C 
ATOM      6  C   UNK A  2       -5.214   0.519   0.733  0.00  0.00    +0.039 C 
ATOM      7  C   UNK A  2       -5.224  -0.435  -0.410  0.00  0.00    +0.012 C 
ATOM      8  C   UNK A  2       -5.781  -1.784  -0.050  0.00  0.00    +0.005 C 
ATOM      9  C   UNK A  2       -5.066  -2.707  -1.026  0.00  0.00    +0.002 C 
ATOM     10  C   UNK A  2       -3.621  -2.188  -0.792  0.00  0.00    +0.023 C 
ATOM     11  C   UNK A  2       -3.809  -0.696  -0.789  0.00  0.00    +0.080 C 
ATOM     12  O   ALA A  1       -1.182  -0.201  -1.143  0.00  0.00    -0.274 OA
BRANCH   5  13
ATOM     13  C   UNK A  2       -3.800  -0.535   2.494  0.00  0.00    +0.325 C 
ATOM     14  O   UNK A  2       -4.644  -0.391   3.407  0.00  0.00    -0.249 OA
BRANCH  13  15
ATOM     15  O   UNK A  2       -2.850  -1.532   2.613  0.00  0.00    -0.479 OA
ATOM     16  H   UNK A  2       -2.940  -2.238   3.330  0.00  0.00    +0.295 HD
ENDBRANCH  13  15
ENDBRANCH   5  13
ENDBRANCH   1   3
BRANCH   1  17
ATOM     17  N   ALA A  1        0.275   1.627   0.022  0.00  0.00    -0.294 NA
ATOM     18  H   ALA A  1       -0.078   2.581  -0.148  0.00  0.00    +0.123 HD
BRANCH  17  19
ATOM     19  C   UNK A  0        1.664   1.607   0.301  0.00  0.00    +0.164 C 
BRANCH  19  20
ATOM     20  C   UNK A  0        2.311   2.680  -0.551  0.00  0.00    +0.324 C 
ATOM     21  O   UNK A  0        1.573   3.390  -1.312  0.00  0.00    -0.249 OA
BRANCH  20  22
ATOM     22  O   UNK A  0        3.649   2.953  -0.569  0.00  0.00    -0.464 OA
BRANCH  22  23
ATOM     23  C   UNK A  0        4.291   3.924  -1.339  0.00  0.00    +0.229 C 
ATOM     24  C   UNK A  0        4.155   3.781  -2.814  0.00  0.00    +0.048 C 
ENDBRANCH  22  23
ENDBRANCH  20  22
ENDBRANCH  19  20
BRANCH  19  25
ATOM     25  C   UNK A  0        2.265   0.263   0.097  0.00  0.00    +0.035 C 
BRANCH  25  26
ATOM     26  C   UNK A  0        3.731   0.168   0.399  0.00  0.00    +0.037 C 
BRANCH  26  27
ATOM     27  C   UNK A  0        4.162  -1.242   0.119  0.00  0.00    -0.047 A 
ATOM     28  C   UNK A  0        4.122  -2.240   1.061  0.00  0.00    +0.003 A 
ATOM     29  C   UNK A  0        4.550  -3.542   0.761  0.00  0.00    +0.000 A 
ATOM     30  C   UNK A  0        5.016  -3.829  -0.499  0.00  0.00    +0.000 A 
ATOM     31  C   UNK A  0        5.071  -2.838  -1.486  0.00  0.00    +0.000 A 
ATOM     32  C   UNK A  0        4.645  -1.590  -1.147  0.00  0.00    +0.003 A 
ENDBRANCH  26  27
ENDBRANCH  25  26
ENDBRANCH  19  25
ENDBRANCH  17  19
ENDBRANCH   1  17
TORSDOF 11
