REMARK  Name = molecules/HDDSHPAODJUKPD-UHFFFAOYSA-N.pdb
REMARK                            x       y       z     vdW  Elec       q    Type
REMARK                         _______ _______ _______ _____ _____    ______ ____
ROOT
ATOM      1  C   LIG    1        1.169  -1.068   1.186  0.00  0.00    +0.015 A 
ATOM      2  C   LIG    1        0.022  -0.312   1.064  0.00  0.00    +0.045 A 
ATOM      3  C   LIG    1       -1.098  -0.804   0.401  0.00  0.00    +0.092 A 
ATOM      4  N   LIG    1       -2.300  -0.263   0.162  0.00  0.00    -0.214 NA
ATOM      5  C   LIG    1       -3.043  -1.146  -0.524  0.00  0.00    +0.203 A 
ATOM      6  N   LIG    1       -2.297  -2.247  -0.715  0.00  0.00    -0.326 N 
ATOM      7  H   LIG    1       -2.568  -3.125  -1.211  0.00  0.00    +0.169 HD
ATOM      8  C   LIG    1       -1.103  -2.064  -0.158  0.00  0.00    +0.068 A 
ATOM      9  C   LIG    1        0.055  -2.831  -0.037  0.00  0.00    +0.029 A 
ATOM     10  C   LIG    1        1.155  -2.328   0.624  0.00  0.00    +0.017 A 
ENDROOT
BRANCH   5  11
ATOM     11  N   LIG    1       -4.396  -0.983  -0.991  0.00  0.00    -0.221 N 
ATOM     12  C   LIG    1       -5.038   0.232  -0.709  0.00  0.00    +0.406 C 
ATOM     13  O   LIG    1       -6.233   0.390  -1.115  0.00  0.00    -0.226 OA
ATOM     14  H   LIG    1       -4.868  -1.746  -1.516  0.00  0.00    +0.161 HD
BRANCH  12  15
ATOM     15  O   LIG    1       -4.447   1.274  -0.013  0.00  0.00    -0.453 OA
ATOM     16  C   LIG    1       -5.190   2.450   0.212  0.00  0.00    +0.282 C 
ENDBRANCH  12  15
ENDBRANCH   5  11
BRANCH   1  17
ATOM     17  S   LIG    1        2.617  -0.439   2.041  0.00  0.00    -0.089 S 
BRANCH  17  18
ATOM     18  C   LIG    1        3.705   0.416   0.932  0.00  0.00    +0.013 A 
ATOM     19  C   LIG    1        3.586   1.758   0.700  0.00  0.00    +0.015 A 
ATOM     20  C   LIG    1        4.442   2.432  -0.172  0.00  0.00    +0.001 A 
ATOM     21  C   LIG    1        5.407   1.681  -0.784  0.00  0.00    +0.000 A 
ATOM     22  C   LIG    1        5.554   0.327  -0.571  0.00  0.00    +0.001 A 
ATOM     23  C   LIG    1        4.699  -0.313   0.293  0.00  0.00    +0.015 A 
ENDBRANCH  17  18
ENDBRANCH   1  17
TORSDOF 4
