REMARK  Name = molecules/HDOVUKNUBWVHOX-QMMMGPOBSA-N.pdb
REMARK                            x       y       z     vdW  Elec       q    Type
REMARK                         _______ _______ _______ _____ _____    ______ ____
ROOT
ATOM      1  C   LIG    1        1.552   0.917   0.204  0.00  0.00    +0.287 C 
ENDROOT
BRANCH   1   2
ATOM      2  N   LIG    1        2.702   0.233   0.799  0.00  0.00    -0.291 N 
ATOM      3  C   LIG    1        2.723  -0.700   1.758  0.00  0.00    +0.203 A 
ATOM      4  N   LIG    1        3.983  -1.082   2.033  0.00  0.00    -0.229 NA
ATOM      5  C   LIG    1        4.794  -0.377   1.229  0.00  0.00    +0.172 A 
ATOM      6  C   LIG    1        6.169  -0.343   1.063  0.00  0.00    +0.280 A 
ATOM      7  O   LIG    1        6.922  -1.077   1.749  0.00  0.00    -0.265 OA
ATOM      8  N   LIG    1        6.738   0.476   0.165  0.00  0.00    -0.293 N 
ATOM      9  H   LIG    1        7.783   0.516   0.026  0.00  0.00    +0.172 HD
ATOM     10  C   LIG    1        5.938   1.273  -0.581  0.00  0.00    +0.195 A 
ATOM     11  N   LIG    1        4.594   1.251  -0.430  0.00  0.00    -0.196 NA
ATOM     12  C   LIG    1        3.992   0.439   0.464  0.00  0.00    +0.171 A 
BRANCH  10  13
ATOM     13  N   LIG    1        6.565   2.123  -1.516  0.00  0.00    -0.329 N 
ATOM     14  H   LIG    1        6.154   3.048  -1.719  0.00  0.00    +0.145 HD
ATOM     15  H   LIG    1        7.428   1.829  -1.998  0.00  0.00    +0.145 HD
ENDBRANCH  10  13
ENDBRANCH   1   2
BRANCH   1  16
ATOM     16  O   LIG    1        1.042   0.285  -0.886  0.00  0.00    -0.356 OA
BRANCH  16  17
ATOM     17  C   LIG    1        0.572  -0.973  -0.733  0.00  0.00    +0.203 C 
BRANCH  17  18
ATOM     18  C   LIG    1       -0.552  -1.153   0.229  0.00  0.00    +0.260 C 
BRANCH  18  19
ATOM     19  O   LIG    1       -1.704  -0.384  -0.150  0.00  0.00    -0.461 OA
BRANCH  19  20
ATOM     20  C   LIG    1       -2.861  -0.409   0.611  0.00  0.00    +0.324 C 
ATOM     21  O   LIG    1       -2.894  -1.118   1.646  0.00  0.00    -0.249 OA
BRANCH  20  22
ATOM     22  C   LIG    1       -4.071   0.367   0.258  0.00  0.00    +0.163 C 
BRANCH  22  24
ATOM     23  C   LIG    1       -6.454   0.387  -0.269  0.00  0.00    +0.009 C 
ATOM     24  C   LIG    1       -5.282  -0.514   0.055  0.00  0.00    +0.010 C 
ATOM     25  C   LIG    1       -5.092  -1.457  -1.120  0.00  0.00    +0.009 C 
ENDBRANCH  22  24
BRANCH  22  26
ATOM     26  N   LIG    1       -3.826   1.104  -0.951  0.00  0.00    -0.318 NA
ATOM     27  H   LIG    1       -3.688   2.135  -0.735  0.00  0.00    +0.119 HD
ATOM     28  H   LIG    1       -2.946   0.748  -1.420  0.00  0.00    +0.119 HD
ENDBRANCH  22  26
ENDBRANCH  20  22
ENDBRANCH  19  20
ENDBRANCH  18  19
ENDBRANCH  17  18
ENDBRANCH  16  17
ENDBRANCH   1  16
TORSDOF 10
