REMARK  Name = molecules/HDWIHXWEUNVBIY-CQSZACIVSA-N.pdb
REMARK                            x       y       z     vdW  Elec       q    Type
REMARK                         _______ _______ _______ _____ _____    ______ ____
ROOT
ATOM      1  O   LIG    1       -0.089   2.913   0.194  0.00  0.00    -0.153 OA
ATOM      2  S   LIG    1       -0.061   1.631   1.013  0.00  0.00    +0.062 S 
ATOM      3  O   LIG    1       -0.171   2.065   2.454  0.00  0.00    -0.153 OA
ATOM      4  N   LIG    1        1.435   0.871   0.775  0.00  0.00    -0.170 NA
ATOM      5  H   LIG    1        2.139   1.235   1.458  0.00  0.00    +0.150 HD
ATOM      6  C   LIG    1        1.447  -0.516   0.652  0.00  0.00    +0.164 C 
ATOM      7  N   LIG    1        0.234  -1.238   0.646  0.00  0.00    -0.326 N 
ATOM      8  H   LIG    1        0.312  -2.285   0.849  0.00  0.00    +0.148 HD
ATOM      9  C   LIG    1       -1.065  -0.773   0.409  0.00  0.00    +0.056 A 
ATOM     10  C   LIG    1       -2.091  -1.617   0.037  0.00  0.00    +0.039 A 
ATOM     11  C   LIG    1       -3.389  -1.150  -0.201  0.00  0.00    +0.083 A 
ATOM     12  C   LIG    1       -3.616   0.183  -0.052  0.00  0.00    +0.119 A 
ATOM     13  C   LIG    1       -2.574   1.039   0.326  0.00  0.00    +0.059 A 
ATOM     14  C   LIG    1       -1.335   0.563   0.548  0.00  0.00    +0.128 A 
ENDROOT
BRANCH  11  15
ATOM     15  C   LIG    1       -4.428  -2.135  -0.598  0.00  0.00    +0.419 C 
ATOM     16  F   LIG    1       -5.467  -2.207   0.309  0.00  0.00    -0.166 F 
ATOM     17  F   LIG    1       -3.872  -3.408  -0.653  0.00  0.00    -0.166 F 
ATOM     18  F   LIG    1       -4.895  -1.884  -1.881  0.00  0.00    -0.166 F 
ENDBRANCH  11  15
BRANCH  12  19
ATOM     19  S   LIG    1       -5.222   0.814  -0.337  0.00  0.00    +0.057 S 
ATOM     20  O   LIG    1       -6.192   0.253   0.680  0.00  0.00    -0.153 OA
ATOM     21  O   LIG    1       -5.691   0.565  -1.741  0.00  0.00    -0.153 OA
BRANCH  19  22
ATOM     22  N   LIG    1       -5.191   2.535  -0.058  0.00  0.00    -0.203 NA
ATOM     23  H   LIG    1       -4.733   2.662   0.877  0.00  0.00    +0.144 HD
ATOM     24  H   LIG    1       -4.559   2.941  -0.792  0.00  0.00    +0.144 HD
ENDBRANCH  19  22
ENDBRANCH  12  19
BRANCH   6  25
ATOM     25  C   LIG    1        2.183  -0.880  -0.648  0.00  0.00    +0.075 C 
BRANCH  25  26
ATOM     26  C   LIG    1        3.574  -0.385  -0.636  0.00  0.00    -0.044 A 
ATOM     27  C   LIG    1        4.580  -1.186  -0.137  0.00  0.00    +0.004 A 
ATOM     28  C   LIG    1        5.878  -0.695  -0.138  0.00  0.00    +0.000 A 
ATOM     29  C   LIG    1        6.172   0.564  -0.624  0.00  0.00    +0.000 A 
ATOM     30  C   LIG    1        5.129   1.325  -1.112  0.00  0.00    +0.000 A 
ATOM     31  C   LIG    1        3.822   0.885  -1.135  0.00  0.00    +0.004 A 
ENDBRANCH  25  26
ENDBRANCH   6  25
TORSDOF 5
