REMARK  Name = molecules/HDZAQYPYABGTCL-UHFFFAOYSA-N.pdb
REMARK                            x       y       z     vdW  Elec       q    Type
REMARK                         _______ _______ _______ _____ _____    ______ ____
ROOT
ATOM      1  C   LIG    1        0.683   2.003  -0.056  0.00  0.00    -0.002 C 
ENDROOT
BRANCH   1   2
ATOM      2  C   LIG    1        0.884   0.861  -0.939  0.00  0.00    -0.018 C 
BRANCH   2   3
ATOM      3  C   LIG    1        2.282   0.359  -1.138  0.00  0.00    -0.075 C 
BRANCH   3   4
ATOM      4  N   LIG    1        3.032  -0.090  -0.037  0.00  0.00    +0.384 N 
ATOM      5  C   LIG    1        3.514   0.947   0.838  0.00  0.00    -0.091 C 
ATOM      6  C   LIG    1        2.235  -1.080   0.698  0.00  0.00    -0.091 C 
BRANCH   4   7
ATOM      7  C   LIG    1        4.202  -0.832  -0.504  0.00  0.00    -0.003 C 
ATOM      8  C   LIG    1        5.204  -0.953   0.597  0.00  0.00    -0.049 A 
ATOM      9  C   LIG    1        5.119  -1.489   1.890  0.00  0.00    +0.003 A 
ATOM     10  C   LIG    1        6.215  -1.440   2.703  0.00  0.00    +0.000 A 
ATOM     11  C   LIG    1        7.416  -0.896   2.340  0.00  0.00    +0.001 A 
ATOM     12  C   LIG    1        7.479  -0.372   1.056  0.00  0.00    +0.009 A 
ATOM     13  C   LIG    1        6.386  -0.397   0.183  0.00  0.00    -0.016 A 
ATOM     14  C   LIG    1        6.271   0.071  -1.192  0.00  0.00    -0.016 A 
ATOM     15  C   LIG    1        7.216   0.651  -1.994  0.00  0.00    +0.009 A 
ATOM     16  C   LIG    1        6.870   0.965  -3.290  0.00  0.00    +0.001 A 
ATOM     17  C   LIG    1        5.596   0.685  -3.725  0.00  0.00    +0.000 A 
ATOM     18  C   LIG    1        4.651   0.098  -2.901  0.00  0.00    +0.003 A 
ATOM     19  C   LIG    1        4.962  -0.228  -1.597  0.00  0.00    -0.049 A 
ENDBRANCH   4   7
ENDBRANCH   3   4
ENDBRANCH   2   3
ENDBRANCH   1   2
BRANCH   1  20
ATOM     20  C   LIG    1       -0.705   2.488   0.140  0.00  0.00    -0.002 C 
BRANCH  20  21
ATOM     21  C   LIG    1       -1.726   1.706   0.831  0.00  0.00    -0.018 C 
BRANCH  21  22
ATOM     22  C   LIG    1       -2.102   0.364   0.340  0.00  0.00    -0.075 C 
BRANCH  22  23
ATOM     23  N   LIG    1       -3.224  -0.208   1.101  0.00  0.00    +0.384 N 
ATOM     24  C   LIG    1       -2.901  -0.148   2.503  0.00  0.00    -0.091 C 
ATOM     25  C   LIG    1       -3.305  -1.610   0.741  0.00  0.00    -0.091 C 
BRANCH  23  26
ATOM     26  C   LIG    1       -4.478   0.478   0.861  0.00  0.00    -0.003 C 
ATOM     27  C   LIG    1       -5.546  -0.426   1.377  0.00  0.00    -0.049 A 
ATOM     28  C   LIG    1       -5.878  -0.823   2.675  0.00  0.00    +0.003 A 
ATOM     29  C   LIG    1       -6.908  -1.727   2.831  0.00  0.00    +0.000 A 
ATOM     30  C   LIG    1       -7.619  -2.252   1.794  0.00  0.00    +0.001 A 
ATOM     31  C   LIG    1       -7.287  -1.855   0.524  0.00  0.00    +0.009 A 
ATOM     32  C   LIG    1       -6.259  -0.949   0.343  0.00  0.00    -0.016 A 
ATOM     33  C   LIG    1       -5.762  -0.308  -0.894  0.00  0.00    -0.016 A 
ATOM     34  C   LIG    1       -6.205  -0.451  -2.204  0.00  0.00    +0.009 A 
ATOM     35  C   LIG    1       -5.672   0.285  -3.225  0.00  0.00    +0.001 A 
ATOM     36  C   LIG    1       -4.684   1.175  -2.924  0.00  0.00    +0.000 A 
ATOM     37  C   LIG    1       -4.239   1.318  -1.613  0.00  0.00    +0.003 A 
ATOM     38  C   LIG    1       -4.766   0.584  -0.586  0.00  0.00    -0.049 A 
ENDBRANCH  23  26
ENDBRANCH  22  23
ENDBRANCH  21  22
ENDBRANCH  20  21
ENDBRANCH   1  20
TORSDOF 9
