REMARK  Name = molecules/HEMJJKBWTPKOJG-UHFFFAOYSA-N.pdb
REMARK                            x       y       z     vdW  Elec       q    Type
REMARK                         _______ _______ _______ _____ _____    ______ ____
ROOT
ATOM      1  C   LIG    1        0.101  -0.832  -1.454  0.00  0.00    +0.229 C 
ENDROOT
BRANCH   1   2
ATOM      2  O   LIG    1       -1.096  -1.412  -1.170  0.00  0.00    -0.492 OA
BRANCH   2   3
ATOM      3  C   LIG    1       -2.180  -0.886  -0.531  0.00  0.00    +0.124 A 
ATOM      4  C   LIG    1       -2.274   0.393  -0.059  0.00  0.00    +0.049 A 
ATOM      5  C   LIG    1       -3.415   0.835   0.573  0.00  0.00    -0.047 A 
ATOM      6  C   LIG    1       -3.459   2.241   1.068  0.00  0.00    +0.044 C 
ATOM      7  C   LIG    1       -4.470  -0.021   0.730  0.00  0.00    +0.004 A 
ATOM      8  C   LIG    1       -4.386  -1.306   0.259  0.00  0.00    +0.007 A 
ATOM      9  C   LIG    1       -3.270  -1.756  -0.365  0.00  0.00    -0.009 A 
ATOM     10  C   LIG    1       -3.151  -3.155  -0.889  0.00  0.00    +0.047 C 
ENDBRANCH   2   3
ENDBRANCH   1   2
BRANCH   1  11
ATOM     11  C   LIG    1        0.972  -0.430  -0.283  0.00  0.00    +0.042 C 
BRANCH  11  12
ATOM     12  C   LIG    1        2.212   0.189  -0.879  0.00  0.00    +0.021 C 
BRANCH  12  13
ATOM     13  C   LIG    1        3.219   0.668   0.094  0.00  0.00    +0.062 C 
ATOM     14  C   LIG    1        2.729   1.816   0.951  0.00  0.00    +0.022 C 
ATOM     15  C   LIG    1        4.383   1.242  -0.727  0.00  0.00    +0.022 C 
BRANCH  13  16
ATOM     16  C   LIG    1        3.786  -0.338   0.991  0.00  0.00    +0.310 C 
ATOM     17  O   LIG    1        3.466  -1.544   0.895  0.00  0.00    -0.250 OA
BRANCH  16  18
ATOM     18  O   LIG    1        4.704  -0.026   1.993  0.00  0.00    -0.480 OA
ATOM     19  H   LIG    1        4.903  -0.613   2.769  0.00  0.00    +0.295 HD
ENDBRANCH  16  18
ENDBRANCH  13  16
ENDBRANCH  12  13
ENDBRANCH  11  12
ENDBRANCH   1  11
TORSDOF 7
