REMARK  Name = molecules/HEOCBCNFKCOKBX-RELGSGGGSA-N.pdb
REMARK                            x       y       z     vdW  Elec       q    Type
REMARK                         _______ _______ _______ _____ _____    ______ ____
ROOT
ATOM      1  C   LIG    1       -1.888  -1.084   1.216  0.00  0.00    +0.166 C 
ATOM      2  O   LIG    1       -2.179  -1.790   2.183  0.00  0.00    -0.292 OA
ATOM      3  C   LIG    1       -0.500  -0.699   0.824  0.00  0.00    -0.000 C 
ATOM      4  C   LIG    1        0.602  -1.171   1.366  0.00  0.00    +0.015 C 
ATOM      5  C   LIG    1       -0.695   0.250  -0.293  0.00  0.00    +0.029 C 
ATOM      6  C   LIG    1       -2.027   0.882   0.083  0.00  0.00    -0.016 C 
ATOM      7  C   LIG    1       -1.890   1.587   1.389  0.00  0.00    +0.012 C 
ATOM      8  C   LIG    1       -2.567   1.758  -1.002  0.00  0.00    +0.012 C 
ATOM      9  C   LIG    1       -1.145  -0.594  -1.473  0.00  0.00    +0.010 C 
ATOM     10  C   LIG    1       -2.553  -1.040  -1.137  0.00  0.00    +0.015 C 
ATOM     11  C   LIG    1       -2.788  -0.438   0.202  0.00  0.00    +0.036 C 
ATOM     12  C   LIG    1       -4.181  -0.323   0.637  0.00  0.00    +0.020 C 
ENDROOT
BRANCH   4  13
ATOM     13  C   LIG    1        1.898  -0.728   0.913  0.00  0.00    -0.025 A 
ATOM     14  C   LIG    1        2.298   0.583   0.793  0.00  0.00    +0.008 A 
ATOM     15  C   LIG    1        3.552   0.904   0.309  0.00  0.00    +0.004 A 
ATOM     16  C   LIG    1        4.457  -0.055  -0.074  0.00  0.00    -0.050 A 
ATOM     17  C   LIG    1        4.060  -1.377   0.046  0.00  0.00    +0.004 A 
ATOM     18  C   LIG    1        5.796   0.324  -0.591  0.00  0.00    +0.044 C 
ATOM     19  C   LIG    1        2.818  -1.712   0.524  0.00  0.00    +0.008 A 
ENDBRANCH   4  13
TORSDOF 1
