REMARK  Name = molecules/HFHZKZSRXITVMK-QGZVFWFLSA-N.pdb
REMARK                            x       y       z     vdW  Elec       q    Type
REMARK                         _______ _______ _______ _____ _____    ______ ____
ROOT
ATOM      1  O   LIG    1       -0.485  -3.034   0.275  0.00  0.00    -0.273 OA
ATOM      2  C   LIG    1       -0.539  -1.804   0.627  0.00  0.00    +0.249 C 
ATOM      3  C   LIG    1       -1.624  -1.131   1.350  0.00  0.00    +0.165 C 
ATOM      4  C   LIG    1       -1.318   0.326   1.124  0.00  0.00    +0.249 C 
ATOM      5  O   LIG    1       -2.158   1.240   1.342  0.00  0.00    -0.273 OA
ATOM      6  N   LIG    1        0.011   0.411   0.654  0.00  0.00    -0.180 N 
ATOM      7  N   LIG    1        0.495  -0.888   0.350  0.00  0.00    -0.180 N 
ENDROOT
BRANCH   6   8
ATOM      8  C   LIG    1        0.750   1.629   0.502  0.00  0.00    +0.057 A 
ATOM      9  C   LIG    1        1.212   2.268   1.619  0.00  0.00    +0.025 A 
ATOM     10  C   LIG    1        1.914   3.433   1.487  0.00  0.00    +0.002 A 
ATOM     11  C   LIG    1        2.172   3.987   0.257  0.00  0.00    +0.000 A 
ATOM     12  C   LIG    1        1.696   3.322  -0.849  0.00  0.00    +0.002 A 
ATOM     13  C   LIG    1        0.988   2.151  -0.756  0.00  0.00    +0.025 A 
ENDBRANCH   6   8
BRANCH   7  14
ATOM     14  C   LIG    1        1.827  -1.101  -0.140  0.00  0.00    +0.057 A 
ATOM     15  C   LIG    1        2.831  -1.472   0.762  0.00  0.00    +0.029 A 
ATOM     16  C   LIG    1        4.117  -1.676   0.351  0.00  0.00    +0.047 A 
ATOM     17  C   LIG    1        4.475  -1.529  -0.960  0.00  0.00    +0.117 A 
ATOM     18  C   LIG    1        3.490  -1.165  -1.853  0.00  0.00    +0.047 A 
ATOM     19  C   LIG    1        2.170  -0.952  -1.446  0.00  0.00    +0.029 A 
BRANCH  17  20
ATOM     20  O   LIG    1        5.795  -1.756  -1.296  0.00  0.00    -0.507 OA
ATOM     21  H   LIG    1        6.442  -0.977  -1.267  0.00  0.00    +0.292 HD
ENDBRANCH  17  20
ENDBRANCH   7  14
BRANCH   3  22
ATOM     22  C   LIG    1       -2.999  -1.356   0.783  0.00  0.00    +0.022 C 
BRANCH  22  23
ATOM     23  C   LIG    1       -3.020  -0.841  -0.634  0.00  0.00    +0.001 C 
BRANCH  23  24
ATOM     24  C   LIG    1       -4.398  -1.020  -1.265  0.00  0.00    -0.003 C 
ATOM     25  C   LIG    1       -5.397  -0.223  -0.425  0.00  0.00    +0.004 C 
ENDBRANCH  23  24
ENDBRANCH  22  23
ENDBRANCH   3  22
TORSDOF 6
