REMARK  Name = molecules/HFTSMHTWUFCYMJ-YIOMYIDASA-N.pdb
REMARK                            x       y       z     vdW  Elec       q    Type
REMARK                         _______ _______ _______ _____ _____    ______ ____
ROOT
ATOM      1  CA  LIG    1       -2.572   0.940   1.522  0.00  0.00    +0.126 C 
ATOM      2  N   LIG    1       -3.985   0.756   1.761  0.00  0.00    -0.249 N 
ATOM      3  C   LIG    1       -5.210   1.194   2.321  0.00  0.00    +0.244 C 
ATOM      4  O   LIG    1       -5.505   2.227   3.014  0.00  0.00    -0.273 OA
ATOM      5  CA  LIG    1       -5.907   0.022   1.782  0.00  0.00    +0.191 C 
ATOM      6  C   LIG    1       -4.623  -0.432   1.189  0.00  0.00    +0.169 C 
ATOM      7  S   LIG    1       -4.431  -0.111  -0.600  0.00  0.00    -0.131 S 
ATOM      8  C   LIG    1       -2.615   0.002  -0.797  0.00  0.00    +0.108 C 
ATOM      9  C   LIG    1       -1.960   0.604   0.393  0.00  0.00    -0.009 C 
ENDROOT
BRANCH   9  10
ATOM     10  C   LIG    1       -0.488   0.751   0.386  0.00  0.00    +0.015 C 
ATOM     11  C   LIG    1        0.244   0.501  -0.666  0.00  0.00    +0.016 C 
ATOM     12  C   LIG    1        1.743   0.642  -0.665  0.00  0.00    +0.243 C 
ATOM     13  O   LIG    1        2.422   1.373   0.109  0.00  0.00    -0.270 OA
ATOM     14  N   LIG    1        2.265  -0.190  -1.687  0.00  0.00    -0.293 N 
ATOM     15  C   LIG    1        1.257  -0.205  -2.709  0.00  0.00    +0.113 C 
ATOM     16  C   LIG    1       -0.091   0.062  -1.999  0.00  0.00    +0.059 C 
BRANCH  14  17
ATOM     17  C   LIG    1        3.540  -0.885  -1.724  0.00  0.00    +0.095 C 
ATOM     18  C   LIG    1        3.788  -1.751  -0.535  0.00  0.00    +0.043 C 
ATOM     19  C   LIG    1        5.271  -1.961  -0.561  0.00  0.00    +0.113 C 
ATOM     20  N   LIG    1        5.780  -0.720  -1.107  0.00  0.00    -0.266 N 
ATOM     21  C   LIG    1        7.142  -0.340  -1.109  0.00  0.00    +0.403 C 
ATOM     22  O   LIG    1        7.467   0.761  -1.616  0.00  0.00    -0.226 OA
ATOM     23  C   LIG    1        4.701   0.089  -1.661  0.00  0.00    +0.133 C 
BRANCH  21  24
ATOM     24  O   LIG    1        8.139  -1.132  -0.577  0.00  0.00    -0.442 OA
BRANCH  24  25
ATOM     25  C   LIG    1        9.489  -0.784  -0.568  0.00  0.00    +0.311 C 
BRANCH  25  26
ATOM     26  C   LIG    1        9.725   0.491   0.188  0.00  0.00    +0.187 A 
ATOM     27  O   LIG    1        8.824   1.223   0.783  0.00  0.00    -0.392 OA
ATOM     28  C   LIG    1        9.408   2.247   1.329  0.00  0.00    +0.521 A 
ATOM     29  O   LIG    1        8.843   3.176   1.995  0.00  0.00    -0.202 OA
ATOM     30  O   LIG    1       10.691   2.183   1.091  0.00  0.00    -0.396 OA
ATOM     31  C   LIG    1       10.948   1.111   0.384  0.00  0.00    +0.151 A 
ATOM     32  C   LIG    1       12.260   0.608  -0.132  0.00  0.00    +0.090 C 
ENDBRANCH  25  26
ENDBRANCH  24  25
ENDBRANCH  21  24
ENDBRANCH  14  17
ENDBRANCH   9  10
BRANCH   5  33
ATOM     33  N   LIG    1       -6.968   0.315   0.826  0.00  0.00    -0.296 N 
ATOM     34  C   LIG    1       -8.201  -0.326   0.913  0.00  0.00    +0.270 C 
ATOM     35  O   LIG    1       -8.319  -1.169   1.878  0.00  0.00    -0.268 OA
ATOM     36  H   LIG    1       -6.720   1.029   0.096  0.00  0.00    +0.150 HD
BRANCH  34  37
ATOM     37  C   LIG    1       -9.363  -0.189   0.084  0.00  0.00    +0.208 C 
ATOM     38  N   LIG    1       -9.365   0.619  -0.908  0.00  0.00    -0.078 NA
BRANCH  37  39
ATOM     39  C   LIG    1      -10.597  -0.998   0.365  0.00  0.00    +0.197 A 
ATOM     40  N   LIG    1      -10.630  -1.847   1.406  0.00  0.00    -0.185 NA
ATOM     41  S   LIG    1      -12.171  -2.506   1.306  0.00  0.00    +0.049 S 
ATOM     42  C   LIG    1      -12.713  -1.657  -0.080  0.00  0.00    +0.176 A 
ATOM     43  N   LIG    1      -11.657  -0.917  -0.372  0.00  0.00    -0.202 NA
BRANCH  42  44
ATOM     44  N   LIG    1      -13.977  -1.725  -0.752  0.00  0.00    -0.336 N 
ATOM     45  H   LIG    1      -14.819  -1.444  -0.238  0.00  0.00    +0.144 HD
ATOM     46  H   LIG    1      -14.032  -2.048  -1.725  0.00  0.00    +0.144 HD
ENDBRANCH  42  44
ENDBRANCH  37  39
BRANCH  38  47
ATOM     47  O   LIG    1       -8.347   1.423  -1.315  0.00  0.00    -0.409 OA
ATOM     48  H   LIG    1       -8.364   2.389  -1.014  0.00  0.00    +0.328 HD
ENDBRANCH  38  47
ENDBRANCH  34  37
ENDBRANCH   5  33
BRANCH   1  49
ATOM     49  C   LIG    1       -1.887   1.635   2.628  0.00  0.00    +0.352 C 
ATOM     50  OXT LIG    1       -2.565   1.898   3.703  0.00  0.00    -0.244 OA
BRANCH  49  51
ATOM     51  O   LIG    1       -0.592   2.060   2.688  0.00  0.00    -0.476 OA
ATOM     52  H   LIG    1       -0.281   2.988   2.913  0.00  0.00    +0.295 HD
ENDBRANCH  49  51
ENDBRANCH   1  49
TORSDOF 12
