REMARK  Name = molecules/HFXKQSZZZPGLKQ-MRVPVSSYSA-N.pdb
REMARK                            x       y       z     vdW  Elec       q    Type
REMARK                         _______ _______ _______ _____ _____    ______ ____
ROOT
ATOM      1  C   LIG    1        0.188   0.718   0.529  0.00  0.00    +0.022 C 
ENDROOT
BRANCH   1   2
ATOM      2  C   LIG    1       -0.827  -0.370   0.473  0.00  0.00    -0.010 C 
ATOM      3  C   LIG    1       -1.994   0.036   1.353  0.00  0.00    +0.003 C 
ATOM      4  C   LIG    1       -3.172   0.223   0.449  0.00  0.00    +0.000 C 
ATOM      5  C   LIG    1       -2.874  -0.759  -0.671  0.00  0.00    +0.000 C 
ATOM      6  C   LIG    1       -1.373  -0.653  -0.882  0.00  0.00    +0.003 C 
ENDBRANCH   1   2
BRANCH   1   7
ATOM      7  C   LIG    1        1.420   0.479  -0.298  0.00  0.00    +0.051 C 
ATOM      8  C   LIG    1        2.345   1.670  -0.015  0.00  0.00    +0.024 C 
BRANCH   7  10
ATOM      9  C   LIG    1        3.304  -0.988  -0.543  0.00  0.00    +0.101 C 
ATOM     10  N   LIG    1        2.064  -0.728   0.166  0.00  0.00    -0.316 NA
ATOM     11  H   LIG    1        1.445  -1.544  -0.015  0.00  0.00    +0.122 HD
ENDBRANCH   7  10
ENDBRANCH   1   7
TORSDOF 3
