REMARK  Name = molecules/HGBLNBBNRORJKI-WCABBAIRSA-N.pdb
REMARK                            x       y       z     vdW  Elec       q    Type
REMARK                         _______ _______ _______ _____ _____    ______ ____
ROOT
ATOM      1  CA  LIG    1       -3.962  -0.055  -0.302  0.00  0.00    +0.201 C 
ATOM      2  C   LIG    1       -3.372   0.320   1.066  0.00  0.00    +0.042 C 
ATOM      3  C   LIG    1       -4.371   0.055   2.168  0.00  0.00    +0.025 C 
ATOM      4  S   LIG    1       -1.972  -0.836   1.152  0.00  0.00    -0.127 S 
ATOM      5  C   LIG    1       -2.110  -1.520  -0.536  0.00  0.00    +0.165 C 
ATOM      6  CA  LIG    1       -0.943  -1.216  -1.446  0.00  0.00    +0.190 C 
ATOM      7  C   LIG    1       -1.977  -0.501  -2.248  0.00  0.00    +0.240 C 
ATOM      8  O   LIG    1       -2.013  -0.107  -3.443  0.00  0.00    -0.273 OA
ATOM      9  C   LIG    1       -2.899   1.736   1.042  0.00  0.00    +0.025 C 
ATOM     10  N   LIG    1       -2.873  -0.448  -1.148  0.00  0.00    -0.271 N 
ENDROOT
BRANCH   6  11
ATOM     11  N   LIG    1        0.098  -0.407  -0.900  0.00  0.00    -0.300 N 
ATOM     12  H   LIG    1       -0.182   0.466  -0.401  0.00  0.00    +0.150 HD
ATOM     13  C   LIG    1        1.449  -0.804  -1.049  0.00  0.00    +0.234 C 
ATOM     14  O   LIG    1        1.740  -1.859  -1.655  0.00  0.00    -0.274 OA
BRANCH  13  15
ATOM     15  C   LIG    1        2.585  -0.009  -0.506  0.00  0.00    +0.094 C 
ATOM     16  C   LIG    1        3.397  -0.810   0.482  0.00  0.00    +0.031 C 
ATOM     17  C   LIG    1        4.421   0.065   1.108  0.00  0.00    +0.002 C 
ATOM     18  C   LIG    1        5.210   0.921   0.185  0.00  0.00    +0.000 C 
ATOM     19  C   LIG    1        4.522   1.365  -1.050  0.00  0.00    +0.002 C 
ATOM     20  C   LIG    1        3.521   0.417  -1.611  0.00  0.00    +0.031 C 
BRANCH  15  21
ATOM     21  N   LIG    1        2.116   1.185   0.171  0.00  0.00    -0.317 NA
ATOM     22  H   LIG    1        2.908   1.701   0.577  0.00  0.00    +0.119 HD
ATOM     23  H   LIG    1        1.534   1.735  -0.495  0.00  0.00    +0.119 HD
ENDBRANCH  15  21
ENDBRANCH  13  15
ENDBRANCH   6  11
BRANCH   1  24
ATOM     24  C   LIG    1       -4.944  -1.136  -0.225  0.00  0.00    +0.327 C 
ATOM     25  OXT LIG    1       -5.965  -1.035   0.499  0.00  0.00    -0.249 OA
BRANCH  24  26
ATOM     26  O   LIG    1       -4.774  -2.297  -0.951  0.00  0.00    -0.479 OA
ATOM     27  H   LIG    1       -5.204  -3.162  -0.679  0.00  0.00    +0.295 HD
ENDBRANCH  24  26
ENDBRANCH   1  24
TORSDOF 5
