REMARK  Name = molecules/HGVDHZBSSITLCT-JLJPHGGASA-N.pdb
REMARK                            x       y       z     vdW  Elec       q    Type
REMARK                         _______ _______ _______ _____ _____    ______ ____
ROOT
ATOM      1  C   LIG    1        0.317   2.493   0.132  0.00  0.00    +0.094 C 
ATOM      2  C   LIG    1        1.744   2.053   0.120  0.00  0.00    +0.094 C 
ATOM      3  C   LIG    1        2.576   2.862  -0.862  0.00  0.00    +0.025 C 
ATOM      4  C   LIG    1        2.305   4.319  -0.528  0.00  0.00    +0.014 C 
ATOM      5  C   LIG    1        0.910   4.622  -1.074  0.00  0.00    +0.077 C 
ATOM      6  C   LIG    1       -0.043   3.491  -0.933  0.00  0.00    +0.037 C 
ENDROOT
BRANCH   5   7
ATOM      7  C   LIG    1        0.445   5.912  -0.539  0.00  0.00    +0.218 C 
ATOM      8  O   LIG    1        1.020   6.512   0.398  0.00  0.00    -0.275 OA
ATOM      9  N   LIG    1       -0.709   6.505  -1.110  0.00  0.00    -0.307 N 
ATOM     10  C   LIG    1       -1.202   7.778  -0.605  0.00  0.00    +0.131 C 
ATOM     11  C   LIG    1       -1.468   5.923  -2.199  0.00  0.00    +0.131 C 
ENDBRANCH   5   7
BRANCH   1  14
ATOM     12  C   LIG    1       -1.475   0.858   0.799  0.00  0.00    +0.269 C 
ATOM     13  O   LIG    1       -1.717   1.446   1.884  0.00  0.00    -0.268 OA
ATOM     14  N   LIG    1       -0.504   1.298  -0.112  0.00  0.00    -0.305 N 
ATOM     15  H   LIG    1       -0.325   0.800  -0.993  0.00  0.00    +0.149 HD
BRANCH  12  20
ATOM     16  C   LIG    1       -2.927  -3.122  -1.941  0.00  0.00    +0.071 C 
ATOM     17  C   LIG    1       -2.899  -2.150  -0.777  0.00  0.00    +0.055 A 
ATOM     18  C   LIG    1       -3.794  -2.411   0.243  0.00  0.00    +0.027 A 
ATOM     19  S   LIG    1       -3.470  -1.139   1.326  0.00  0.00    -0.066 S 
ATOM     20  C   LIG    1       -2.236  -0.361   0.435  0.00  0.00    +0.163 A 
ATOM     21  C   LIG    1       -4.710  -3.615   0.141  0.00  0.00    +0.128 C 
ATOM     22  N   LIG    1       -3.803  -4.690  -0.211  0.00  0.00    -0.300 NA
ATOM     23  C   LIG    1       -2.888  -5.027   0.829  0.00  0.00    +0.105 C 
ATOM     24  N   LIG    1       -2.138  -1.112  -0.638  0.00  0.00    -0.239 NA
ATOM     25  C   LIG    1       -3.252  -4.475  -1.489  0.00  0.00    +0.090 C 
ENDBRANCH  12  20
ENDBRANCH   1  14
BRANCH   2  26
ATOM     26  N   LIG    1        1.928   0.632  -0.032  0.00  0.00    -0.303 N 
ATOM     27  C   LIG    1        2.496  -0.200   0.962  0.00  0.00    +0.300 C 
ATOM     28  O   LIG    1        2.891   0.247   2.074  0.00  0.00    -0.265 OA
ATOM     29  H   LIG    1        1.622   0.204  -0.926  0.00  0.00    +0.149 HD
BRANCH  27  30
ATOM     30  C   LIG    1        2.637  -1.618   0.710  0.00  0.00    +0.304 C 
ATOM     31  N   LIG    1        3.204  -2.450   1.708  0.00  0.00    -0.263 N 
ATOM     32  H   LIG    1        3.528  -2.076   2.633  0.00  0.00    +0.157 HD
ATOM     33  O   LIG    1        2.257  -2.087  -0.385  0.00  0.00    -0.265 OA
BRANCH  31  34
ATOM     34  C   LIG    1        3.333  -3.838   1.436  0.00  0.00    +0.125 A 
ATOM     35  C   LIG    1        3.882  -4.681   2.386  0.00  0.00    +0.045 A 
ATOM     36  C   LIG    1        4.018  -6.015   2.151  0.00  0.00    +0.025 A 
ATOM     37  C   LIG    1        3.584  -6.505   0.916  0.00  0.00    +0.059 A 
ATOM     38 CL   LIG    1        3.771  -8.237   0.630  0.00  0.00    -0.082 Cl
ATOM     39  C   LIG    1        3.041  -5.660  -0.021  0.00  0.00    +0.132 A 
ATOM     40  N   LIG    1        2.927  -4.355   0.255  0.00  0.00    -0.239 NA
ENDBRANCH  31  34
ENDBRANCH  27  30
ENDBRANCH   2  26
TORSDOF 6
