REMARK  Name = molecules/HHFIATHHSBFCBY-UHFFFAOYSA-N.pdb
REMARK                            x       y       z     vdW  Elec       q    Type
REMARK                         _______ _______ _______ _____ _____    ______ ____
ROOT
ATOM      1  C   LIG    1       -0.089  -0.385  -0.483  0.00  0.00    +0.065 A 
ATOM      2  C   LIG    1       -0.196  -1.736  -0.094  0.00  0.00    +0.042 A 
ATOM      3  C   LIG    1       -1.388  -2.364   0.155  0.00  0.00    +0.088 A 
ATOM      4  C   LIG    1       -2.579  -1.665   0.028  0.00  0.00    +0.051 A 
ATOM      5  I   LIG    1       -4.402  -2.639   0.415  0.00  0.00    -0.041 I 
ATOM      6  C   LIG    1       -2.511  -0.350  -0.349  0.00  0.00    +0.061 A 
ATOM      7  I   LIG    1        1.584  -2.860   0.119  0.00  0.00    -0.042 I 
ATOM      8  C   LIG    1       -1.279   0.276  -0.601  0.00  0.00    +0.049 A 
ATOM      9  I   LIG    1       -1.360   2.253  -1.251  0.00  0.00    -0.041 I 
ENDROOT
BRANCH   6  10
ATOM     10  N   LIG    1       -3.729   0.359  -0.477  0.00  0.00    -0.284 N 
ATOM     11  C   LIG    1       -4.296   1.064   0.635  0.00  0.00    +0.214 C 
ATOM     12  O   LIG    1       -3.695   1.044   1.726  0.00  0.00    -0.276 OA
ATOM     13  C   LIG    1       -5.578   1.791   0.442  0.00  0.00    +0.109 C 
ATOM     14  H   LIG    1       -4.199   0.351  -1.400  0.00  0.00    +0.155 HD
ENDBRANCH   6  10
BRANCH   1  15
ATOM     15  C   LIG    1        1.242   0.172  -0.654  0.00  0.00    +0.247 C 
ATOM     16  N   LIG    1        1.624   1.507  -0.517  0.00  0.00    -0.303 N 
ATOM     17  H   LIG    1        0.977   2.244  -0.243  0.00  0.00    +0.150 HD
ATOM     18  O   LIG    1        2.168  -0.695  -0.966  0.00  0.00    -0.270 OA
BRANCH  16  19
ATOM     19  C   LIG    1        3.004   1.903  -0.730  0.00  0.00    +0.200 C 
BRANCH  19  20
ATOM     20  C   LIG    1        3.823   1.157   0.288  0.00  0.00    +0.230 C 
ATOM     21  O   LIG    1        3.307   0.371   1.122  0.00  0.00    -0.274 OA
ATOM     22  N   LIG    1        5.221   1.335   0.320  0.00  0.00    -0.317 N 
ATOM     23  C   LIG    1        6.037   0.639   1.279  0.00  0.00    +0.128 C 
ATOM     24  H   LIG    1        5.704   1.989  -0.364  0.00  0.00    +0.148 HD
ENDBRANCH  19  20
ENDBRANCH  16  19
ENDBRANCH   1  15
BRANCH   3  25
ATOM     25  C   LIG    1       -1.469  -3.761   0.554  0.00  0.00    +0.339 C 
ATOM     26  O   LIG    1       -1.438  -4.026   1.775  0.00  0.00    -0.245 OA
BRANCH  25  27
ATOM     27  O   LIG    1       -1.575  -4.748  -0.393  0.00  0.00    -0.477 OA
ATOM     28  H   LIG    1       -2.394  -5.002  -0.903  0.00  0.00    +0.295 HD
ENDBRANCH  25  27
ENDBRANCH   3  25
TORSDOF 6
