REMARK  Name = molecules/HHHKFGXWKKUNCY-FHWLQOOXSA-N.pdb
REMARK                            x       y       z     vdW  Elec       q    Type
REMARK                         _______ _______ _______ _____ _____    ______ ____
ROOT
ATOM      1  C   LIG    1       -4.501   0.128   0.751  0.00  0.00    +0.202 C 
ATOM      2  C   LIG    1       -4.609  -0.623   2.059  0.00  0.00    +0.037 C 
ATOM      3  C   LIG    1       -4.357  -2.089   1.682  0.00  0.00    +0.019 C 
ATOM      4  C   LIG    1       -3.960  -2.298   0.263  0.00  0.00    +0.106 C 
ATOM      5  N   LIG    1       -2.946  -1.423  -0.217  0.00  0.00    -0.224 NA
ATOM      6  C   LIG    1       -2.854  -1.353  -1.638  0.00  0.00    +0.106 C 
ATOM      7  C   LIG    1       -1.490  -0.851  -2.073  0.00  0.00    +0.019 C 
ATOM      8  C   LIG    1       -1.369   0.630  -1.989  0.00  0.00    +0.029 C 
ATOM      9  C   LIG    1       -0.956   0.990  -0.544  0.00  0.00    +0.143 C 
ATOM     10  C   LIG    1       -2.244   0.921   0.275  0.00  0.00    +0.247 C 
ATOM     11  O   LIG    1       -2.482   1.861   1.047  0.00  0.00    -0.273 OA
ATOM     12  N   LIG    1       -3.196  -0.099   0.252  0.00  0.00    -0.219 N 
ENDROOT
BRANCH   1  13
ATOM     13  C   LIG    1       -5.071   1.449   0.704  0.00  0.00    +0.327 C 
ATOM     14  O   LIG    1       -6.033   1.827   1.446  0.00  0.00    -0.249 OA
BRANCH  13  15
ATOM     15  O   LIG    1       -4.594   2.404  -0.178  0.00  0.00    -0.479 OA
ATOM     16  H   LIG    1       -4.997   2.491  -1.127  0.00  0.00    +0.295 HD
ENDBRANCH  13  15
ENDBRANCH   1  13
BRANCH   9  17
ATOM     17  N   LIG    1       -0.049   0.026  -0.116  0.00  0.00    -0.293 NA
ATOM     18  H   LIG    1       -0.383  -0.411   0.796  0.00  0.00    +0.123 HD
BRANCH  17  19
ATOM     19  C   LIG    1        1.340   0.239   0.016  0.00  0.00    +0.164 C 
BRANCH  19  20
ATOM     20  C   LIG    1        1.636   1.391   0.936  0.00  0.00    +0.324 C 
ATOM     21  O   LIG    1        0.910   2.397   0.955  0.00  0.00    -0.249 OA
BRANCH  20  22
ATOM     22  O   LIG    1        2.726   1.355   1.785  0.00  0.00    -0.464 OA
BRANCH  22  23
ATOM     23  C   LIG    1        3.012   2.424   2.632  0.00  0.00    +0.229 C 
ATOM     24  C   LIG    1        3.300   3.680   1.802  0.00  0.00    +0.048 C 
ENDBRANCH  22  23
ENDBRANCH  20  22
ENDBRANCH  19  20
BRANCH  19  25
ATOM     25  C   LIG    1        2.000   0.562  -1.304  0.00  0.00    +0.035 C 
BRANCH  25  26
ATOM     26  C   LIG    1        3.491   0.696  -1.258  0.00  0.00    +0.037 C 
BRANCH  26  27
ATOM     27  C   LIG    1        4.146  -0.591  -0.907  0.00  0.00    -0.047 A 
ATOM     28  C   LIG    1        4.585  -0.947   0.332  0.00  0.00    +0.003 A 
ATOM     29  C   LIG    1        5.136  -2.226   0.499  0.00  0.00    +0.000 A 
ATOM     30  C   LIG    1        5.244  -3.107  -0.529  0.00  0.00    +0.000 A 
ATOM     31  C   LIG    1        4.798  -2.735  -1.784  0.00  0.00    +0.000 A 
ATOM     32  C   LIG    1        4.261  -1.498  -1.960  0.00  0.00    +0.003 A 
ENDBRANCH  26  27
ENDBRANCH  25  26
ENDBRANCH  19  25
ENDBRANCH  17  19
ENDBRANCH   9  17
TORSDOF 10
