REMARK  Name = molecules/HHZIURLSWUIHRB-UHFFFAOYSA-N.pdb
REMARK                            x       y       z     vdW  Elec       q    Type
REMARK                         _______ _______ _______ _____ _____    ______ ____
ROOT
ATOM      1  C   LIG    1       -0.017   2.198   0.499  0.00  0.00    +0.039 A 
ATOM      2  C   LIG    1        0.105   3.496   1.048  0.00  0.00    +0.013 A 
ATOM      3  C   LIG    1        1.289   4.066   1.400  0.00  0.00    +0.006 A 
ATOM      4  C   LIG    1        2.429   3.349   1.215  0.00  0.00    -0.029 A 
ATOM      5  C   LIG    1        3.761   3.907   1.592  0.00  0.00    +0.045 C 
ATOM      6  C   LIG    1        2.410   2.039   0.670  0.00  0.00    +0.037 A 
ATOM      7  C   LIG    1        1.174   1.529   0.340  0.00  0.00    +0.036 A 
ENDROOT
BRANCH   1   9
ATOM      8  N   LIG    1       -1.801   0.471  -0.216  0.00  0.00    -0.281 N 
ATOM      9  C   LIG    1       -1.328   1.751   0.140  0.00  0.00    +0.248 C 
ATOM     10  O   LIG    1       -2.238   2.711   0.149  0.00  0.00    -0.270 OA
ATOM     11  H   LIG    1       -1.269  -0.388  -0.260  0.00  0.00    +0.155 HD
BRANCH   8  16
ATOM     12  C   LIG    1       -5.112   1.555  -1.574  0.00  0.00    +0.059 A 
ATOM     13  C   LIG    1       -5.907   0.579  -1.070  0.00  0.00    +0.038 A 
ATOM     14  C   LIG    1       -5.426  -0.479  -0.317  0.00  0.00    +0.050 A 
ATOM     15  C   LIG    1       -4.074  -0.552  -0.062  0.00  0.00    +0.049 A 
ATOM     16  C   LIG    1       -3.218   0.407  -0.548  0.00  0.00    +0.036 A 
ATOM     17  C   LIG    1       -3.760   1.452  -1.306  0.00  0.00    +0.035 A 
BRANCH  14  18
ATOM     18  N   LIG    1       -6.385  -1.382   0.180  0.00  0.00    -0.306 N 
ATOM     19  C   LIG    1       -7.612  -0.986   0.661  0.00  0.00    +0.204 A 
ATOM     20  N   LIG    1       -8.324  -2.038   1.073  0.00  0.00    -0.241 NA
ATOM     21  C   LIG    1       -7.581  -3.155   0.869  0.00  0.00    +0.056 A 
ATOM     22  C   LIG    1       -8.003  -4.525   1.177  0.00  0.00    +0.067 C 
ATOM     23  C   LIG    1       -6.396  -2.716   0.318  0.00  0.00    +0.115 A 
ENDBRANCH  14  18
BRANCH  12  24
ATOM     24  C   LIG    1       -5.639   2.703  -2.346  0.00  0.00    +0.418 C 
ATOM     25  F   LIG    1       -5.100   3.870  -1.790  0.00  0.00    -0.166 F 
ATOM     26  F   LIG    1       -7.002   2.780  -2.303  0.00  0.00    -0.166 F 
ATOM     27  F   LIG    1       -5.126   2.664  -3.644  0.00  0.00    -0.166 F 
ENDBRANCH  12  24
ENDBRANCH   8  16
ENDBRANCH   1   9
BRANCH   6  28
ATOM     28  N   LIG    1        3.630   1.394   0.470  0.00  0.00    -0.283 N 
ATOM     29  H   LIG    1        4.489   2.071   0.569  0.00  0.00    +0.155 HD
BRANCH  28  30
ATOM     30  C   LIG    1        3.901   0.052   0.149  0.00  0.00    +0.220 A 
ATOM     31  N   LIG    1        5.228  -0.251   0.005  0.00  0.00    -0.214 NA
ATOM     32  C   LIG    1        5.643  -1.483  -0.270  0.00  0.00    +0.077 A 
ATOM     33  C   LIG    1        4.748  -2.505  -0.424  0.00  0.00    +0.048 A 
ATOM     34  C   LIG    1        3.393  -2.212  -0.281  0.00  0.00    +0.116 A 
ATOM     35  N   LIG    1        3.037  -0.939  -0.001  0.00  0.00    -0.223 NA
BRANCH  32  36
ATOM     36  C   LIG    1        7.118  -1.702  -0.421  0.00  0.00    +0.019 A 
ATOM     37  C   LIG    1        7.964  -0.610  -0.274  0.00  0.00    +0.120 A 
ATOM     38  N   LIG    1        9.306  -0.726  -0.393  0.00  0.00    -0.263 NA
ATOM     39  C   LIG    1        9.884  -1.900  -0.658  0.00  0.00    +0.111 A 
ATOM     40  C   LIG    1        9.070  -3.009  -0.807  0.00  0.00    +0.020 A 
ATOM     41  C   LIG    1        7.679  -2.925  -0.689  0.00  0.00    +0.013 A 
ENDBRANCH  32  36
ENDBRANCH  28  30
ENDBRANCH   6  28
TORSDOF 7
