REMARK  Name = molecules/HIANJWSAHKJQTH-UHFFFAOYSA-N.pdb
REMARK                            x       y       z     vdW  Elec       q    Type
REMARK                         _______ _______ _______ _____ _____    ______ ____
ROOT
ATOM      1  O   LIG    1        1.471  -1.990  -0.100  0.00  0.00    -0.266 OA
ATOM      2  C   LIG    1        0.942  -0.861  -0.046  0.00  0.00    +0.269 A 
ATOM      3  C   LIG    1        1.675   0.288   0.012  0.00  0.00    +0.103 A 
ATOM      4  C   LIG    1        0.995   1.503   0.070  0.00  0.00    +0.130 A 
ATOM      5  N   LIG    1       -0.349   1.545   0.069  0.00  0.00    -0.236 NA
ATOM      6  C   LIG    1       -1.026   0.377   0.010  0.00  0.00    +0.143 A 
ATOM      7  C   LIG    1       -2.416   0.455   0.011  0.00  0.00    -0.008 A 
ATOM      8  C   LIG    1       -3.077   1.773   0.074  0.00  0.00    +0.047 C 
ATOM      9  C   LIG    1       -3.154  -0.694  -0.047  0.00  0.00    +0.008 A 
ATOM     10  C   LIG    1       -2.511  -1.909  -0.105  0.00  0.00    +0.019 A 
ATOM     11  C   LIG    1       -1.141  -1.965  -0.105  0.00  0.00    +0.096 A 
ATOM     12  N   LIG    1       -0.411  -0.814  -0.047  0.00  0.00    -0.267 N 
ENDROOT
BRANCH   3  13
ATOM     13  C   LIG    1        3.130   0.277   0.015  0.00  0.00    +0.186 A 
ATOM     14  N   LIG    1        3.911   1.381   0.071  0.00  0.00    -0.108 NA
ATOM     15  N   LIG    1        5.166   1.042   0.057  0.00  0.00    -0.023 NA
ATOM     16  N   LIG    1        5.218  -0.274  -0.007  0.00  0.00    -0.046 NA
ATOM     17  N   LIG    1        3.973  -0.742  -0.033  0.00  0.00    -0.239 N 
ATOM     18  H   LIG    1        3.769  -1.740  -0.083  0.00  0.00    +0.192 HD
ENDBRANCH   3  13
TORSDOF 1
