REMARK  Name = molecules/HIFJCPQKFCZDDL-ITQKTNNISA-N.pdb
REMARK                            x       y       z     vdW  Elec       q    Type
REMARK                         _______ _______ _______ _____ _____    ______ ____
ROOT
ATOM      1  C   LIG    1       -0.293  -0.672   0.698  0.00  0.00    +0.006 C 
ATOM      2  C   LIG    1       -1.437  -1.233   1.504  0.00  0.00    -0.001 C 
ATOM      3  C   LIG    1       -1.253  -2.721   1.415  0.00  0.00    +0.036 C 
ATOM      4  C   LIG    1       -0.749  -2.938   0.004  0.00  0.00    +0.122 C 
ATOM      5  C   LIG    1       -2.664  -0.756   0.793  0.00  0.00    +0.034 C 
ATOM      6  C   LIG    1       -2.288   0.594   0.332  0.00  0.00    -0.073 C 
ATOM      7  C   LIG    1       -3.141   1.538   0.027  0.00  0.00    -0.028 C 
ATOM      8  C   LIG    1       -0.806   0.682   0.272  0.00  0.00    +0.035 C 
ATOM      9  C   LIG    1       -0.152  -1.618  -0.436  0.00  0.00    +0.044 C 
ENDROOT
BRANCH   4  10
ATOM     10  O   LIG    1       -1.781  -3.351  -0.830  0.00  0.00    -0.391 OA
ATOM     11  H   LIG    1       -2.378  -3.991  -0.372  0.00  0.00    +0.210 HD
ENDBRANCH   4  10
BRANCH   9  12
ATOM     12  C   LIG    1        1.176  -1.756  -1.022  0.00  0.00    -0.022 C 
ATOM     13  C   LIG    1        2.275  -1.122  -0.646  0.00  0.00    +0.000 C 
BRANCH  13  14
ATOM     14  C   LIG    1        3.574  -1.369  -1.346  0.00  0.00    +0.141 C 
BRANCH  14  15
ATOM     15  C   LIG    1        4.675  -0.487  -0.886  0.00  0.00    +0.030 C 
ATOM     16  C   LIG    1        4.310   0.959  -1.121  0.00  0.00    +0.011 C 
BRANCH  15  17
ATOM     17  C   LIG    1        5.080  -0.636   0.544  0.00  0.00    +0.095 C 
BRANCH  17  18
ATOM     18  C   LIG    1        6.185   0.325   0.789  0.00  0.00    -0.102 C 
ATOM     19  C   LIG    1        7.089   1.107   0.965  0.00  0.00    -0.106 C 
ATOM     20  C   LIG    1        8.203   2.047   1.162  0.00  0.00    +0.106 C 
ENDBRANCH  17  18
ENDBRANCH  15  17
ENDBRANCH  14  15
BRANCH  14  21
ATOM     21  O   LIG    1        3.352  -1.090  -2.706  0.00  0.00    -0.387 OA
ATOM     22  H   LIG    1        4.135  -1.373  -3.252  0.00  0.00    +0.210 HD
ENDBRANCH  14  21
ENDBRANCH  13  14
ENDBRANCH   9  12
BRANCH   7  23
ATOM     23  C   LIG    1       -4.622   1.414   0.100  0.00  0.00    +0.027 C 
BRANCH  23  24
ATOM     24  C   LIG    1       -5.244   1.609  -1.253  0.00  0.00    +0.015 C 
BRANCH  24  25
ATOM     25  C   LIG    1       -6.742   1.498  -1.206  0.00  0.00    +0.121 C 
BRANCH  25  26
ATOM     26  C   LIG    1       -7.319   2.543  -0.338  0.00  0.00    +0.305 C 
ATOM     27  O   LIG    1       -8.570   2.450  -0.071  0.00  0.00    -0.251 OA
BRANCH  26  28
ATOM     28  O   LIG    1       -6.560   3.579   0.166  0.00  0.00    -0.481 OA
ATOM     29  H   LIG    1       -6.718   3.888   1.138  0.00  0.00    +0.295 HD
ENDBRANCH  26  28
ENDBRANCH  25  26
ENDBRANCH  24  25
ENDBRANCH  23  24
ENDBRANCH   7  23
TORSDOF 12
