REMARK  Name = molecules/HJBWBFZLDZWPHF-UHFFFAOYSA-N.pdb
REMARK                            x       y       z     vdW  Elec       q    Type
REMARK                         _______ _______ _______ _____ _____    ______ ____
ROOT
ATOM      1  N   LIG    1       -2.167   0.434  -0.300  0.00  0.00    -0.218 N 
ATOM      2  C   LIG    1       -0.858   0.843   0.102  0.00  0.00    +0.152 C 
ATOM      3  S   LIG    1       -0.530   2.311   0.743  0.00  0.00    -0.017 S 
ATOM      4  N   LIG    1        0.089  -0.201  -0.138  0.00  0.00    -0.267 N 
ATOM      5  C   LIG    1       -0.687  -1.373  -0.435  0.00  0.00    +0.118 C 
ATOM      6  C   LIG    1       -0.698  -2.428   0.646  0.00  0.00    +0.036 C 
ATOM      7  C   LIG    1        0.131  -3.313  -0.263  0.00  0.00    +0.005 C 
ATOM      8  C   LIG    1       -0.112  -2.341  -1.417  0.00  0.00    +0.036 C 
ATOM      9  C   LIG    1       -2.037  -0.882  -0.798  0.00  0.00    +0.249 C 
ATOM     10  O   LIG    1       -2.878  -1.554  -1.435  0.00  0.00    -0.272 OA
ENDROOT
BRANCH   4  11
ATOM     11  C   LIG    1        1.509  -0.116  -0.095  0.00  0.00    +0.039 A 
ATOM     12  C   LIG    1        2.222  -0.352   1.058  0.00  0.00    +0.062 A 
ATOM     13  C   LIG    1        3.621  -0.264   1.083  0.00  0.00    +0.137 A 
ATOM     14  F   LIG    1        4.277  -0.499   2.243  0.00  0.00    -0.205 F 
ATOM     15  C   LIG    1        4.326   0.063  -0.048  0.00  0.00    +0.072 A 
ATOM     16  C   LIG    1        3.611   0.305  -1.227  0.00  0.00    +0.018 A 
ATOM     17  C   LIG    1        2.255   0.208  -1.207  0.00  0.00    +0.024 A 
BRANCH  15  18
ATOM     18  C   LIG    1        5.764   0.172  -0.133  0.00  0.00    +0.247 C 
ATOM     19  N   LIG    1        6.648  -0.163   0.909  0.00  0.00    -0.314 N 
ATOM     20  H   LIG    1        6.386  -0.522   1.834  0.00  0.00    +0.149 HD
ATOM     21  C   LIG    1        8.106  -0.013   0.720  0.00  0.00    +0.128 C 
ATOM     22  O   LIG    1        6.303   0.597  -1.218  0.00  0.00    -0.270 OA
ENDBRANCH  15  18
ENDBRANCH   4  11
BRANCH   1  25
ATOM     23  C   LIG    1       -5.572   1.572   0.733  0.00  0.00    +0.092 A 
ATOM     24  C   LIG    1       -4.398   0.855   0.665  0.00  0.00    +0.040 A 
ATOM     25  C   LIG    1       -3.388   1.177  -0.228  0.00  0.00    +0.062 A 
ATOM     26  C   LIG    1       -3.599   2.256  -1.060  0.00  0.00    +0.136 A 
ATOM     27  N   LIG    1       -4.739   2.966  -1.008  0.00  0.00    -0.242 NA
ATOM     28  C   LIG    1       -5.724   2.639  -0.126  0.00  0.00    +0.152 A 
BRANCH  23  29
ATOM     29  C   LIG    1       -6.656   1.211   1.703  0.00  0.00    +0.420 C 
ATOM     30  F   LIG    1       -6.903   2.307   2.532  0.00  0.00    -0.166 F 
ATOM     31  F   LIG    1       -6.285   0.117   2.458  0.00  0.00    -0.166 F 
ATOM     32  F   LIG    1       -7.845   0.946   1.057  0.00  0.00    -0.166 F 
ENDBRANCH  23  29
BRANCH  28  33
ATOM     33  C   LIG    1       -6.951   3.378  -0.048  0.00  0.00    +0.120 C 
ATOM     34  N   LIG    1       -7.935   3.967   0.033  0.00  0.00    -0.189 NA
ENDBRANCH  28  33
ENDBRANCH   1  25
TORSDOF 5
