REMARK  Name = molecules/HJEZFVLKJYFNQW-PRFXOSGESA-N.pdb
REMARK                            x       y       z     vdW  Elec       q    Type
REMARK                         _______ _______ _______ _____ _____    ______ ____
ROOT
ATOM      1  C   LIG    1        1.936   1.833  -0.957  0.00  0.00    +0.132 A 
ATOM      2  C   LIG    1        2.804   0.803  -0.595  0.00  0.00    +0.078 A 
ATOM      3  C   LIG    1        2.289  -0.238   0.146  0.00  0.00    +0.078 A 
ATOM      4  C   LIG    1        0.959  -0.281   0.529  0.00  0.00    +0.134 A 
ATOM      5  C   LIG    1        0.113   0.764   0.152  0.00  0.00    +0.030 A 
ATOM      6  C   LIG    1       -1.310   0.857   0.478  0.00  0.00    +0.158 C 
ATOM      7  C   LIG    1       -1.599   2.213   1.163  0.00  0.00    +0.074 C 
ATOM      8  C   LIG    1       -0.978   3.338   0.404  0.00  0.00    +0.098 C 
ATOM      9  C   LIG    1       -0.369   2.886  -0.928  0.00  0.00    +0.076 C 
ATOM     10  C   LIG    1        3.236  -1.300   0.505  0.00  0.00    +0.202 C 
ATOM     11  O   LIG    1        2.861  -2.287   1.177  0.00  0.00    -0.286 OA
ATOM     12  C   LIG    1        4.649  -1.265   0.104  0.00  0.00    +0.075 A 
ATOM     13  C   LIG    1        5.492  -2.288   0.468  0.00  0.00    +0.132 A 
ATOM     14  C   LIG    1        6.842  -2.284   0.102  0.00  0.00    +0.046 A 
ATOM     15  C   LIG    1        7.338  -1.227  -0.644  0.00  0.00    +0.004 A 
ATOM     16  C   LIG    1        6.473  -0.210  -0.999  0.00  0.00    +0.012 A 
ATOM     17  C   LIG    1        5.143  -0.215  -0.637  0.00  0.00    +0.037 A 
ATOM     18  C   LIG    1        4.208   0.843  -0.997  0.00  0.00    +0.198 C 
ATOM     19  O   LIG    1        4.629   1.817  -1.674  0.00  0.00    -0.286 OA
ATOM     20  C   LIG    1        0.622   1.826  -0.599  0.00  0.00    +0.007 A 
ENDROOT
BRANCH   1  21
ATOM     21  O   LIG    1        2.462   2.863  -1.694  0.00  0.00    -0.506 OA
ATOM     22  H   LIG    1        1.965   3.654  -2.019  0.00  0.00    +0.292 HD
ENDBRANCH   1  21
BRANCH   4  23
ATOM     23  O   LIG    1        0.436  -1.286   1.253  0.00  0.00    -0.506 OA
ATOM     24  H   LIG    1        0.806  -2.083   1.615  0.00  0.00    +0.292 HD
ENDBRANCH   4  23
BRANCH   8  25
ATOM     25  O   LIG    1        0.082   3.857   1.146  0.00  0.00    -0.386 OA
ATOM     26  H   LIG    1        0.833   4.114   0.576  0.00  0.00    +0.210 HD
ENDBRANCH   8  25
BRANCH   8  27
ATOM     27  C   LIG    1       -1.966   4.465   0.162  0.00  0.00    +0.143 C 
ATOM     28  C   LIG    1       -1.305   5.582  -0.598  0.00  0.00    +0.040 C 
BRANCH  27  29
ATOM     29  O   LIG    1       -2.448   4.984   1.351  0.00  0.00    -0.389 OA
ATOM     30  H   LIG    1       -1.807   4.736   2.087  0.00  0.00    +0.210 HD
ENDBRANCH  27  29
ENDBRANCH   8  27
BRANCH  13  31
ATOM     31  O   LIG    1        4.978  -3.334   1.211  0.00  0.00    -0.494 OA
ATOM     32  C   LIG    1        5.809  -4.391   1.599  0.00  0.00    +0.277 C 
ENDBRANCH  13  31
BRANCH   6  33
ATOM     33  O   LIG    1       -1.794  -0.148   1.258  0.00  0.00    -0.343 OA
BRANCH  33  34
ATOM     34  C   LIG    1       -2.893  -0.808   0.657  0.00  0.00    +0.253 C 
ATOM     35  O   LIG    1       -3.946  -0.634   1.553  0.00  0.00    -0.346 OA
ATOM     36  C   LIG    1       -5.081  -1.325   1.190  0.00  0.00    +0.148 C 
ATOM     37  C   LIG    1       -4.851  -2.780   0.939  0.00  0.00    +0.160 C 
ATOM     38  C   LIG    1       -3.699  -3.067   0.034  0.00  0.00    +0.087 C 
ATOM     39  C   LIG    1       -5.781  -0.734  -0.013  0.00  0.00    +0.041 C 
ATOM     40  C   LIG    1       -2.511  -2.258   0.511  0.00  0.00    +0.082 C 
BRANCH  38  41
ATOM     41  N   LIG    1       -3.979  -2.867  -1.357  0.00  0.00    -0.325 NA
ATOM     42  H   LIG    1       -4.151  -3.789  -1.844  0.00  0.00    +0.119 HD
ATOM     43  H   LIG    1       -3.154  -2.449  -1.882  0.00  0.00    +0.119 HD
ENDBRANCH  38  41
BRANCH  37  44
ATOM     44  O   LIG    1       -6.005  -3.304   0.333  0.00  0.00    -0.388 OA
ATOM     45  H   LIG    1       -6.133  -4.208   0.732  0.00  0.00    +0.210 HD
ENDBRANCH  37  44
ENDBRANCH  33  34
ENDBRANCH   6  33
TORSDOF 10
