REMARK  Name = molecules/HJJAXSOTUNRQSF-PVGDPBLGSA-N.pdb
REMARK                            x       y       z     vdW  Elec       q    Type
REMARK                         _______ _______ _______ _____ _____    ______ ____
ROOT
ATOM      1  C   LIG    1        1.107  -0.032  -0.348  0.00  0.00    +0.121 C 
ENDROOT
BRANCH   1   2
ATOM      2  C   LIG    1        2.183   0.889   0.090  0.00  0.00    -0.010 A 
ATOM      3  C   LIG    1        2.032   2.218   0.342  0.00  0.00    +0.022 A 
ATOM      4  C   LIG    1        3.085   3.035   0.783  0.00  0.00    +0.019 A 
ATOM      5 BR   LIG    1        2.784   4.888   1.111  0.00  0.00    -0.050 Br
ATOM      6  C   LIG    1        4.332   2.478   0.975  0.00  0.00    +0.032 A 
ATOM      7  C   LIG    1        4.482   1.129   0.719  0.00  0.00    +0.040 A 
ATOM      8 BR   LIG    1        6.202   0.298   0.971  0.00  0.00    -0.048 Br
ATOM      9  C   LIG    1        3.463   0.343   0.292  0.00  0.00    +0.052 A 
BRANCH   9  10
ATOM     10  N   LIG    1        3.650  -1.039   0.033  0.00  0.00    -0.285 N 
ATOM     11  H   LIG    1        3.500  -1.780   0.747  0.00  0.00    +0.155 HD
ATOM     12  C   LIG    1        4.062  -1.460  -1.258  0.00  0.00    +0.214 C 
ATOM     13  C   LIG    1        4.269  -2.894  -1.573  0.00  0.00    +0.109 C 
ATOM     14  O   LIG    1        4.266  -0.628  -2.178  0.00  0.00    -0.276 OA
ENDBRANCH   9  10
ENDBRANCH   1   2
BRANCH   1  15
ATOM     15  N   LIG    1       -0.097   0.656  -0.554  0.00  0.00    -0.295 NA
ATOM     16  C   LIG    1       -0.112   1.552  -1.642  0.00  0.00    +0.105 C 
BRANCH  15  17
ATOM     17  C   LIG    1       -1.311   0.107  -0.102  0.00  0.00    +0.023 C 
ATOM     18  C   LIG    1       -1.304  -0.084   1.402  0.00  0.00    +0.026 C 
ATOM     19  C   LIG    1       -2.651  -0.566   1.878  0.00  0.00    -0.009 C 
ATOM     20  C   LIG    1       -3.723   0.451   1.583  0.00  0.00    +0.007 C 
ATOM     21  C   LIG    1       -3.754   0.673   0.094  0.00  0.00    -0.009 C 
ATOM     22  C   LIG    1       -4.118  -0.604  -0.594  0.00  0.00    +0.007 C 
ATOM     23  C   LIG    1       -3.058  -1.631  -0.270  0.00  0.00    -0.009 C 
ATOM     24  C   LIG    1       -3.059  -1.860   1.224  0.00  0.00    +0.007 C 
ATOM     25  C   LIG    1       -2.413   1.140  -0.376  0.00  0.00    +0.026 C 
ATOM     26  C   LIG    1       -1.691  -1.202  -0.728  0.00  0.00    +0.026 C 
ENDBRANCH  15  17
ENDBRANCH   1  15
TORSDOF 4
