REMARK  Name = molecules/HJJDBAOLQAWBMH-YCRCPZNHSA-N.pdb
REMARK                            x       y       z     vdW  Elec       q    Type
REMARK                         _______ _______ _______ _____ _____    ______ ____
ROOT
ATOM      1  CA  LIG    1        0.848  -1.342  -1.429  0.00  0.00    +0.191 C 
ATOM      2  C   LIG    1       -0.099  -1.988  -0.458  0.00  0.00    +0.169 C 
ATOM      3  S   LIG    1       -0.051  -1.325   1.219  0.00  0.00    -0.131 S 
ATOM      4  C   LIG    1       -1.734  -1.155   1.781  0.00  0.00    +0.104 C 
ATOM      5  C   LIG    1       -2.747  -1.313   0.708  0.00  0.00    -0.021 C 
ATOM      6  CA  LIG    1       -2.493  -1.350  -0.584  0.00  0.00    +0.123 C 
ATOM      7  N   LIG    1       -1.153  -1.250  -1.124  0.00  0.00    -0.249 N 
ATOM      8  C   LIG    1       -0.290  -0.720  -2.095  0.00  0.00    +0.244 C 
ATOM      9  O   LIG    1       -0.433  -0.008  -3.115  0.00  0.00    -0.273 OA
ENDROOT
BRANCH   1  10
ATOM     10  N   LIG    1        1.814  -0.437  -0.837  0.00  0.00    -0.296 N 
ATOM     11  H   LIG    1        1.479   0.317  -0.216  0.00  0.00    +0.150 HD
ATOM     12  C   LIG    1        3.177  -0.622  -1.132  0.00  0.00    +0.268 C 
ATOM     13  O   LIG    1        3.450  -1.610  -1.925  0.00  0.00    -0.268 OA
BRANCH  12  14
ATOM     14  C   LIG    1        4.306   0.141  -0.670  0.00  0.00    +0.190 C 
ATOM     15  N   LIG    1        5.492  -0.216  -1.077  0.00  0.00    -0.078 NA
BRANCH  14  16
ATOM     16  C   LIG    1        4.131   1.279   0.227  0.00  0.00    +0.107 A 
ATOM     17  N   LIG    1        2.981   1.690   0.671  0.00  0.00    -0.223 NA
ATOM     18  C   LIG    1        2.896   2.723   1.476  0.00  0.00    +0.156 A 
ATOM     19  S   LIG    1        4.524   3.187   1.652  0.00  0.00    -0.060 S 
ATOM     20  C   LIG    1        5.239   2.001   0.659  0.00  0.00    +0.078 A 
BRANCH  18  21
ATOM     21  N   LIG    1        1.696   3.290   2.046  0.00  0.00    -0.338 N 
ATOM     22  H   LIG    1        1.761   3.584   3.040  0.00  0.00    +0.144 HD
ATOM     23  H   LIG    1        0.840   3.381   1.465  0.00  0.00    +0.144 HD
ENDBRANCH  18  21
ENDBRANCH  14  16
BRANCH  15  24
ATOM     24  O   LIG    1        5.703  -1.267  -1.909  0.00  0.00    -0.396 OA
ATOM     25  C   LIG    1        6.383  -2.457  -1.489  0.00  0.00    +0.313 C 
ENDBRANCH  15  24
ENDBRANCH  12  14
ENDBRANCH   1  10
BRANCH   6  26
ATOM     26  C   LIG    1       -3.528  -1.390  -1.625  0.00  0.00    +0.351 C 
ATOM     27  O   LIG    1       -3.235  -1.447  -2.855  0.00  0.00    -0.244 OA
BRANCH  26  28
ATOM     28  OXT LIG    1       -4.865  -1.363  -1.350  0.00  0.00    -0.476 OA
ATOM     29  HXT LIG    1       -5.596  -1.700  -1.939  0.00  0.00    +0.295 HD
ENDBRANCH  26  28
ENDBRANCH   6  26
BRANCH   5  30
ATOM     30  C   LIG    1       -4.136  -1.513   1.228  0.00  0.00    +0.111 C 
BRANCH  30  31
ATOM     31  S   LIG    1       -4.768  -0.069   2.075  0.00  0.00    -0.080 S 
BRANCH  31  32
ATOM     32  C   LIG    1       -5.009   1.328   0.996  0.00  0.00    +0.209 A 
ATOM     33  N   LIG    1       -4.156   2.306   0.671  0.00  0.00    -0.223 N 
ATOM     34  C   LIG    1       -2.803   2.449   1.147  0.00  0.00    +0.177 C 
ATOM     35  N   LIG    1       -4.748   3.138  -0.164  0.00  0.00    -0.043 NA
ATOM     36  N   LIG    1       -5.986   2.731  -0.402  0.00  0.00    -0.022 NA
ATOM     37  N   LIG    1       -6.150   1.625   0.305  0.00  0.00    -0.102 NA
ENDBRANCH  31  32
ENDBRANCH  30  31
ENDBRANCH   5  30
TORSDOF 10
