REMARK  Name = molecules/HJLSLZFTEKNLFI-UHFFFAOYSA-N.pdb
REMARK                            x       y       z     vdW  Elec       q    Type
REMARK                         _______ _______ _______ _____ _____    ______ ____
ROOT
ATOM      1  N   LIG    1       -1.831  -0.186   0.096  0.00  0.00    -0.308 N 
ATOM      2  C   LIG    1       -2.364   0.745   0.926  0.00  0.00    +0.108 A 
ATOM      3  C   LIG    1       -1.749   1.174   2.221  0.00  0.00    +0.086 C 
ATOM      4  N   LIG    1       -3.501   1.169   0.354  0.00  0.00    -0.239 NA
ATOM      5  C   LIG    1       -3.695   0.528  -0.811  0.00  0.00    +0.164 A 
ATOM      6  C   LIG    1       -2.618  -0.342  -0.972  0.00  0.00    +0.216 A 
ENDROOT
BRANCH   6   7
ATOM      7  N   LIG    1       -2.434  -1.212  -2.084  0.00  0.00    +0.075 N 
ATOM      8  O   LIG    1       -1.470  -1.967  -2.202  0.00  0.00    -0.125 OA
ATOM      9  O   LIG    1       -3.363  -1.238  -3.106  0.00  0.00    -0.125 OA
ENDBRANCH   6   7
BRANCH   1  10
ATOM     10  C   LIG    1       -0.596  -0.892   0.353  0.00  0.00    +0.147 C 
BRANCH  10  11
ATOM     11  C   LIG    1        0.598  -0.160  -0.226  0.00  0.00    +0.187 C 
BRANCH  11  12
ATOM     12  S   LIG    1        2.106  -1.041   0.099  0.00  0.00    -0.030 S 
ATOM     13  O   LIG    1        2.227  -1.305   1.562  0.00  0.00    -0.174 OA
ATOM     14  O   LIG    1        2.033  -2.399  -0.581  0.00  0.00    -0.174 OA
BRANCH  12  15
ATOM     15  C   LIG    1        3.502  -0.203  -0.568  0.00  0.00    +0.162 C 
ATOM     16  C   LIG    1        3.658   1.183   0.021  0.00  0.00    +0.028 C 
ENDBRANCH  12  15
ENDBRANCH  11  12
ENDBRANCH  10  11
ENDBRANCH   1  10
TORSDOF 5
