REMARK  Name = molecules/HJPHIJVSRJVAGC-SSDOTTSWSA-N.pdb
REMARK                            x       y       z     vdW  Elec       q    Type
REMARK                         _______ _______ _______ _____ _____    ______ ____
ROOT
ATOM      1  C   LIG    1       -0.064  -0.789  -0.002  0.00  0.00    -0.042 C 
ENDROOT
BRANCH   1   2
ATOM      2  C   LIG    1        1.140  -0.176  -0.647  0.00  0.00    +0.131 C 
ATOM      3  O   LIG    1        1.486   1.047  -0.131  0.00  0.00    -0.350 OA
ATOM      4  C   LIG    1        2.886   1.069  -0.068  0.00  0.00    +0.323 C 
ATOM      5  O   LIG    1        3.185  -0.196   0.406  0.00  0.00    -0.352 OA
ATOM      6  C   LIG    1        2.337  -1.045  -0.298  0.00  0.00    +0.192 C 
ENDBRANCH   1   2
BRANCH   1   8
ATOM      7  C   LIG    1       -1.816  -0.025  -1.437  0.00  0.00    -0.093 C 
ATOM      8  N   LIG    1       -1.257  -0.016  -0.106  0.00  0.00    +0.376 N 
ATOM      9  C   LIG    1       -2.257  -0.659   0.761  0.00  0.00    -0.093 C 
ATOM     10  C   LIG    1       -1.142   1.340   0.326  0.00  0.00    -0.093 C 
ENDBRANCH   1   8
TORSDOF 2
