REMARK  Name = molecules/HJYYPODYNSCCOU-PTWHBISLSA-N.pdb
REMARK                            x       y       z     vdW  Elec       q    Type
REMARK                         _______ _______ _______ _____ _____    ______ ____
ROOT
ATOM      1  C   LIG    1       -3.959  -0.087  -0.427  0.00  0.00    +0.071 A 
ATOM      2  C   LIG    1       -4.497   1.165   0.007  0.00  0.00    +0.149 A 
ATOM      3  C   LIG    1       -3.701   2.118   0.676  0.00  0.00    +0.080 A 
ATOM      4  N   LIG    1       -4.050   3.486   1.037  0.00  0.00    -0.282 N 
ATOM      5  H   LIG    1       -4.693   3.825   1.866  0.00  0.00    +0.155 HD
ATOM      6  C   LIG    1       -3.509   4.615   0.307  0.00  0.00    +0.224 C 
ATOM      7  O   LIG    1       -3.204   5.622   1.084  0.00  0.00    -0.275 OA
ATOM      8  C   LIG    1       -3.238   4.861  -1.063  0.00  0.00    +0.062 C 
ATOM      9  C   LIG    1       -3.421   6.276  -1.668  0.00  0.00    +0.022 C 
ATOM     10  C   LIG    1       -2.812   3.979  -1.950  0.00  0.00    +0.013 C 
ATOM     11  C   LIG    1       -1.784   3.003  -1.844  0.00  0.00    +0.001 C 
ATOM     12  C   LIG    1       -0.505   3.019  -1.617  0.00  0.00    +0.002 C 
ATOM     13  C   LIG    1        0.319   3.857  -0.754  0.00  0.00    +0.018 C 
ATOM     14  C   LIG    1        1.426   3.169  -0.039  0.00  0.00    +0.123 C 
ATOM     15  C   LIG    1        2.035   1.955  -0.644  0.00  0.00    +0.044 C 
ATOM     16  C   LIG    1        2.830   1.089   0.364  0.00  0.00    +0.126 C 
ATOM     17  C   LIG    1        2.680  -0.379   0.066  0.00  0.00    +0.056 C 
ATOM     18  C   LIG    1        3.030  -1.246   1.216  0.00  0.00    +0.187 C 
ATOM     19  C   LIG    1        1.944  -1.857   2.027  0.00  0.00    +0.056 C 
ATOM     20  C   LIG    1        2.315  -1.719   3.540  0.00  0.00    +0.014 C 
ATOM     21  C   LIG    1        1.586  -3.279   1.745  0.00  0.00    +0.130 C 
ATOM     22  C   LIG    1        0.088  -3.553   1.849  0.00  0.00    +0.058 C 
ATOM     23  C   LIG    1       -0.680  -4.468   1.403  0.00  0.00    +0.158 C 
ATOM     24  O   LIG    1       -1.511  -4.536   0.262  0.00  0.00    -0.327 OA
ATOM     25  C   LIG    1       -1.427  -3.943  -0.935  0.00  0.00    +0.274 C 
ATOM     26  C   LIG    1       -1.069  -2.469  -0.785  0.00  0.00    +0.238 C 
ATOM     27  C   LIG    1       -2.298  -1.740  -0.714  0.00  0.00    +0.078 A 
ATOM     28  C   LIG    1       -3.216  -2.586  -1.293  0.00  0.00    +0.142 A 
ATOM     29  C   LIG    1       -4.539  -2.233  -1.473  0.00  0.00    +0.034 A 
ATOM     30  C   LIG    1       -5.498  -3.151  -2.099  0.00  0.00    +0.051 C 
ATOM     31  O   LIG    1        0.176  -2.325  -0.775  0.00  0.00    -0.285 OA
ATOM     32  O   LIG    1       -2.601  -3.782  -1.659  0.00  0.00    -0.453 OA
ATOM     33  C   LIG    1       -0.425  -4.540  -1.908  0.00  0.00    +0.098 C 
ATOM     34  C   LIG    1        3.391  -0.726  -1.220  0.00  0.00    +0.014 C 
ATOM     35  C   LIG    1        3.071   2.390  -1.700  0.00  0.00    +0.013 C 
ATOM     36  C   LIG    1        0.805   5.102  -1.499  0.00  0.00    +0.010 C 
ATOM     37  C   LIG    1       -2.391   1.687   0.854  0.00  0.00    +0.073 A 
ATOM     38  C   LIG    1       -1.875   0.463   0.416  0.00  0.00    +0.127 A 
ATOM     39  C   LIG    1       -2.621  -0.471  -0.248  0.00  0.00    +0.045 A 
ATOM     40  C   LIG    1       -4.854  -0.974  -1.026  0.00  0.00    +0.135 A 
ENDROOT
BRANCH  14  41
ATOM     41  O   LIG    1        2.511   4.116   0.069  0.00  0.00    -0.391 OA
ATOM     42  H   LIG    1        2.317   4.747   0.788  0.00  0.00    +0.210 HD
ENDBRANCH  14  41
BRANCH  16  43
ATOM     43  O   LIG    1        2.594   1.455   1.661  0.00  0.00    -0.391 OA
ATOM     44  H   LIG    1        2.088   0.856   2.222  0.00  0.00    +0.210 HD
ENDBRANCH  16  43
BRANCH  21  45
ATOM     45  O   LIG    1        2.226  -4.042   2.703  0.00  0.00    -0.379 OA
ATOM     46  C   LIG    1        3.066  -5.017   2.339  0.00  0.00    +0.194 C 
ENDBRANCH  21  45
BRANCH  38  47
ATOM     47  O   LIG    1       -0.507   0.465   0.817  0.00  0.00    -0.506 OA
ATOM     48  H   LIG    1       -0.068   1.155   1.321  0.00  0.00    +0.292 HD
ENDBRANCH  38  47
BRANCH   2  49
ATOM     49  O   LIG    1       -5.812   1.093  -0.403  0.00  0.00    -0.504 OA
ATOM     50  H   LIG    1       -6.660   1.463  -0.416  0.00  0.00    +0.292 HD
ENDBRANCH   2  49
BRANCH  40  51
ATOM     51  O   LIG    1       -6.215  -0.665  -1.243  0.00  0.00    -0.506 OA
ATOM     52  H   LIG    1       -6.875  -1.273  -1.664  0.00  0.00    +0.292 HD
ENDBRANCH  40  51
BRANCH  18  53
ATOM     53  O   LIG    1        4.117  -2.113   0.966  0.00  0.00    -0.461 OA
BRANCH  53  54
ATOM     54  C   LIG    1        5.376  -2.039   1.454  0.00  0.00    +0.304 C 
ATOM     55  O   LIG    1        5.615  -1.091   2.219  0.00  0.00    -0.251 OA
ATOM     56  C   LIG    1        6.379  -3.054   1.068  0.00  0.00    +0.136 C 
ENDBRANCH  53  54
ENDBRANCH  18  53
TORSDOF 8
