REMARK  Name = molecules/HJZKOAYDRQLPME-UHFFFAOYSA-N.pdb
REMARK                            x       y       z     vdW  Elec       q    Type
REMARK                         _______ _______ _______ _____ _____    ______ ____
ROOT
ATOM      1  C   LIG    1       -0.015  -0.613   0.095  0.00  0.00    +0.342 C 
ENDROOT
BRANCH   1   2
ATOM      2  O   LIG    1        0.617  -1.629  -0.646  0.00  0.00    -0.370 OA
ATOM      3  H   LIG    1        0.924  -1.310  -1.522  0.00  0.00    +0.211 HD
ENDBRANCH   1   2
BRANCH   1   4
ATOM      4  P   LIG    1        1.163   0.716   0.361  0.00  0.00    +0.368 P 
ATOM      5  O   LIG    1        0.463   2.044   0.224  0.00  0.00    -0.255 OA
BRANCH   4   6
ATOM      6  O   LIG    1        1.919   0.565   1.883  0.00  0.00    -0.322 OA
ATOM      7  H   LIG    1        2.112  -0.408   1.979  0.00  0.00    +0.220 HD
ENDBRANCH   4   6
BRANCH   4   8
ATOM      8  O   LIG    1        2.360   0.628  -0.833  0.00  0.00    -0.322 OA
ATOM      9  H   LIG    1        3.118   0.059  -0.523  0.00  0.00    +0.220 HD
ENDBRANCH   4   8
ENDBRANCH   1   4
BRANCH   1  10
ATOM     10  P   LIG    1       -1.538  -0.098  -0.661  0.00  0.00    +0.368 P 
ATOM     11  O   LIG    1       -1.562  -0.594  -2.104  0.00  0.00    -0.255 OA
BRANCH  10  12
ATOM     12  O   LIG    1       -2.840  -0.884   0.115  0.00  0.00    -0.322 OA
ATOM     13  H   LIG    1       -2.675  -0.915   1.094  0.00  0.00    +0.220 HD
ENDBRANCH  10  12
BRANCH  10  14
ATOM     14  O   LIG    1       -1.766   1.559  -0.701  0.00  0.00    -0.322 OA
ATOM     15  H   LIG    1       -2.062   1.957   0.139  0.00  0.00    +0.220 HD
ENDBRANCH  10  14
ENDBRANCH   1  10
TORSDOF 7
