REMARK  Name = molecules/HKVAMNSJSFKALM-ADNAJIBWSA-N.pdb
REMARK                            x       y       z     vdW  Elec       q    Type
REMARK                         _______ _______ _______ _____ _____    ______ ____
ROOT
ATOM      1  C   LIG    1        0.433  -2.590   0.864  0.00  0.00    +0.034 C 
ATOM      2  C   LIG    1        0.212  -3.645   1.895  0.00  0.00    +0.004 C 
ATOM      3  C   LIG    1        0.589  -5.016   1.449  0.00  0.00    +0.019 C 
ATOM      4  C   LIG    1        0.821  -5.122  -0.039  0.00  0.00    +0.109 C 
ATOM      5  N   LIG    1       -0.141  -4.329  -0.764  0.00  0.00    -0.282 N 
ATOM      6  C   LIG    1       -0.990  -4.956  -1.712  0.00  0.00    +0.288 C 
ATOM      7  C   LIG    1       -2.409  -4.756  -1.897  0.00  0.00    +0.276 C 
ATOM      8  C   LIG    1       -3.493  -4.889  -0.913  0.00  0.00    +0.240 C 
ATOM      9  C   LIG    1       -3.074  -5.495   0.400  0.00  0.00    +0.054 C 
ATOM     10  C   LIG    1       -4.244  -5.535   1.329  0.00  0.00    +0.011 C 
ATOM     11  C   LIG    1       -5.558  -5.266   0.663  0.00  0.00    +0.032 C 
ATOM     12  C   LIG    1       -5.491  -4.054  -0.236  0.00  0.00    +0.125 C 
ATOM     13  C   LIG    1       -6.152  -2.907   0.506  0.00  0.00    +0.063 C 
ATOM     14  C   LIG    1       -5.689  -1.561  -0.027  0.00  0.00    +0.127 C 
ATOM     15  C   LIG    1       -4.622  -1.000   0.861  0.00  0.00    +0.006 C 
ATOM     16  C   LIG    1       -4.711  -0.813   2.143  0.00  0.00    +0.006 C 
ATOM     17  C   LIG    1       -5.774  -0.201   2.923  0.00  0.00    +0.000 C 
ATOM     18  C   LIG    1       -6.168   1.057   2.874  0.00  0.00    +0.000 C 
ATOM     19  C   LIG    1       -5.391   2.252   2.662  0.00  0.00    -0.000 C 
ATOM     20  C   LIG    1       -4.665   2.563   1.604  0.00  0.00    -0.001 C 
ATOM     21  C   LIG    1       -5.116   2.647   0.199  0.00  0.00    -0.010 C 
ATOM     22  C   LIG    1       -6.461   3.307   0.014  0.00  0.00    +0.008 C 
ATOM     23  C   LIG    1       -4.059   3.222  -0.683  0.00  0.00    +0.014 C 
ATOM     24  C   LIG    1       -3.951   4.726  -0.658  0.00  0.00    +0.055 C 
ATOM     25  C   LIG    1       -3.903   5.290   0.722  0.00  0.00    +0.015 C 
ATOM     26  C   LIG    1       -2.683   5.056  -1.356  0.00  0.00    +0.167 C 
ATOM     27  C   LIG    1       -1.826   6.170  -0.929  0.00  0.00    +0.213 C 
ATOM     28  C   LIG    1       -0.342   5.761  -0.942  0.00  0.00    +0.157 C 
ATOM     29  C   LIG    1        0.022   5.263   0.413  0.00  0.00    +0.009 C 
ATOM     30  C   LIG    1       -0.025   6.258   1.535  0.00  0.00    +0.015 C 
ATOM     31  C   LIG    1        0.375   4.006   0.644  0.00  0.00    +0.012 C 
ATOM     32  C   LIG    1        1.213   3.193  -0.314  0.00  0.00    +0.056 C 
ATOM     33  C   LIG    1        1.872   2.075   0.419  0.00  0.00    +0.140 C 
ATOM     34  O   LIG    1        2.800   2.388   1.141  0.00  0.00    -0.297 OA
ATOM     35  C   LIG    1        1.458   0.654   0.309  0.00  0.00    +0.119 C 
ATOM     36  C   LIG    1        1.762   0.075  -1.043  0.00  0.00    +0.186 C 
ATOM     37  O   LIG    1        1.571  -1.264  -1.126  0.00  0.00    -0.459 OA
ATOM     38  C   LIG    1        0.727  -2.197  -1.509  0.00  0.00    +0.328 C 
ATOM     39  O   LIG    1        0.504  -2.664  -2.684  0.00  0.00    -0.249 OA
ATOM     40  C   LIG    1        2.322   4.051  -0.904  0.00  0.00    +0.016 C 
ATOM     41  O   LIG    1       -2.368   4.364  -2.312  0.00  0.00    -0.294 OA
ATOM     42  C   LIG    1       -3.331  -0.630   0.172  0.00  0.00    +0.015 C 
ATOM     43  C   LIG    1       -2.611  -6.916   0.150  0.00  0.00    +0.013 C 
ATOM     44  O   LIG    1       -4.194  -3.736  -0.641  0.00  0.00    -0.339 OA
ATOM     45  O   LIG    1       -2.781  -4.419  -3.079  0.00  0.00    -0.281 OA
ATOM     46  O   LIG    1       -0.364  -5.803  -2.483  0.00  0.00    -0.267 OA
ATOM     47  C   LIG    1       -0.152  -2.882  -0.482  0.00  0.00    +0.185 C 
ENDROOT
BRANCH  36  48
ATOM     48  C   LIG    1        3.250   0.379  -1.374  0.00  0.00    +0.027 C 
ATOM     49  C   LIG    1        3.494  -0.099  -2.803  0.00  0.00    +0.011 C 
BRANCH  48  50
ATOM     50  C   LIG    1        4.090  -0.320  -0.377  0.00  0.00    +0.010 C 
BRANCH  50  51
ATOM     51  C   LIG    1        5.562  -0.182  -0.450  0.00  0.00    -0.008 C 
ATOM     52  C   LIG    1        6.097  -1.001   0.766  0.00  0.00    +0.037 C 
ATOM     53  C   LIG    1        7.536  -0.657   1.004  0.00  0.00    +0.147 C 
ATOM     54  C   LIG    1        8.327  -1.022  -0.235  0.00  0.00    +0.147 C 
ATOM     55  C   LIG    1        7.437  -1.661  -1.251  0.00  0.00    +0.034 C 
ATOM     56  C   LIG    1        6.232  -0.793  -1.630  0.00  0.00    +0.006 C 
BRANCH  53  57
ATOM     57  O   LIG    1        7.983  -1.252   2.154  0.00  0.00    -0.377 OA
ATOM     58  C   LIG    1        8.357  -0.331   3.133  0.00  0.00    +0.194 C 
ENDBRANCH  53  57
BRANCH  54  59
ATOM     59  O   LIG    1        8.873   0.122  -0.795  0.00  0.00    -0.372 OA
BRANCH  59  60
ATOM     60  C   LIG    1       10.252   0.078  -0.893  0.00  0.00    +0.188 C 
BRANCH  60  61
ATOM     61  C   LIG    1       10.974  -0.050   0.411  0.00  0.00    +0.184 C 
BRANCH  61  62
ATOM     62  O   LIG    1       12.347  -0.076   0.109  0.00  0.00    -0.393 OA
ATOM     63  H   LIG    1       12.525  -0.921  -0.403  0.00  0.00    +0.209 HD
ENDBRANCH  61  62
ENDBRANCH  60  61
ENDBRANCH  59  60
ENDBRANCH  54  59
ENDBRANCH  50  51
ENDBRANCH  48  50
ENDBRANCH  36  48
BRANCH  28  64
ATOM     64  O   LIG    1       -0.179   4.812  -1.930  0.00  0.00    -0.388 OA
ATOM     65  H   LIG    1       -0.148   5.283  -2.801  0.00  0.00    +0.210 HD
ENDBRANCH  28  64
BRANCH  27  66
ATOM     66  O   LIG    1       -2.005   7.288  -1.741  0.00  0.00    -0.370 OA
ATOM     67  C   LIG    1       -2.358   8.427  -1.055  0.00  0.00    +0.195 C 
ENDBRANCH  27  66
BRANCH  14  68
ATOM     68  O   LIG    1       -5.308  -1.621  -1.337  0.00  0.00    -0.379 OA
ATOM     69  C   LIG    1       -6.171  -0.850  -2.107  0.00  0.00    +0.194 C 
ENDBRANCH  14  68
BRANCH   8  70
ATOM     70  O   LIG    1       -4.437  -5.764  -1.516  0.00  0.00    -0.358 OA
ATOM     71  H   LIG    1       -4.492  -5.601  -2.491  0.00  0.00    +0.213 HD
ENDBRANCH   8  70
TORSDOF 12
