REMARK  Name = molecules/HKXBNHCUPKIYDM-CGMHZMFXSA-N.pdb
REMARK                            x       y       z     vdW  Elec       q    Type
REMARK                         _______ _______ _______ _____ _____    ______ ____
ROOT
ATOM      1  C   LIG    1       -1.321  -0.974  -1.242  0.00  0.00    +0.012 C 
ATOM      2  C   LIG    1       -0.484  -0.952  -0.017  0.00  0.00    -0.022 C 
ATOM      3  C   LIG    1       -1.136  -1.517   1.223  0.00  0.00    +0.008 C 
ATOM      4  C   LIG    1       -2.578  -1.071   1.217  0.00  0.00    +0.005 C 
ATOM      5  C   LIG    1       -2.799   0.345   0.873  0.00  0.00    +0.031 C 
ATOM      6  C   LIG    1       -1.647   1.115   0.407  0.00  0.00    -0.066 C 
ATOM      7  C   LIG    1       -1.907   2.395   0.052  0.00  0.00    -0.000 C 
ATOM      8  C   LIG    1       -0.314   0.542   0.339  0.00  0.00    +0.021 C 
ATOM      9  C   LIG    1        0.525   0.971  -0.834  0.00  0.00    +0.009 C 
ATOM     10  C   LIG    1        1.456  -0.209  -1.082  0.00  0.00    +0.005 C 
ATOM     11  C   LIG    1        0.931  -1.344  -0.185  0.00  0.00    +0.002 C 
ENDROOT
BRANCH   7  12
ATOM     12  C   LIG    1       -3.249   2.891   0.146  0.00  0.00    +0.004 C 
ATOM     13  C   LIG    1       -3.562   4.112  -0.213  0.00  0.00    -0.040 C 
ATOM     14  C   LIG    1       -4.907   4.735  -0.098  0.00  0.00    +0.067 C 
ATOM     15  C   LIG    1       -4.761   6.031   0.655  0.00  0.00    +0.122 C 
ATOM     16  C   LIG    1       -3.349   6.388   1.023  0.00  0.00    +0.067 C 
ATOM     17  C   LIG    1       -2.404   6.355  -0.170  0.00  0.00    +0.147 C 
ATOM     18  C   LIG    1       -2.480   4.956  -0.738  0.00  0.00    -0.023 C 
ATOM     19  C   LIG    1       -1.675   4.501  -1.675  0.00  0.00    +0.015 C 
BRANCH  15  20
ATOM     20  O   LIG    1       -5.574   6.068   1.789  0.00  0.00    -0.391 OA
ATOM     21  H   LIG    1       -5.285   6.878   2.310  0.00  0.00    +0.210 HD
ENDBRANCH  15  20
BRANCH  17  22
ATOM     22  O   LIG    1       -2.765   7.276  -1.126  0.00  0.00    -0.387 OA
ATOM     23  H   LIG    1       -2.208   7.157  -1.936  0.00  0.00    +0.210 HD
ENDBRANCH  17  22
ENDBRANCH   7  12
BRANCH  11  24
ATOM     24  C   LIG    1        1.169  -2.628  -0.921  0.00  0.00    +0.012 C 
ATOM     25  C   LIG    1        0.443  -3.808  -0.372  0.00  0.00    +0.012 C 
BRANCH  24  26
ATOM     26  C   LIG    1        2.661  -2.882  -0.983  0.00  0.00    -0.027 C 
ATOM     27  C   LIG    1        3.235  -3.993  -0.557  0.00  0.00    -0.027 C 
BRANCH  27  28
ATOM     28  C   LIG    1        4.735  -4.178  -0.650  0.00  0.00    +0.011 C 
ATOM     29  C   LIG    1        4.969  -5.407  -1.493  0.00  0.00    +0.012 C 
BRANCH  28  30
ATOM     30  C   LIG    1        5.324  -4.410   0.713  0.00  0.00    -0.011 C 
ATOM     31  C   LIG    1        5.133  -3.196   1.610  0.00  0.00    +0.008 C 
ATOM     32  C   LIG    1        4.774  -5.629   1.388  0.00  0.00    +0.008 C 
ENDBRANCH  28  30
ENDBRANCH  27  28
ENDBRANCH  24  26
ENDBRANCH  11  24
TORSDOF 7
