REMARK  Name = molecules/HLNLBEFKHHCAMV-UHFFFAOYSA-N.pdb
REMARK                            x       y       z     vdW  Elec       q    Type
REMARK                         _______ _______ _______ _____ _____    ______ ____
ROOT
ATOM      1  C   LIG    1       -3.201   0.080   0.448  0.00  0.00    +0.080 A 
ATOM      2  C   LIG    1       -1.906  -0.309   0.216  0.00  0.00    +0.041 A 
ATOM      3  C   LIG    1       -1.548  -0.574  -1.120  0.00  0.00    +0.024 A 
ATOM      4  C   LIG    1       -2.449  -0.451  -2.157  0.00  0.00    +0.002 A 
ATOM      5  C   LIG    1       -3.746  -0.060  -1.916  0.00  0.00    +0.001 A 
ATOM      6  C   LIG    1       -4.103   0.199  -0.625  0.00  0.00    +0.017 A 
ENDROOT
BRANCH   1   7
ATOM      7  C   LIG    1       -3.671   0.399   1.784  0.00  0.00    +0.339 C 
ATOM      8  O   LIG    1       -2.981   0.358   2.801  0.00  0.00    -0.245 OA
BRANCH   7   9
ATOM      9  O   LIG    1       -5.032   0.784   1.899  0.00  0.00    -0.477 OA
ATOM     10  H   LIG    1       -5.700   0.019   1.993  0.00  0.00    +0.295 HD
ENDBRANCH   7   9
ENDBRANCH   1   7
BRANCH   2  11
ATOM     11  N   LIG    1       -0.953  -0.494   1.229  0.00  0.00    -0.343 N 
ATOM     12  H   LIG    1       -1.169  -0.493   2.241  0.00  0.00    +0.146 HD
BRANCH  11  13
ATOM     13  C   LIG    1        0.463  -0.728   0.932  0.00  0.00    +0.106 C 
BRANCH  13  14
ATOM     14  C   LIG    1        1.027   0.576   0.400  0.00  0.00    +0.054 C 
BRANCH  14  15
ATOM     15  C   LIG    1        2.466   0.423   0.057  0.00  0.00    -0.046 A 
ATOM     16  C   LIG    1        3.412   0.680   1.020  0.00  0.00    +0.004 A 
ATOM     17  C   LIG    1        4.740   0.534   0.688  0.00  0.00    +0.000 A 
ATOM     18  C   LIG    1        5.119   0.141  -0.578  0.00  0.00    +0.000 A 
ATOM     19  C   LIG    1        4.187  -0.117  -1.542  0.00  0.00    +0.000 A 
ATOM     20  C   LIG    1        2.837   0.030  -1.210  0.00  0.00    +0.004 A 
ENDBRANCH  14  15
ENDBRANCH  13  14
ENDBRANCH  11  13
ENDBRANCH   2  11
TORSDOF 6
