REMARK  Name = molecules/HLSLSXBFTXUKCY-RQJHMYQMSA-N.pdb
REMARK                            x       y       z     vdW  Elec       q    Type
REMARK                         _______ _______ _______ _____ _____    ______ ____
ROOT
ATOM      1  C   LIG    1        1.365   0.234  -0.389  0.00  0.00    +0.224 C 
ATOM      2  N   LIG    1        1.804   0.990   0.725  0.00  0.00    -0.240 N 
ATOM      3  H   LIG    1        1.351   0.896   1.673  0.00  0.00    +0.159 HD
ATOM      4  C   LIG    1        2.876   1.894   0.575  0.00  0.00    +0.303 C 
ATOM      5  O   LIG    1        3.259   2.556   1.559  0.00  0.00    -0.253 OA
ATOM      6  N   LIG    1        3.514   2.052  -0.675  0.00  0.00    -0.313 N 
ATOM      7  H   LIG    1        4.220   1.353  -1.036  0.00  0.00    +0.146 HD
ATOM      8  H   LIG    1        3.335   2.858  -1.319  0.00  0.00    +0.146 HD
ATOM      9  O   LIG    1        1.929   0.379  -1.482  0.00  0.00    -0.275 OA
ENDROOT
BRANCH   1  10
ATOM     10  C   LIG    1        0.230  -0.751  -0.316  0.00  0.00    +0.078 C 
BRANCH  10  11
ATOM     11  C   LIG    1        0.702  -1.825   0.596  0.00  0.00    +0.009 C 
ATOM     12  C   LIG    1       -0.200  -2.963   0.867  0.00  0.00    +0.004 C 
ENDBRANCH  10  11
BRANCH  10  13
ATOM     13  C   LIG    1       -1.035  -0.043   0.110  0.00  0.00    -0.003 C 
ATOM     14  C   LIG    1       -2.213  -0.973  -0.033  0.00  0.00    +0.008 C 
BRANCH  13  15
ATOM     15  C   LIG    1       -1.265   1.037  -0.970  0.00  0.00    +0.000 C 
ATOM     16  C   LIG    1       -2.507   1.828  -0.667  0.00  0.00    +0.004 C 
ENDBRANCH  13  15
ENDBRANCH  10  13
ENDBRANCH   1  10
TORSDOF 4
