REMARK  Name = molecules/HMABYWSNWIZPAG-UHFFFAOYSA-N.pdb
REMARK                            x       y       z     vdW  Elec       q    Type
REMARK                         _______ _______ _______ _____ _____    ______ ____
ROOT
ATOM      1  C   LIG    1       -3.619   2.613  -1.059  0.00  0.00    +0.064 A 
ATOM      2  C   LIG    1       -2.612   1.743  -0.653  0.00  0.00    +0.051 A 
ATOM      3  C   LIG    1       -2.939   0.533  -0.124  0.00  0.00    +0.016 A 
ATOM      4  C   LIG    1       -1.765  -0.176   0.217  0.00  0.00    -0.012 A 
ATOM      5  C   LIG    1       -1.789  -1.545   0.720  0.00  0.00    +0.056 C 
ATOM      6  C   LIG    1       -2.616  -1.733   1.985  0.00  0.00    +0.109 C 
ATOM      7  N   LIG    1       -4.041  -1.857   1.619  0.00  0.00    -0.311 N 
ATOM      8  H   LIG    1       -4.627  -2.550   2.124  0.00  0.00    +0.149 HD
ATOM      9  C   LIG    1       -4.746  -1.110   0.613  0.00  0.00    +0.245 C 
ATOM     10  O   LIG    1       -5.833  -1.496   0.182  0.00  0.00    -0.270 OA
ATOM     11  C   LIG    1       -0.751   0.643  -0.115  0.00  0.00    +0.051 A 
ATOM     12  C   LIG    1       -4.250   0.150   0.020  0.00  0.00    +0.049 A 
ATOM     13  C   LIG    1       -5.273   0.985  -0.371  0.00  0.00    +0.052 A 
ATOM     14  N   LIG    1       -1.274   1.801  -0.642  0.00  0.00    -0.354 N 
ATOM     15  H   LIG    1       -0.740   2.623  -0.993  0.00  0.00    +0.166 HD
ATOM     16  C   LIG    1       -4.926   2.204  -0.905  0.00  0.00    +0.126 A 
ATOM     17  F   LIG    1       -5.920   3.039  -1.296  0.00  0.00    -0.205 F 
ENDROOT
BRANCH  11  18
ATOM     18  C   LIG    1        0.678   0.458  -0.038  0.00  0.00    -0.001 A 
ATOM     19  C   LIG    1        1.310  -0.374   0.840  0.00  0.00    +0.010 A 
ATOM     20  C   LIG    1        2.712  -0.473   0.917  0.00  0.00    +0.005 A 
ATOM     21  C   LIG    1        3.509   0.277   0.100  0.00  0.00    -0.034 A 
ATOM     22  C   LIG    1        2.899   1.125  -0.793  0.00  0.00    +0.005 A 
ATOM     23  C   LIG    1        1.534   1.209  -0.856  0.00  0.00    +0.010 A 
BRANCH  21  24
ATOM     24  C   LIG    1        4.978   0.171   0.183  0.00  0.00    +0.116 C 
BRANCH  24  25
ATOM     25  N   LIG    1        5.380  -0.880  -0.750  0.00  0.00    -0.315 NA
ATOM     26  H   LIG    1        4.816  -1.743  -0.582  0.00  0.00    +0.122 HD
ATOM     27  C   LIG    1        6.794  -1.095  -0.773  0.00  0.00    +0.101 C 
ENDBRANCH  24  25
ENDBRANCH  21  24
ENDBRANCH  11  18
TORSDOF 3
