REMARK  Name = molecules/HMEDEBAJARCKCT-UHFFFAOYSA-N.pdb
REMARK                            x       y       z     vdW  Elec       q    Type
REMARK                         _______ _______ _______ _____ _____    ______ ____
ROOT
ATOM      1  C   LIG    1       -0.256   0.189   0.290  0.00  0.00    +0.040 A 
ATOM      2  C   LIG    1       -0.562   1.212   1.161  0.00  0.00    +0.045 A 
ATOM      3  C   LIG    1       -1.877   1.503   1.443  0.00  0.00    +0.069 A 
ATOM      4 CL   LIG    1       -2.319   2.802   2.551  0.00  0.00    -0.081 Cl
ATOM      5  C   LIG    1       -2.909   0.792   0.873  0.00  0.00    +0.124 A 
ATOM      6  C   LIG    1       -2.615  -0.227   0.002  0.00  0.00    +0.043 A 
ATOM      7  C   LIG    1       -1.268  -0.523  -0.288  0.00  0.00    +0.043 A 
ENDROOT
BRANCH   7   8
ATOM      8  C   LIG    1       -1.093  -1.521  -1.333  0.00  0.00    +0.181 A 
ATOM      9  N   LIG    1       -1.998  -2.530  -1.571  0.00  0.00    -0.108 NA
ATOM     10  N   LIG    1       -1.476  -3.261  -2.533  0.00  0.00    -0.023 NA
ATOM     11  N   LIG    1       -0.315  -2.765  -2.900  0.00  0.00    -0.046 NA
ATOM     12  N   LIG    1       -0.064  -1.668  -2.152  0.00  0.00    -0.239 N 
ATOM     13  H   LIG    1        0.803  -1.073  -2.288  0.00  0.00    +0.192 HD
ENDBRANCH   7   8
BRANCH   5  14
ATOM     14  S   LIG    1       -4.594   1.180   1.252  0.00  0.00    +0.057 S 
ATOM     15  O   LIG    1       -4.819   0.966   2.733  0.00  0.00    -0.153 OA
ATOM     16  O   LIG    1       -4.821   2.598   0.859  0.00  0.00    -0.153 OA
BRANCH  14  17
ATOM     17  N   LIG    1       -5.649   0.121   0.387  0.00  0.00    -0.203 NA
ATOM     18  H   LIG    1       -5.690  -0.815   0.844  0.00  0.00    +0.144 HD
ATOM     19  H   LIG    1       -5.306   0.057  -0.602  0.00  0.00    +0.144 HD
ENDBRANCH  14  17
ENDBRANCH   5  14
BRANCH   1  20
ATOM     20  N   LIG    1        1.105  -0.170   0.122  0.00  0.00    -0.339 N 
ATOM     21  H   LIG    1        1.458  -1.045  -0.287  0.00  0.00    +0.146 HD
BRANCH  20  22
ATOM     22  C   LIG    1        2.104   0.774   0.633  0.00  0.00    +0.144 C 
BRANCH  22  23
ATOM     23  C   LIG    1        3.479   0.256   0.319  0.00  0.00    +0.007 A 
ATOM     24  C   LIG    1        4.680   0.837   0.622  0.00  0.00    +0.013 A 
ATOM     25  C   LIG    1        5.787   0.180   0.236  0.00  0.00    +0.008 A 
ATOM     26  C   LIG    1        5.624  -1.008  -0.423  0.00  0.00    +0.045 A 
ATOM     27  S   LIG    1        3.929  -1.174  -0.486  0.00  0.00    -0.100 S 
ENDBRANCH  22  23
ENDBRANCH  20  22
ENDBRANCH   1  20
TORSDOF 6
