REMARK  Name = molecules/HMEYVGGHISAPJR-IAHYZSEUSA-N.pdb
REMARK                            x       y       z     vdW  Elec       q    Type
REMARK                         _______ _______ _______ _____ _____    ______ ____
ROOT
ATOM      1  C   LIG    1        0.162  -1.634   0.306  0.00  0.00    +0.129 C 
ATOM      2  C   LIG    1       -0.577  -0.357   0.461  0.00  0.00    +0.061 C 
ATOM      3  C   LIG    1       -2.030  -0.479   0.714  0.00  0.00    +0.020 C 
ATOM      4  C   LIG    1       -2.814   0.708   0.079  0.00  0.00    +0.062 C 
ATOM      5  C   LIG    1       -4.205   0.671   0.556  0.00  0.00    +0.096 C 
ATOM      6  C   LIG    1       -4.432   1.844   1.541  0.00  0.00    +0.047 C 
ATOM      7  C   LIG    1       -5.297   0.646  -0.425  0.00  0.00    -0.001 A 
ATOM      8  C   LIG    1       -6.619   0.752   0.091  0.00  0.00    +0.007 A 
ATOM      9  C   LIG    1       -7.690   0.720  -0.753  0.00  0.00    +0.004 A 
ATOM     10  C   LIG    1       -7.510   0.585  -2.091  0.00  0.00    +0.046 A 
ATOM     11  C   LIG    1       -6.225   0.480  -2.623  0.00  0.00    +0.128 A 
ATOM     12  C   LIG    1       -5.114   0.513  -1.768  0.00  0.00    +0.069 A 
ATOM     13  C   LIG    1       -3.767   0.427  -2.294  0.00  0.00    +0.197 C 
ATOM     14  O   LIG    1       -3.495   0.303  -3.487  0.00  0.00    -0.287 OA
ATOM     15  C   LIG    1       -2.653   0.490  -1.361  0.00  0.00    +0.047 C 
ATOM     16  C   LIG    1       -1.387   0.362  -1.796  0.00  0.00    +0.141 C 
ATOM     17  C   LIG    1       -0.321   0.458  -0.796  0.00  0.00    +0.190 C 
ATOM     18  C   LIG    1        0.981   0.146  -1.420  0.00  0.00    +0.211 C 
ATOM     19  C   LIG    1        2.050  -0.402  -0.551  0.00  0.00    +0.121 C 
ATOM     20  O   LIG    1        1.177   0.332  -2.616  0.00  0.00    -0.288 OA
ATOM     21  C   LIG    1        1.633  -1.293   0.315  0.00  0.00    +0.127 C 
ENDROOT
BRANCH  19  22
ATOM     22  C   LIG    1        3.408   0.013  -0.695  0.00  0.00    +0.252 C 
ATOM     23  N   LIG    1        4.504  -0.420   0.024  0.00  0.00    -0.298 N 
ATOM     24  H   LIG    1        4.430  -1.128   0.777  0.00  0.00    +0.150 HD
ATOM     25  O   LIG    1        3.658   0.900  -1.603  0.00  0.00    -0.270 OA
BRANCH  23  26
ATOM     26  C   LIG    1        5.855   0.105  -0.242  0.00  0.00    +0.192 C 
BRANCH  26  27
ATOM     27  N   LIG    1        5.896   1.527  -0.040  0.00  0.00    -0.287 NA
ATOM     28  C   LIG    1        5.545   1.871   1.321  0.00  0.00    +0.086 C 
ATOM     29  C   LIG    1        6.739   1.452   2.146  0.00  0.00    +0.017 C 
ATOM     30  C   LIG    1        7.860   1.472   1.153  0.00  0.00    +0.017 C 
ATOM     31  C   LIG    1        7.274   1.962  -0.153  0.00  0.00    +0.086 C 
ENDBRANCH  26  27
ENDBRANCH  23  26
ENDBRANCH  19  22
BRANCH   1  33
ATOM     32  C   LIG    1        0.911  -3.731   0.927  0.00  0.00    +0.105 C 
ATOM     33  N   LIG    1       -0.021  -2.643   1.283  0.00  0.00    -0.299 NA
ATOM     34  C   LIG    1       -1.304  -3.252   1.388  0.00  0.00    +0.105 C 
ENDBRANCH   1  33
BRANCH   5  35
ATOM     35  O   LIG    1       -4.409  -0.473   1.375  0.00  0.00    -0.384 OA
ATOM     36  H   LIG    1       -5.288  -0.870   1.255  0.00  0.00    +0.211 HD
ENDBRANCH   5  35
BRANCH  11  37
ATOM     37  O   LIG    1       -6.058   0.345  -3.970  0.00  0.00    -0.506 OA
ATOM     38  H   LIG    1       -5.319   0.256  -4.565  0.00  0.00    +0.292 HD
ENDBRANCH  11  37
BRANCH  16  39
ATOM     39  O   LIG    1       -1.193   0.152  -3.151  0.00  0.00    -0.507 OA
ATOM     40  H   LIG    1       -1.030  -0.826  -3.424  0.00  0.00    +0.292 HD
ENDBRANCH  16  39
BRANCH  17  41
ATOM     41  O   LIG    1       -0.178   1.806  -0.348  0.00  0.00    -0.373 OA
ATOM     42  H   LIG    1       -0.398   2.437  -1.085  0.00  0.00    +0.211 HD
ENDBRANCH  17  41
BRANCH  21  43
ATOM     43  O   LIG    1        2.502  -1.889   1.194  0.00  0.00    -0.509 OA
ATOM     44  H   LIG    1        2.524  -1.633   2.189  0.00  0.00    +0.292 HD
ENDBRANCH  21  43
TORSDOF 9
