REMARK  Name = molecules/HMHVCUVYZFYAJI-UHFFFAOYSA-N.pdb
REMARK                            x       y       z     vdW  Elec       q    Type
REMARK                         _______ _______ _______ _____ _____    ______ ____
ROOT
ATOM      1  C   LIG    1        0.170   0.322   0.008  0.00  0.00    +0.051 A 
ATOM      2  C   LIG    1        0.730  -0.776   0.624  0.00  0.00    +0.026 A 
ATOM      3  C   LIG    1        2.084  -0.890   0.903  0.00  0.00    +0.030 A 
ATOM      4  C   LIG    1        2.929   0.135   0.555  0.00  0.00    +0.105 A 
ATOM      5  C   LIG    1        2.402   1.246  -0.061  0.00  0.00    +0.030 A 
ATOM      6  C   LIG    1        1.056   1.351  -0.334  0.00  0.00    +0.026 A 
ENDROOT
BRANCH   1  14
ATOM      7  O   LIG    1       -2.335   2.552   0.666  0.00  0.00    -0.155 OA
ATOM      8  S   LIG    1       -2.236   1.073   0.957  0.00  0.00    +0.045 S 
ATOM      9  O   LIG    1       -1.607   0.826   2.301  0.00  0.00    -0.155 OA
ATOM     10  C   LIG    1       -3.827   0.294   0.837  0.00  0.00    +0.189 C 
ATOM     11  C   LIG    1       -4.107   0.050  -0.632  0.00  0.00    +0.026 C 
ATOM     12  C   LIG    1       -3.049  -0.917  -1.125  0.00  0.00    +0.022 C 
ATOM     13  C   LIG    1       -1.821  -0.090  -1.484  0.00  0.00    +0.131 C 
ATOM     14  N   LIG    1       -1.224   0.389  -0.255  0.00  0.00    -0.207 N 
ENDBRANCH   1  14
BRANCH   4  15
ATOM     15  S   LIG    1        4.644   0.061   0.875  0.00  0.00    +0.056 S 
ATOM     16  O   LIG    1        4.901  -0.775   2.115  0.00  0.00    -0.153 OA
ATOM     17  O   LIG    1        5.204   1.439   1.078  0.00  0.00    -0.153 OA
BRANCH  15  18
ATOM     18  N   LIG    1        5.489  -0.652  -0.456  0.00  0.00    -0.204 NA
ATOM     19  H   LIG    1        6.358  -0.117  -0.695  0.00  0.00    +0.144 HD
ATOM     20  H   LIG    1        4.893  -0.597  -1.327  0.00  0.00    +0.144 HD
ENDBRANCH  15  18
ENDBRANCH   4  15
TORSDOF 3
