REMARK  Name = molecules/HMJIYCCIJYRONP-MRXNPFEDSA-N.pdb
REMARK                            x       y       z     vdW  Elec       q    Type
REMARK                         _______ _______ _______ _____ _____    ______ ____
ROOT
ATOM      1  C   LIG    1        0.409   0.504  -1.433  0.00  0.00    +0.065 C 
ATOM      2  C   LIG    1       -0.366   0.809  -0.201  0.00  0.00    +0.098 C 
ATOM      3  C   LIG    1       -1.731   1.339  -0.475  0.00  0.00    +0.065 C 
ATOM      4  C   LIG    1       -2.167   1.504  -1.702  0.00  0.00    +0.016 C 
ATOM      5  C   LIG    1       -3.549   2.040  -1.938  0.00  0.00    +0.061 C 
ATOM      6  N   LIG    1       -1.355   1.184  -2.855  0.00  0.00    -0.321 N 
ATOM      7  H   LIG    1       -1.728   1.326  -3.796  0.00  0.00    +0.152 HD
ATOM      8  C   LIG    1       -0.051   0.678  -2.652  0.00  0.00    +0.016 C 
ATOM      9  C   LIG    1        0.806   0.341  -3.823  0.00  0.00    +0.061 C 
ENDROOT
BRANCH   2  10
ATOM     10  C   LIG    1       -0.405  -0.441   0.606  0.00  0.00    -0.004 A 
ATOM     11  C   LIG    1       -0.068  -0.390   1.930  0.00  0.00    +0.007 A 
ATOM     12  C   LIG    1       -0.057  -1.504   2.749  0.00  0.00    +0.003 A 
ATOM     13  C   LIG    1       -0.408  -2.706   2.163  0.00  0.00    +0.033 A 
ATOM     14  C   LIG    1       -0.753  -2.811   0.842  0.00  0.00    +0.134 A 
ATOM     15  N   LIG    1       -1.126  -3.804   0.021  0.00  0.00    -0.049 NA
ATOM     16  O   LIG    1       -1.339  -3.316  -1.175  0.00  0.00    -0.242 OA
ATOM     17  N   LIG    1       -1.114  -2.031  -1.156  0.00  0.00    -0.049 NA
ATOM     18  C   LIG    1       -0.749  -1.659   0.062  0.00  0.00    +0.138 A 
ENDBRANCH   2  10
BRANCH   1  19
ATOM     19  C   LIG    1        1.761  -0.021  -1.236  0.00  0.00    +0.338 C 
ATOM     20  O   LIG    1        2.536  -0.325  -2.154  0.00  0.00    -0.245 OA
BRANCH  19  21
ATOM     21  O   LIG    1        2.223  -0.196   0.088  0.00  0.00    -0.459 OA
BRANCH  21  22
ATOM     22  C   LIG    1        3.542  -0.707   0.287  0.00  0.00    +0.171 C 
ATOM     23  C   LIG    1        3.539  -1.934   1.159  0.00  0.00    +0.052 C 
ATOM     24  C   LIG    1        4.321   0.380   0.989  0.00  0.00    +0.052 C 
ENDBRANCH  21  22
ENDBRANCH  19  21
ENDBRANCH   1  19
BRANCH   3  25
ATOM     25  C   LIG    1       -2.622   1.691   0.635  0.00  0.00    +0.337 C 
ATOM     26  O   LIG    1       -3.777   2.141   0.497  0.00  0.00    -0.245 OA
BRANCH  25  27
ATOM     27  O   LIG    1       -2.228   1.543   1.975  0.00  0.00    -0.465 OA
ATOM     28  C   LIG    1       -3.088   1.883   3.044  0.00  0.00    +0.280 C 
ENDBRANCH  25  27
ENDBRANCH   3  25
TORSDOF 6
