REMARK  Name = molecules/HNDVDQJCIGZPNO-YFKPBYRVSA-N.pdb
REMARK                            x       y       z     vdW  Elec       q    Type
REMARK                         _______ _______ _______ _____ _____    ______ ____
ROOT
ATOM      1  CA  HIS A  1       -1.283   0.105   0.221  0.00  0.00    +0.166 C 
ENDROOT
BRANCH   1   2
ATOM      2  N   HIS A  1       -1.187  -1.246   0.764  0.00  0.00    -0.318 NA
ATOM      3  H1  HIS A  1       -2.151  -1.567   0.996  0.00  0.00    +0.119 HD
ATOM      4  H2  HIS A  1       -0.754  -1.905   0.096  0.00  0.00    +0.119 HD
ENDBRANCH   1   2
BRANCH   1   5
ATOM      5  C   HIS A  1       -2.585   0.177  -0.493  0.00  0.00    +0.322 C 
ATOM      6  OXT HIS A  1       -3.390  -0.786  -0.566  0.00  0.00    -0.249 OA
BRANCH   5   7
ATOM      7  O   HIS A  1       -2.988   1.359  -1.136  0.00  0.00    -0.480 OA
ATOM      8  H   HIS A  1       -2.630   2.250  -0.884  0.00  0.00    +0.295 HD
ENDBRANCH   5   7
ENDBRANCH   1   5
BRANCH   1   9
ATOM      9  CB  HIS A  1       -0.148   0.261  -0.765  0.00  0.00    +0.084 C 
BRANCH   9  10
ATOM     10  CG  HIS A  1        1.165   0.071  -0.099  0.00  0.00    +0.037 A 
ATOM     11  CD2 HIS A  1        1.470  -0.209   1.209  0.00  0.00    +0.133 A 
ATOM     12  NE2 HIS A  1        2.807  -0.293   1.357  0.00  0.00    -0.244 NA
ATOM     13  CE1 HIS A  1        3.345  -0.067   0.146  0.00  0.00    +0.196 A 
ATOM     14  ND1 HIS A  1        2.343   0.155  -0.741  0.00  0.00    -0.348 N 
ATOM     15  HD1 HIS A  1        2.522   0.356  -1.758  0.00  0.00    +0.166 HD
ENDBRANCH   9  10
ENDBRANCH   1   9
TORSDOF 5
