REMARK  Name = molecules/HNDXBGYRMHRUFN-CIVUWBIHSA-N.pdb
REMARK                            x       y       z     vdW  Elec       q    Type
REMARK                         _______ _______ _______ _____ _____    ______ ____
ROOT
ATOM      1  C   LIG    1       -2.212   0.189   0.319  0.00  0.00    +0.241 C 
ATOM      2  C   LIG    1       -1.909   0.849   1.595  0.00  0.00    +0.017 C 
ATOM      3  C   LIG    1       -1.597   2.125   1.614  0.00  0.00    -0.021 C 
ATOM      4  C   LIG    1       -1.566   2.853   0.284  0.00  0.00    +0.043 C 
ATOM      5  C   LIG    1       -0.804   4.154   0.426  0.00  0.00    +0.068 C 
ATOM      6  C   LIG    1        0.577   4.054   0.988  0.00  0.00    +0.055 C 
ATOM      7  C   LIG    1        1.113   2.690   0.869  0.00  0.00    -0.038 A 
ATOM      8  C   LIG    1        2.284   2.328   1.526  0.00  0.00    +0.008 A 
ATOM      9  C   LIG    1        2.735   1.006   1.434  0.00  0.00    +0.050 A 
ATOM     10  C   LIG    1        2.027   0.055   0.696  0.00  0.00    +0.174 A 
ATOM     11  C   LIG    1        0.872   0.421   0.052  0.00  0.00    +0.167 A 
ATOM     12  O   LIG    1       -0.059  -0.271  -0.743  0.00  0.00    -0.480 OA
ATOM     13  C   LIG    1        0.493   1.710   0.177  0.00  0.00    +0.012 A 
ATOM     14  N   LIG    1       -0.784   4.739  -0.919  0.00  0.00    -0.301 NA
ATOM     15  C   LIG    1       -0.427   6.125  -0.901  0.00  0.00    +0.105 C 
ATOM     16  C   LIG    1        0.099   3.954  -1.771  0.00  0.00    +0.085 C 
ATOM     17  C   LIG    1       -0.434   2.575  -1.907  0.00  0.00    +0.031 C 
ATOM     18  C   LIG    1       -0.763   1.948  -0.608  0.00  0.00    +0.049 C 
ATOM     19  C   LIG    1       -1.270   0.538  -0.743  0.00  0.00    +0.229 C 
ENDROOT
BRANCH   1  20
ATOM     20  O   LIG    1       -2.403  -1.216   0.473  0.00  0.00    -0.450 OA
BRANCH  20  21
ATOM     21  C   LIG    1       -3.595  -1.865   0.237  0.00  0.00    +0.341 C 
ATOM     22  O   LIG    1       -4.568  -1.169  -0.136  0.00  0.00    -0.245 OA
BRANCH  21  23
ATOM     23  C   LIG    1       -3.791  -3.295   0.392  0.00  0.00    +0.077 A 
ATOM     24  C   LIG    1       -2.784  -4.148   0.798  0.00  0.00    +0.018 A 
ATOM     25  C   LIG    1       -3.095  -5.486   0.908  0.00  0.00    +0.020 A 
ATOM     26  C   LIG    1       -4.358  -5.971   0.628  0.00  0.00    +0.111 A 
ATOM     27  N   LIG    1       -5.314  -5.128   0.238  0.00  0.00    -0.262 NA
ATOM     28  C   LIG    1       -5.032  -3.822   0.125  0.00  0.00    +0.125 A 
ENDBRANCH  21  23
ENDBRANCH  20  21
ENDBRANCH   1  20
BRANCH  10  29
ATOM     29  O   LIG    1        2.523  -1.236   0.644  0.00  0.00    -0.419 OA
BRANCH  29  30
ATOM     30  C   LIG    1        3.421  -1.635  -0.359  0.00  0.00    +0.346 C 
ATOM     31  O   LIG    1        3.729  -0.741  -1.188  0.00  0.00    -0.244 OA
BRANCH  30  32
ATOM     32  C   LIG    1        3.949  -2.979  -0.427  0.00  0.00    +0.077 A 
ATOM     33  C   LIG    1        3.623  -3.969   0.472  0.00  0.00    +0.125 A 
ATOM     34  N   LIG    1        4.113  -5.212   0.407  0.00  0.00    -0.262 NA
ATOM     35  C   LIG    1        4.966  -5.537  -0.572  0.00  0.00    +0.111 A 
ATOM     36  C   LIG    1        5.337  -4.596  -1.506  0.00  0.00    +0.020 A 
ATOM     37  C   LIG    1        4.828  -3.316  -1.435  0.00  0.00    +0.018 A 
ENDBRANCH  30  32
ENDBRANCH  29  30
ENDBRANCH  10  29
TORSDOF 6
