REMARK  Name = molecules/HNJJXZKZRAWDPF-UHFFFAOYSA-N.pdb
REMARK                            x       y       z     vdW  Elec       q    Type
REMARK                         _______ _______ _______ _____ _____    ______ ____
ROOT
ATOM      1  N   LIG    1       -0.712   0.217   0.631  0.00  0.00    -0.309 N 
ENDROOT
BRANCH   1   2
ATOM      2  C   LIG    1       -0.541   1.539   0.193  0.00  0.00    +0.122 A 
ATOM      3  C   LIG    1       -0.527   2.641   0.995  0.00  0.00    +0.043 A 
ATOM      4  C   LIG    1       -0.356   3.922   0.501  0.00  0.00    +0.005 A 
ATOM      5  C   LIG    1       -0.195   4.083  -0.841  0.00  0.00    +0.020 A 
ATOM      6  C   LIG    1       -0.204   2.971  -1.660  0.00  0.00    +0.113 A 
ATOM      7  N   LIG    1       -0.376   1.749  -1.138  0.00  0.00    -0.240 NA
ENDBRANCH   1   2
BRANCH   1   8
ATOM      8  C   LIG    1       -2.007  -0.204   1.144  0.00  0.00    +0.148 C 
BRANCH   8   9
ATOM      9  C   LIG    1       -2.700  -1.190   0.276  0.00  0.00    +0.007 A 
ATOM     10  C   LIG    1       -2.335  -2.456  -0.104  0.00  0.00    +0.013 A 
ATOM     11  C   LIG    1       -3.181  -3.138  -0.888  0.00  0.00    +0.008 A 
ATOM     12  C   LIG    1       -4.345  -2.524  -1.255  0.00  0.00    +0.045 A 
ATOM     13  S   LIG    1       -4.236  -1.004  -0.495  0.00  0.00    -0.100 S 
ENDBRANCH   8   9
ENDBRANCH   1   8
BRANCH   1  14
ATOM     14  C   LIG    1        0.379  -0.719   0.499  0.00  0.00    +0.122 C 
BRANCH  14  15
ATOM     15  C   LIG    1        1.666   0.073   0.317  0.00  0.00    +0.102 C 
BRANCH  15  16
ATOM     16  N   LIG    1        2.810  -0.727   0.143  0.00  0.00    -0.307 NA
ATOM     17  C   LIG    1        3.269  -1.523   1.208  0.00  0.00    +0.104 C 
ATOM     18  C   LIG    1        3.497  -0.704  -1.083  0.00  0.00    +0.104 C 
ENDBRANCH  15  16
ENDBRANCH  14  15
ENDBRANCH   1  14
TORSDOF 6
