REMARK  Name = molecules/HOKDBMAJZXIPGC-MRXNPFEDSA-N.pdb
REMARK                            x       y       z     vdW  Elec       q    Type
REMARK                         _______ _______ _______ _____ _____    ______ ____
ROOT
ATOM      1  N   LIG    1       -1.311  -0.282  -0.494  0.00  0.00    -0.298 N 
ATOM      2  C   LIG    1       -1.823  -1.556  -0.043  0.00  0.00    +0.048 A 
ATOM      3  C   LIG    1       -2.912  -1.736   0.756  0.00  0.00    +0.034 A 
ATOM      4  S   LIG    1       -3.805  -0.301   1.352  0.00  0.00    -0.086 S 
ATOM      5  C   LIG    1       -3.002   1.095   0.643  0.00  0.00    +0.034 A 
ATOM      6  C   LIG    1       -3.536   2.310   0.914  0.00  0.00    +0.017 A 
ATOM      7  C   LIG    1       -3.018   3.474   0.424  0.00  0.00    +0.001 A 
ATOM      8  C   LIG    1       -1.912   3.370  -0.372  0.00  0.00    +0.002 A 
ATOM      9  C   LIG    1       -1.324   2.149  -0.683  0.00  0.00    +0.024 A 
ATOM     10  C   LIG    1       -3.392  -2.970   1.169  0.00  0.00    +0.017 A 
ATOM     11  C   LIG    1       -2.728  -4.095   0.747  0.00  0.00    +0.001 A 
ATOM     12  C   LIG    1       -1.618  -4.000  -0.063  0.00  0.00    +0.002 A 
ATOM     13  C   LIG    1       -1.189  -2.736  -0.441  0.00  0.00    +0.024 A 
ATOM     14  C   LIG    1       -1.889   0.970  -0.156  0.00  0.00    +0.048 A 
ENDROOT
BRANCH   1  15
ATOM     15  C   LIG    1       -0.113  -0.307  -1.304  0.00  0.00    +0.116 C 
BRANCH  15  16
ATOM     16  C   LIG    1        1.166  -0.378  -0.535  0.00  0.00    +0.024 C 
ATOM     17  C   LIG    1        1.460   0.744   0.415  0.00  0.00    -0.003 C 
ATOM     18  C   LIG    1        2.461   0.135   1.448  0.00  0.00    +0.019 C 
ATOM     19  C   LIG    1        3.485  -0.655   0.646  0.00  0.00    +0.084 C 
ATOM     20  N   LIG    1        3.585  -0.118  -0.703  0.00  0.00    -0.302 NA
ATOM     21  C   LIG    1        3.668   1.330  -0.568  0.00  0.00    +0.084 C 
ATOM     22  C   LIG    1        2.281   1.841  -0.233  0.00  0.00    +0.019 C 
ATOM     23  C   LIG    1        2.382  -0.419  -1.470  0.00  0.00    +0.089 C 
ENDBRANCH  15  16
ENDBRANCH   1  15
TORSDOF 2
