REMARK  Name = molecules/HOMGKSMUEGBAAB-CQSZACIVSA-N.pdb
REMARK                            x       y       z     vdW  Elec       q    Type
REMARK                         _______ _______ _______ _____ _____    ______ ____
ROOT
ATOM      1  N   LIG    1       -1.072  -0.115  -0.304  0.00  0.00    -0.218 NA
ATOM      2  P   LIG    1        0.462   0.132   0.502  0.00  0.00    +0.346 P 
ATOM      3  O   LIG    1        0.638  -0.838   1.659  0.00  0.00    -0.254 OA
ATOM      4  O   LIG    1        0.369   1.743   1.100  0.00  0.00    -0.305 OA
ATOM      5  C   LIG    1       -0.187   2.440   0.015  0.00  0.00    +0.171 C 
ATOM      6  C   LIG    1       -1.660   2.189  -0.083  0.00  0.00    +0.044 C 
ATOM      7  C   LIG    1       -2.014   0.793   0.386  0.00  0.00    +0.097 C 
ENDROOT
BRANCH   2   8
ATOM      8  N   LIG    1        1.776   0.099  -0.624  0.00  0.00    -0.231 NA
ATOM      9  H   LIG    1        1.483  -0.070  -1.608  0.00  0.00    +0.133 HD
BRANCH   8  10
ATOM     10  C   LIG    1        2.690  -1.020  -0.285  0.00  0.00    +0.107 C 
BRANCH  10  11
ATOM     11  C   LIG    1        3.952  -0.312   0.283  0.00  0.00    +0.124 C 
ATOM     12 CL   LIG    1        4.630   0.763  -0.960  0.00  0.00    -0.124 Cl
ENDBRANCH  10  11
ENDBRANCH   8  10
ENDBRANCH   2   8
BRANCH   1  13
ATOM     13  C   LIG    1       -1.448  -1.496  -0.019  0.00  0.00    +0.110 C 
BRANCH  13  14
ATOM     14  C   LIG    1       -2.783  -1.894  -0.548  0.00  0.00    +0.124 C 
ATOM     15 CL   LIG    1       -3.042  -3.613  -0.071  0.00  0.00    -0.124 Cl
ENDBRANCH  13  14
ENDBRANCH   1  13
TORSDOF 5
