REMARK  Name = molecules/HOUSDILKOJMENG-UHFFFAOYSA-N.pdb
REMARK                            x       y       z     vdW  Elec       q    Type
REMARK                         _______ _______ _______ _____ _____    ______ ____
ROOT
ATOM      1  N   LIG    1       -1.274   0.903   0.421  0.00  0.00    -0.269 N 
ATOM      2  H   LIG    1       -1.695   1.416   1.615  0.00  0.00    +0.156 HD
ATOM      3  C   LIG    1        0.013   0.987   0.832  0.00  0.00    +0.308 C 
ATOM      4  O   LIG    1        0.424   1.352   1.995  0.00  0.00    -0.252 OA
ATOM      5  N   LIG    1        1.088   0.641  -0.092  0.00  0.00    -0.269 N 
ATOM      6  H   LIG    1        0.764   0.327  -1.044  0.00  0.00    +0.156 HD
ENDROOT
BRANCH   1  15
ATOM      7  C   LIG    1       -5.560  -1.252   0.704  0.00  0.00    +0.036 A 
ATOM      8  C   LIG    1       -6.837  -1.290   0.241  0.00  0.00    +0.046 A 
ATOM      9  C   LIG    1       -7.263  -0.412  -0.712  0.00  0.00    +0.041 A 
ATOM     10  C   LIG    1       -8.697  -0.536  -1.160  0.00  0.00    +0.065 C 
ATOM     11  N   LIG    1       -6.454   0.511  -1.224  0.00  0.00    -0.252 NA
ATOM     12  C   LIG    1       -5.192   0.595  -0.807  0.00  0.00    +0.073 A 
ATOM     13  C   LIG    1       -4.377   1.548  -1.347  0.00  0.00    +0.030 A 
ATOM     14  C   LIG    1       -3.074   1.680  -0.961  0.00  0.00    +0.025 A 
ATOM     15  C   LIG    1       -2.530   0.821   0.021  0.00  0.00    +0.036 A 
ATOM     16  C   LIG    1       -3.428  -0.135   0.532  0.00  0.00    +0.035 A 
ATOM     17  C   LIG    1       -4.726  -0.272   0.152  0.00  0.00    +0.023 A 
BRANCH   7  18
ATOM     18  N   LIG    1       -5.011  -2.110   1.682  0.00  0.00    -0.357 N 
ATOM     19  H   LIG    1       -4.663  -1.743   2.582  0.00  0.00    +0.142 HD
ATOM     20  H   LIG    1       -4.957  -3.124   1.491  0.00  0.00    +0.142 HD
ENDBRANCH   7  18
ENDBRANCH   1  15
BRANCH   5  21
ATOM     21  C   LIG    1        2.433   0.725   0.270  0.00  0.00    +0.036 A 
ATOM     22  C   LIG    1        2.986   1.573   1.197  0.00  0.00    +0.025 A 
ATOM     23  C   LIG    1        4.355   1.610   1.462  0.00  0.00    +0.030 A 
ATOM     24  C   LIG    1        5.234   0.783   0.795  0.00  0.00    +0.073 A 
ATOM     25  N   LIG    1        6.549   0.814   1.040  0.00  0.00    -0.252 NA
ATOM     26  C   LIG    1        7.378   0.005   0.377  0.00  0.00    +0.041 A 
ATOM     27  C   LIG    1        8.831   0.076   0.679  0.00  0.00    +0.065 C 
ATOM     28  C   LIG    1        6.915  -0.866  -0.557  0.00  0.00    +0.046 A 
ATOM     29  C   LIG    1        5.572  -0.923  -0.832  0.00  0.00    +0.036 A 
ATOM     30  C   LIG    1        4.704  -0.075  -0.139  0.00  0.00    +0.023 A 
ATOM     31  C   LIG    1        3.352  -0.109  -0.398  0.00  0.00    +0.035 A 
BRANCH  29  32
ATOM     32  N   LIG    1        5.018  -1.811  -1.794  0.00  0.00    -0.357 N 
ATOM     33  H   LIG    1        5.156  -2.848  -1.655  0.00  0.00    +0.142 HD
ATOM     34  H   LIG    1        4.497  -1.454  -2.601  0.00  0.00    +0.142 HD
ENDBRANCH  29  32
ENDBRANCH   5  21
TORSDOF 4
