REMARK  Name = molecules/HPFVBGJFAYZEBE-ZLQWOROUSA-N.pdb
REMARK                            x       y       z     vdW  Elec       q    Type
REMARK                         _______ _______ _______ _____ _____    ______ ____
ROOT
ATOM      1  C   LIG    1       -4.529   0.526   1.819  0.00  0.00    +0.016 C 
ATOM      2  C   LIG    1       -4.402   0.769   0.303  0.00  0.00    -0.007 C 
ATOM      3  C   LIG    1       -4.582   2.221   0.093  0.00  0.00    +0.019 C 
ATOM      4  C   LIG    1       -5.163   2.632  -1.233  0.00  0.00    +0.080 C 
ATOM      5  C   LIG    1       -6.338   1.800  -1.600  0.00  0.00    +0.156 C 
ATOM      6  C   LIG    1       -6.278   0.402  -1.188  0.00  0.00    +0.046 C 
ATOM      7  O   LIG    1       -7.273   2.331  -2.218  0.00  0.00    -0.293 OA
ATOM      8  C   LIG    1       -3.095   0.219  -0.205  0.00  0.00    +0.002 C 
ATOM      9  C   LIG    1       -2.882  -1.158   0.400  0.00  0.00    -0.003 C 
ATOM     10  C   LIG    1       -4.029  -2.074   0.300  0.00  0.00    +0.008 C 
ATOM     11  C   LIG    1       -5.380  -1.526   0.056  0.00  0.00    +0.032 C 
ATOM     12  C   LIG    1       -1.646  -1.648  -0.264  0.00  0.00    +0.002 C 
ATOM     13  C   LIG    1       -0.451  -0.854   0.282  0.00  0.00    +0.008 C 
ATOM     14  C   LIG    1       -0.400  -0.838   1.764  0.00  0.00    +0.015 C 
ATOM     15  C   LIG    1       -0.612   0.534  -0.239  0.00  0.00    +0.011 C 
ATOM     16  C   LIG    1        0.680  -1.613  -0.372  0.00  0.00    +0.183 C 
ATOM     17  C   LIG    1        0.192  -3.009  -0.552  0.00  0.00    +0.045 C 
ATOM     18  C   LIG    1       -1.232  -3.032   0.005  0.00  0.00    +0.008 C 
ATOM     19  C   LIG    1       -1.948   1.130   0.011  0.00  0.00    +0.005 C 
ATOM     20  C   LIG    1       -5.421  -0.101  -0.334  0.00  0.00    -0.060 C 
ENDROOT
BRANCH  16  21
ATOM     21  O   LIG    1        1.898  -1.458   0.274  0.00  0.00    -0.461 OA
BRANCH  21  22
ATOM     22  C   LIG    1        2.984  -0.835  -0.315  0.00  0.00    +0.307 C 
ATOM     23  O   LIG    1        2.822  -0.406  -1.482  0.00  0.00    -0.251 OA
BRANCH  22  24
ATOM     24  C   LIG    1        4.238  -0.721   0.466  0.00  0.00    +0.121 C 
BRANCH  24  25
ATOM     25  C   LIG    1        5.237   0.001  -0.398  0.00  0.00    +0.014 C 
BRANCH  25  26
ATOM     26  C   LIG    1        6.553   0.171   0.324  0.00  0.00    -0.010 C 
ATOM     27  C   LIG    1        6.413   1.041   1.528  0.00  0.00    +0.003 C 
ATOM     28  C   LIG    1        7.348   2.220   1.375  0.00  0.00    +0.000 C 
ATOM     29  C   LIG    1        8.124   2.024   0.116  0.00  0.00    +0.000 C 
ATOM     30  C   LIG    1        7.484   0.897  -0.630  0.00  0.00    +0.003 C 
ENDBRANCH  25  26
ENDBRANCH  24  25
ENDBRANCH  22  24
ENDBRANCH  21  22
ENDBRANCH  16  21
TORSDOF 5
