REMARK  Name = molecules/HPHUVLMMVZITSG-LURJTMIESA-N.pdb
REMARK                            x       y       z     vdW  Elec       q    Type
REMARK                         _______ _______ _______ _____ _____    ______ ____
ROOT
ATOM      1  C   LIG    1        0.720  -0.474   0.476  0.00  0.00    +0.161 C 
ENDROOT
BRANCH   1   2
ATOM      2  N   LIG    1       -0.619  -0.256   0.029  0.00  0.00    -0.290 N 
ATOM      3  C   LIG    1       -1.772  -0.701   0.720  0.00  0.00    +0.216 C 
ATOM      4  O   LIG    1       -1.885  -1.690   1.513  0.00  0.00    -0.276 OA
ATOM      5  C   LIG    1       -2.919   0.175   0.393  0.00  0.00    +0.097 C 
ATOM      6  C   LIG    1       -2.416   1.024  -0.730  0.00  0.00    +0.028 C 
ATOM      7  C   LIG    1       -1.096   0.422  -1.153  0.00  0.00    +0.109 C 
ENDBRANCH   1   2
BRANCH   1   8
ATOM      8  C   LIG    1        1.478   0.768   0.713  0.00  0.00    +0.231 C 
ATOM      9  O   LIG    1        2.663   0.650   1.114  0.00  0.00    -0.274 OA
ATOM     10  N   LIG    1        0.991   2.082   0.529  0.00  0.00    -0.328 N 
ATOM     11  H   LIG    1        0.368   2.495   1.246  0.00  0.00    +0.145 HD
ATOM     12  H   LIG    1        1.238   2.643  -0.301  0.00  0.00    +0.145 HD
ENDBRANCH   1   8
BRANCH   1  14
ATOM     13  C   LIG    1        2.894  -1.534  -0.203  0.00  0.00    +0.006 C 
ATOM     14  C   LIG    1        1.467  -1.256  -0.592  0.00  0.00    +0.028 C 
ENDBRANCH   1  14
TORSDOF 3
