REMARK  Name = molecules/HPITVGRITATAFY-FQEVSTJZSA-N.pdb
REMARK                            x       y       z     vdW  Elec       q    Type
REMARK                         _______ _______ _______ _____ _____    ______ ____
ROOT
ATOM      1  C   LIG    1       -1.084  -0.057  -0.578  0.00  0.00    +0.122 C 
ATOM      2  C   LIG    1       -2.084  -1.171  -0.627  0.00  0.00    +0.016 A 
ATOM      3  C   LIG    1       -2.546  -2.088   0.301  0.00  0.00    +0.008 A 
ATOM      4  C   LIG    1       -3.503  -3.038  -0.026  0.00  0.00    +0.001 A 
ATOM      5  C   LIG    1       -4.020  -3.085  -1.310  0.00  0.00    +0.004 A 
ATOM      6  C   LIG    1       -3.577  -2.190  -2.234  0.00  0.00    +0.047 A 
ATOM      7  C   LIG    1       -2.625  -1.253  -1.889  0.00  0.00    +0.136 A 
ATOM      8  O   LIG    1       -2.056  -0.272  -2.677  0.00  0.00    -0.425 OA
ATOM      9  C   LIG    1       -1.128   0.477  -1.952  0.00  0.00    +0.328 C 
ATOM     10  O   LIG    1       -0.507   1.420  -2.506  0.00  0.00    -0.249 OA
ENDROOT
BRANCH   1  11
ATOM     11  C   LIG    1       -1.478   0.944   0.416  0.00  0.00    -0.026 A 
ATOM     12  C   LIG    1       -1.192   0.802   1.752  0.00  0.00    +0.005 A 
ATOM     13  C   LIG    1       -1.563   1.738   2.700  0.00  0.00    +0.000 A 
ATOM     14  C   LIG    1       -2.253   2.862   2.276  0.00  0.00    +0.000 A 
ATOM     15  C   LIG    1       -2.557   3.038   0.944  0.00  0.00    +0.000 A 
ATOM     16  C   LIG    1       -2.166   2.077   0.034  0.00  0.00    +0.005 A 
ENDBRANCH   1  11
BRANCH   1  17
ATOM     17  C   LIG    1        0.252  -0.701  -0.262  0.00  0.00    +0.043 C 
BRANCH  17  18
ATOM     18  C   LIG    1        1.300   0.352  -0.186  0.00  0.00    +0.086 C 
BRANCH  18  19
ATOM     19  N   LIG    1        2.618  -0.158   0.109  0.00  0.00    -0.303 NA
BRANCH  19  20
ATOM     20  C   LIG    1        3.489   0.972   0.341  0.00  0.00    +0.081 C 
ATOM     21  C   LIG    1        3.180   1.732   1.596  0.00  0.00    +0.020 C 
ENDBRANCH  19  20
BRANCH  19  22
ATOM     22  C   LIG    1        3.159  -0.940  -0.984  0.00  0.00    +0.081 C 
ATOM     23  C   LIG    1        4.523  -1.440  -0.643  0.00  0.00    +0.020 C 
ENDBRANCH  19  22
ENDBRANCH  18  19
ENDBRANCH  17  18
ENDBRANCH   1  17
TORSDOF 6
