REMARK  Name = molecules/HPJKCIUCZWXJDR-UHFFFAOYSA-N.pdb
REMARK                            x       y       z     vdW  Elec       q    Type
REMARK                         _______ _______ _______ _____ _____    ______ ____
ROOT
ATOM      1  C   LIG    1       -0.242   0.740  -0.616  0.00  0.00    +0.169 C 
ENDROOT
BRANCH   1   2
ATOM      2  C   LIG    1       -1.274  -0.031   0.136  0.00  0.00    -0.019 A 
ATOM      3  C   LIG    1       -1.360   0.049   1.511  0.00  0.00    +0.007 A 
ATOM      4  C   LIG    1       -2.316  -0.672   2.158  0.00  0.00    +0.019 A 
ATOM      5  C   LIG    1       -3.216  -1.489   1.507  0.00  0.00    +0.052 A 
ATOM      6  C   LIG    1       -3.148  -1.584   0.133  0.00  0.00    +0.019 A 
ATOM      7  C   LIG    1       -2.179  -0.853  -0.511  0.00  0.00    +0.007 A 
BRANCH   5   8
ATOM      8  C   LIG    1       -4.226  -2.252   2.175  0.00  0.00    +0.099 C 
ATOM      9  N   LIG    1       -5.052  -2.856   2.723  0.00  0.00    -0.191 NA
ENDBRANCH   5   8
ENDBRANCH   1   2
BRANCH   1  10
ATOM     10  C   LIG    1        1.011   0.013  -0.806  0.00  0.00    -0.019 A 
ATOM     11  C   LIG    1        2.060   0.073   0.084  0.00  0.00    +0.007 A 
ATOM     12  C   LIG    1        3.242  -0.612  -0.091  0.00  0.00    +0.019 A 
ATOM     13  C   LIG    1        3.423  -1.418  -1.217  0.00  0.00    +0.052 A 
ATOM     14  C   LIG    1        2.387  -1.494  -2.124  0.00  0.00    +0.019 A 
ATOM     15  C   LIG    1        1.228  -0.808  -1.927  0.00  0.00    +0.007 A 
BRANCH  13  16
ATOM     16  C   LIG    1        4.649  -2.127  -1.400  0.00  0.00    +0.099 C 
ATOM     17  N   LIG    1        5.646  -2.713  -1.563  0.00  0.00    -0.191 NA
ENDBRANCH  13  16
ENDBRANCH   1  10
BRANCH   1  18
ATOM     18  N   LIG    1       -0.101   2.087  -0.118  0.00  0.00    -0.240 N 
ATOM     19  C   LIG    1       -0.940   2.818   0.629  0.00  0.00    +0.220 A 
ATOM     20  N   LIG    1       -0.370   4.016   0.841  0.00  0.00    -0.223 NA
ATOM     21  C   LIG    1        0.828   4.050   0.231  0.00  0.00    +0.245 A 
ATOM     22  N   LIG    1        0.966   2.844  -0.352  0.00  0.00    -0.158 NA
ENDBRANCH   1  18
TORSDOF 5
