REMARK  Name = molecules/HPMZBILYSWLILX-UMDUKNJSSA-N.pdb
REMARK                            x       y       z     vdW  Elec       q    Type
REMARK                         _______ _______ _______ _____ _____    ______ ____
ROOT
ATOM      1  C   LIG    1        0.249  -0.501  -0.021  0.00  0.00    +0.253 C 
ATOM      2  C   LIG    1       -0.357   0.338   1.108  0.00  0.00    +0.095 C 
ATOM      3  C   LIG    1       -1.827   0.057   1.239  0.00  0.00    +0.151 C 
ATOM      4  C   LIG    1       -2.455   0.210  -0.137  0.00  0.00    +0.178 C 
ATOM      5  C   LIG    1       -1.681  -0.571  -1.165  0.00  0.00    +0.150 C 
ATOM      6  C   LIG    1       -2.349  -0.356  -2.518  0.00  0.00    +0.041 C 
ATOM      7  O   LIG    1       -0.348  -0.104  -1.217  0.00  0.00    -0.346 OA
ENDROOT
BRANCH   3   8
ATOM      8  O   LIG    1       -1.995  -1.245   1.714  0.00  0.00    -0.389 OA
ATOM      9  H   LIG    1       -1.172  -1.587   2.147  0.00  0.00    +0.210 HD
ENDBRANCH   3   8
BRANCH   1  10
ATOM     10  O   LIG    1        1.605  -0.288   0.019  0.00  0.00    -0.348 OA
BRANCH  10  20
ATOM     11  C   LIG    1        8.264   1.109   0.962  0.00  0.00    +0.075 C 
ATOM     12  C   LIG    1        9.232   0.663   2.023  0.00  0.00    +0.036 C 
ATOM     13  C   LIG    1       10.248  -0.243   1.352  0.00  0.00    +0.011 C 
ATOM     14  C   LIG    1        9.717  -0.470  -0.048  0.00  0.00    +0.027 C 
ATOM     15  C   LIG    1        6.890   0.540   1.141  0.00  0.00    +0.025 C 
ATOM     16  C   LIG    1        6.853  -0.676   2.034  0.00  0.00    +0.007 C 
ATOM     17  C   LIG    1        5.615  -1.447   1.683  0.00  0.00    +0.004 C 
ATOM     18  C   LIG    1        4.440  -0.521   1.347  0.00  0.00    -0.002 C 
ATOM     19  C   LIG    1        3.236  -1.364   1.435  0.00  0.00    +0.035 C 
ATOM     20  C   LIG    1        2.354  -1.442   0.231  0.00  0.00    +0.122 C 
ATOM     21  C   LIG    1        3.293  -1.569  -0.952  0.00  0.00    +0.032 C 
ATOM     22  C   LIG    1        3.867  -0.151  -1.077  0.00  0.00    +0.010 C 
ATOM     23  C   LIG    1        4.674   0.257   0.093  0.00  0.00    -0.026 C 
ATOM     24  C   LIG    1        4.312   1.724   0.372  0.00  0.00    +0.012 C 
ATOM     25  C   LIG    1        6.164   0.256  -0.156  0.00  0.00    +0.001 C 
ATOM     26  C   LIG    1        6.664   1.227  -1.158  0.00  0.00    +0.005 C 
ATOM     27  C   LIG    1        8.073   0.720  -1.522  0.00  0.00    +0.010 C 
ATOM     28  C   LIG    1        8.954   0.778  -0.308  0.00  0.00    +0.004 C 
ATOM     29  C   LIG    1        9.982   1.886  -0.578  0.00  0.00    +0.014 C 
BRANCH  14  30
ATOM     30  C   LIG    1       10.807  -0.754  -1.010  0.00  0.00    -0.022 C 
ATOM     31  C   LIG    1       12.116  -0.830  -0.771  0.00  0.00    +0.094 C 
ATOM     32  C   LIG    1       12.843  -1.133  -2.003  0.00  0.00    +0.332 C 
ATOM     33  O   LIG    1       14.098  -1.277  -2.149  0.00  0.00    -0.246 OA
ATOM     34  O   LIG    1       11.919  -1.239  -3.005  0.00  0.00    -0.457 OA
ATOM     35  C   LIG    1       10.655  -1.010  -2.465  0.00  0.00    +0.264 C 
ENDBRANCH  14  30
BRANCH  11  36
ATOM     36  O   LIG    1        8.219   2.523   1.049  0.00  0.00    -0.388 OA
ATOM     37  H   LIG    1        8.253   2.751   2.013  0.00  0.00    +0.210 HD
ENDBRANCH  11  36
ENDBRANCH  10  20
ENDBRANCH   1  10
BRANCH   4  38
ATOM     38  O   LIG    1       -3.763  -0.238  -0.101  0.00  0.00    -0.343 OA
BRANCH  38  39
ATOM     39  C   LIG    1       -4.701   0.713  -0.421  0.00  0.00    +0.254 C 
ATOM     40  O   LIG    1       -5.480   0.962   0.708  0.00  0.00    -0.346 OA
ATOM     41  C   LIG    1       -6.129  -0.138   1.209  0.00  0.00    +0.150 C 
ATOM     42  C   LIG    1       -5.231  -1.087   1.938  0.00  0.00    +0.041 C 
ATOM     43  C   LIG    1       -6.994  -0.862   0.198  0.00  0.00    +0.178 C 
ATOM     44  C   LIG    1       -6.091  -1.183  -0.998  0.00  0.00    +0.151 C 
ATOM     45  C   LIG    1       -5.603   0.187  -1.491  0.00  0.00    +0.095 C 
BRANCH  44  46
ATOM     46  O   LIG    1       -6.846  -1.829  -1.977  0.00  0.00    -0.389 OA
ATOM     47  H   LIG    1       -6.253  -2.437  -2.492  0.00  0.00    +0.210 HD
ENDBRANCH  44  46
BRANCH  43  48
ATOM     48  O   LIG    1       -7.985  -0.038  -0.298  0.00  0.00    -0.343 OA
BRANCH  48  49
ATOM     49  C   LIG    1       -9.271  -0.459  -0.095  0.00  0.00    +0.255 C 
ATOM     50  C   LIG    1       -9.972   0.556   0.777  0.00  0.00    +0.108 C 
ATOM     51  C   LIG    1      -11.361   0.870   0.263  0.00  0.00    +0.212 C 
ATOM     52  C   LIG    1      -11.993  -0.427  -0.165  0.00  0.00    +0.184 C 
ATOM     53  C   LIG    1      -11.183  -1.031  -1.260  0.00  0.00    +0.150 C 
ATOM     54  C   LIG    1      -11.850  -0.749  -2.586  0.00  0.00    +0.041 C 
ATOM     55  O   LIG    1       -9.876  -0.574  -1.344  0.00  0.00    -0.346 OA
BRANCH  52  56
ATOM     56  O   LIG    1      -12.194  -1.293   0.908  0.00  0.00    -0.386 OA
ATOM     57  H   LIG    1      -11.905  -2.191   0.630  0.00  0.00    +0.210 HD
ENDBRANCH  52  56
BRANCH  51  58
ATOM     58  O   LIG    1      -12.119   1.606   1.172  0.00  0.00    -0.459 OA
BRANCH  58  59
ATOM     59  C   LIG    1      -12.582   2.879   0.928  0.00  0.00    +0.304 C 
ATOM     60  C   LIG    1      -13.387   3.687   1.869  0.00  0.00    +0.136 C 
ATOM     61  O   LIG    1      -12.294   3.398  -0.190  0.00  0.00    -0.251 OA
ENDBRANCH  58  59
ENDBRANCH  51  58
ENDBRANCH  48  49
ENDBRANCH  43  48
ENDBRANCH  38  39
ENDBRANCH   4  38
TORSDOF 13
