REMARK  Name = molecules/HPWIIERXAFODPP-MYIPQGGFSA-N.pdb
REMARK                            x       y       z     vdW  Elec       q    Type
REMARK                         _______ _______ _______ _____ _____    ______ ____
ROOT
ATOM      1  N   LIG    1       -2.618   0.873   1.542  0.00  0.00    -0.299 N 
ATOM      2  H   LIG    1       -2.243   0.559   2.487  0.00  0.00    +0.150 HD
ATOM      3  C   LIG    1       -3.958   0.540   1.293  0.00  0.00    +0.245 C 
ATOM      4  O   LIG    1       -4.755   0.533   2.283  0.00  0.00    -0.273 OA
ATOM      5  C   LIG    1       -4.537   0.195   0.000  0.00  0.00    +0.177 C 
ATOM      6  N   LIG    1       -3.850  -0.473  -1.026  0.00  0.00    -0.293 N 
ATOM      7  C   LIG    1       -2.933  -1.543  -0.898  0.00  0.00    +0.237 C 
ATOM      8  CA  LIG    1       -3.109  -2.796  -0.160  0.00  0.00    +0.184 C 
ATOM      9  N   LIG    1       -2.529  -2.812   1.161  0.00  0.00    -0.300 N 
ATOM     10  H   LIG    1       -3.074  -2.267   1.897  0.00  0.00    +0.150 HD
ATOM     11  C   LIG    1       -1.348  -3.462   1.565  0.00  0.00    +0.236 C 
ATOM     12  O   LIG    1       -1.373  -4.195   2.614  0.00  0.00    -0.274 OA
ATOM     13  CA  LIG    1       -0.031  -3.385   0.883  0.00  0.00    +0.184 C 
ATOM     14  N   LIG    1        1.005  -3.305   1.905  0.00  0.00    -0.301 N 
ATOM     15  C   LIG    1        1.399  -2.133   2.582  0.00  0.00    +0.236 C 
ATOM     16  O   LIG    1        1.447  -2.173   3.860  0.00  0.00    -0.274 OA
ATOM     17  CA  LIG    1        1.767  -0.844   1.947  0.00  0.00    +0.176 C 
ATOM     18  C   LIG    1        0.515  -0.203   1.419  0.00  0.00    +0.136 C 
ATOM     19  N   LIG    1        0.375   1.143   1.941  0.00  0.00    -0.311 N 
ATOM     20  H   LIG    1        0.985   1.450   2.758  0.00  0.00    +0.149 HD
ATOM     21  C   LIG    1       -0.552   2.078   1.402  0.00  0.00    +0.237 C 
ATOM     22  O   LIG    1       -0.311   3.295   1.603  0.00  0.00    -0.274 OA
ATOM     23  H   LIG    1        1.489  -4.205   2.151  0.00  0.00    +0.150 HD
ATOM     24  O   LIG    1       -1.811  -1.390  -1.507  0.00  0.00    -0.274 OA
ATOM     25  H   LIG    1       -4.060  -0.108  -2.014  0.00  0.00    +0.150 HD
ATOM     26  C   LIG    1       -1.739   1.589   0.641  0.00  0.00    +0.200 C 
ENDROOT
BRANCH   5  27
ATOM     27  C   LIG    1       -5.820   0.560  -0.199  0.00  0.00    +0.086 C 
ATOM     28  N   LIG    1       -6.524   0.303  -1.390  0.00  0.00    -0.277 N 
ATOM     29  C   LIG    1       -7.865   0.714  -1.529  0.00  0.00    +0.301 C 
ATOM     30  O   LIG    1       -8.475   1.324  -0.589  0.00  0.00    -0.253 OA
ATOM     31  N   LIG    1       -8.630   0.484  -2.708  0.00  0.00    -0.313 N 
ATOM     32  H   LIG    1       -9.125  -0.420  -2.865  0.00  0.00    +0.146 HD
ATOM     33  H   LIG    1       -8.688   1.240  -3.419  0.00  0.00    +0.146 HD
ATOM     34  H   LIG    1       -6.062  -0.190  -2.166  0.00  0.00    +0.156 HD
ENDBRANCH   5  27
BRANCH  26  35
ATOM     35  C   LIG    1       -2.439   2.699  -0.084  0.00  0.00    +0.220 C 
ATOM     36  C   LIG    1       -3.026   3.761   0.779  0.00  0.00    +0.081 C 
ATOM     37  C   LIG    1       -3.998   4.568  -0.076  0.00  0.00    +0.188 C 
ATOM     38  N   LIG    1       -3.325   4.861  -1.324  0.00  0.00    -0.238 N 
ATOM     39  C   LIG    1       -2.025   4.398  -1.663  0.00  0.00    +0.363 C 
ATOM     40  H   LIG    1       -3.810   5.450  -2.037  0.00  0.00    +0.244 HD
ATOM     41  N   LIG    1       -1.576   3.333  -1.059  0.00  0.00    -0.112 NA
BRANCH  39  42
ATOM     42  N   LIG    1       -1.196   5.050  -2.634  0.00  0.00    -0.252 N 
ATOM     43  H   LIG    1       -0.748   5.946  -2.414  0.00  0.00    +0.241 HD
ATOM     44  H   LIG    1       -1.037   4.625  -3.575  0.00  0.00    +0.241 HD
ENDBRANCH  39  42
ENDBRANCH  26  35
BRANCH  17  45
ATOM     45  N   LIG    1        2.782  -1.006   0.935  0.00  0.00    -0.303 N 
ATOM     46  C   LIG    1        4.051  -0.386   1.088  0.00  0.00    +0.215 C 
ATOM     47  O   LIG    1        4.265   0.309   2.134  0.00  0.00    -0.276 OA
ATOM     48  H   LIG    1        2.637  -1.573   0.063  0.00  0.00    +0.149 HD
BRANCH  46  49
ATOM     49  C   LIG    1        5.132  -0.507   0.095  0.00  0.00    +0.116 C 
BRANCH  49  50
ATOM     50  C   LIG    1        6.400   0.180   0.531  0.00  0.00    +0.088 C 
BRANCH  50  51
ATOM     51  N   LIG    1        6.986  -0.511   1.694  0.00  0.00    -0.325 NA
ATOM     52  H   LIG    1        6.376  -0.532   2.511  0.00  0.00    +0.119 HD
ATOM     53  H   LIG    1        7.213  -1.499   1.410  0.00  0.00    +0.119 HD
ENDBRANCH  50  51
BRANCH  50  54
ATOM     54  C   LIG    1        7.476   0.030  -0.548  0.00  0.00    +0.133 C 
BRANCH  54  55
ATOM     55  O   LIG    1        8.621   0.658  -0.007  0.00  0.00    -0.390 OA
ATOM     56  H   LIG    1        8.340   1.387   0.598  0.00  0.00    +0.210 HD
ENDBRANCH  54  55
BRANCH  54  57
ATOM     57  C   LIG    1        7.109   0.773  -1.813  0.00  0.00    +0.048 C 
BRANCH  57  58
ATOM     58  C   LIG    1        8.279   0.522  -2.777  0.00  0.00    +0.080 C 
BRANCH  58  59
ATOM     59  N   LIG    1        9.506   1.015  -2.217  0.00  0.00    -0.330 NA
ATOM     60  H   LIG    1       10.090   0.269  -1.775  0.00  0.00    +0.118 HD
ATOM     61  H   LIG    1       10.074   1.430  -2.978  0.00  0.00    +0.118 HD
ENDBRANCH  58  59
ENDBRANCH  57  58
ENDBRANCH  54  57
ENDBRANCH  50  54
ENDBRANCH  49  50
ENDBRANCH  46  49
ENDBRANCH  17  45
BRANCH  13  62
ATOM     62  CB  LIG    1        0.247  -4.624   0.041  0.00  0.00    +0.187 C 
BRANCH  62  63
ATOM     63  O   LIG    1        0.212  -5.753   0.848  0.00  0.00    -0.393 OA
ATOM     64  H   LIG    1        0.556  -6.533   0.344  0.00  0.00    +0.209 HD
ENDBRANCH  62  63
ENDBRANCH  13  62
BRANCH   8  65
ATOM     65  C   LIG    1       -4.546  -3.267  -0.059  0.00  0.00    +0.187 C 
BRANCH  65  66
ATOM     66  O   LIG    1       -5.265  -2.438   0.793  0.00  0.00    -0.393 OA
ATOM     67  H   LIG    1       -5.254  -2.802   1.693  0.00  0.00    +0.209 HD
ENDBRANCH  65  66
ENDBRANCH   8  65
TORSDOF 16
