REMARK  Name = molecules/HQIRNZOQPUAHHV-LLVKDONJSA-N.pdb
REMARK                            x       y       z     vdW  Elec       q    Type
REMARK                         _______ _______ _______ _____ _____    ______ ____
ROOT
ATOM      1  C   LIG    1        0.737   0.267  -0.292  0.00  0.00    +0.261 C 
ENDROOT
BRANCH   1   2
ATOM      2  O   LIG    1        1.541  -0.829  -0.674  0.00  0.00    -0.488 OA
BRANCH   2   3
ATOM      3  C   LIG    1        2.869  -0.824  -0.348  0.00  0.00    +0.139 A 
ATOM      4  C   LIG    1        3.411   0.230   0.340  0.00  0.00    +0.050 A 
ATOM      5  C   LIG    1        4.746   0.262   0.682  0.00  0.00    -0.047 A 
ATOM      6  C   LIG    1        5.315   1.401   1.422  0.00  0.00    +0.044 C 
ATOM      7  C   LIG    1        5.538  -0.800   0.315  0.00  0.00    +0.005 A 
ATOM      8  C   LIG    1        5.019  -1.891  -0.387  0.00  0.00    +0.024 A 
ATOM      9  C   LIG    1        3.659  -1.885  -0.715  0.00  0.00    +0.083 A 
ATOM     10 CL   LIG    1        2.978  -3.241  -1.599  0.00  0.00    -0.080 Cl
ENDBRANCH   2   3
ENDBRANCH   1   2
BRANCH   1  11
ATOM     11  C   LIG    1       -0.680  -0.057  -0.805  0.00  0.00    +0.166 C 
BRANCH  11  12
ATOM     12  O   LIG    1       -0.648  -0.204  -2.196  0.00  0.00    -0.387 OA
ATOM     13  H   LIG    1       -1.258   0.440  -2.658  0.00  0.00    +0.210 HD
ENDBRANCH  11  12
BRANCH  11  14
ATOM     14  C   LIG    1       -1.547   1.111  -0.441  0.00  0.00    +0.116 C 
BRANCH  14  15
ATOM     15  N   LIG    1       -2.892   1.054  -0.864  0.00  0.00    -0.309 NA
ATOM     16  H   LIG    1       -3.327   2.001  -0.801  0.00  0.00    +0.123 HD
BRANCH  15  17
ATOM     17  C   LIG    1       -3.768   0.116  -0.265  0.00  0.00    +0.011 C 
ATOM     18  C   LIG    1       -3.869   0.315   1.253  0.00  0.00    +0.027 C 
ATOM     19  C   LIG    1       -3.473  -1.326  -0.494  0.00  0.00    +0.027 C 
ATOM     20  C   LIG    1       -5.186   0.379  -0.799  0.00  0.00    +0.027 C 
ENDBRANCH  15  17
ENDBRANCH  14  15
ENDBRANCH  11  14
ENDBRANCH   1  11
TORSDOF 7
