REMARK  Name = molecules/HQXKELRFXWJXNP-ABOIPUQESA-N.pdb
REMARK                            x       y       z     vdW  Elec       q    Type
REMARK                         _______ _______ _______ _____ _____    ______ ____
ROOT
ATOM      1  C   LIG    1       -0.682  -2.150   0.237  0.00  0.00    +0.218 C 
ATOM      2  C   LIG    1       -0.542  -3.636   0.087  0.00  0.00    +0.177 C 
ATOM      3  C   LIG    1       -1.850  -3.954  -0.672  0.00  0.00    +0.160 C 
ATOM      4  C   LIG    1       -1.704  -5.302  -1.314  0.00  0.00    +0.041 C 
ATOM      5  O   LIG    1       -1.782  -2.947  -1.639  0.00  0.00    -0.342 OA
ATOM      6  C   LIG    1       -1.573  -1.759  -0.892  0.00  0.00    +0.283 C 
ENDROOT
BRANCH   2   7
ATOM      7  O   LIG    1        0.461  -4.057  -0.755  0.00  0.00    -0.376 OA
ATOM      8  H   LIG    1        0.927  -3.355  -1.243  0.00  0.00    +0.211 HD
ENDBRANCH   2   7
BRANCH   2   9
ATOM      9  C   LIG    1       -0.557  -4.324   1.393  0.00  0.00    +0.263 C 
ATOM     10  O   LIG    1        0.244  -5.180   1.659  0.00  0.00    -0.298 OA
ENDBRANCH   2   9
BRANCH   6  11
ATOM     11  O   LIG    1       -2.827  -1.383  -0.468  0.00  0.00    -0.339 OA
BRANCH  11  12
ATOM     12  C   LIG    1       -3.300  -0.191  -0.986  0.00  0.00    +0.192 C 
ATOM     13  C   LIG    1       -3.491   0.787   0.138  0.00  0.00    +0.208 C 
ATOM     14  C   LIG    1       -4.811   0.640   0.846  0.00  0.00    +0.193 C 
ATOM     15  C   LIG    1       -5.999   0.427   0.003  0.00  0.00    +0.208 C 
ATOM     16  C   LIG    1       -5.763   0.209  -1.444  0.00  0.00    +0.185 C 
ATOM     17  C   LIG    1       -4.510  -0.503  -1.794  0.00  0.00    +0.179 C 
BRANCH  17  18
ATOM     18  O   LIG    1       -4.254  -0.230  -3.159  0.00  0.00    -0.386 OA
ATOM     19  H   LIG    1       -4.952  -0.672  -3.725  0.00  0.00    +0.210 HD
ENDBRANCH  17  18
BRANCH  13  20
ATOM     20  N   LIG    1       -3.158   2.152  -0.198  0.00  0.00    -0.268 N 
ATOM     21  H   LIG    1       -2.419   2.651   0.342  0.00  0.00    +0.258 HD
BRANCH  20  22
ATOM     22  C   LIG    1       -3.760   2.919  -1.230  0.00  0.00    +0.377 C 
ATOM     23  N   LIG    1       -4.726   3.880  -0.812  0.00  0.00    -0.289 N 
ATOM     24  H   LIG    1       -5.057   3.983   0.176  0.00  0.00    +0.255 HD
ATOM     25  H   LIG    1       -5.174   4.563  -1.489  0.00  0.00    +0.255 HD
BRANCH  22  26
ATOM     26  N   LIG    1       -3.494   2.799  -2.463  0.00  0.00    -0.130 NA
ATOM     27  H   LIG    1       -3.979   3.399  -3.159  0.00  0.00    +0.306 HD
ENDBRANCH  22  26
ENDBRANCH  20  22
ENDBRANCH  13  20
BRANCH  16  28
ATOM     28  O   LIG    1       -6.838  -0.579  -1.932  0.00  0.00    -0.386 OA
ATOM     29  H   LIG    1       -6.895  -0.458  -2.920  0.00  0.00    +0.210 HD
ENDBRANCH  16  28
BRANCH  15  30
ATOM     30  N   LIG    1       -6.954   1.540   0.123  0.00  0.00    -0.268 N 
ATOM     31  H   LIG    1       -6.707   2.321   0.753  0.00  0.00    +0.258 HD
BRANCH  30  32
ATOM     32  C   LIG    1       -8.167   1.566  -0.579  0.00  0.00    +0.377 C 
ATOM     33  N   LIG    1       -9.353   1.140   0.070  0.00  0.00    -0.289 N 
ATOM     34  H   LIG    1       -9.604   1.613   0.976  0.00  0.00    +0.255 HD
ATOM     35  H   LIG    1       -9.910   0.392  -0.372  0.00  0.00    +0.255 HD
BRANCH  32  36
ATOM     36  N   LIG    1       -8.233   1.968  -1.794  0.00  0.00    -0.130 NA
ATOM     37  H   LIG    1       -9.137   1.977  -2.285  0.00  0.00    +0.306 HD
ENDBRANCH  32  36
ENDBRANCH  30  32
ENDBRANCH  15  30
BRANCH  14  38
ATOM     38  O   LIG    1       -4.700  -0.362   1.837  0.00  0.00    -0.385 OA
ATOM     39  H   LIG    1       -3.747  -0.613   1.915  0.00  0.00    +0.210 HD
ENDBRANCH  14  38
ENDBRANCH  11  12
ENDBRANCH   6  11
BRANCH   1  40
ATOM     40  O   LIG    1        0.428  -1.421   0.447  0.00  0.00    -0.338 OA
BRANCH  40  41
ATOM     41  C   LIG    1        0.588  -0.718   1.574  0.00  0.00    +0.271 C 
ATOM     42  C   LIG    1        1.811  -1.157   2.329  0.00  0.00    +0.141 C 
ATOM     43  C   LIG    1        2.780  -0.019   2.561  0.00  0.00    +0.168 C 
ATOM     44  C   LIG    1        2.902   0.933   1.395  0.00  0.00    +0.182 C 
ATOM     45  C   LIG    1        1.644   1.159   0.650  0.00  0.00    +0.178 C 
ATOM     46  O   LIG    1        0.577   0.630   1.307  0.00  0.00    -0.341 OA
BRANCH  42  47
ATOM     47  N   LIG    1        2.420  -2.311   1.814  0.00  0.00    -0.310 NA
ATOM     48  H   LIG    1        2.043  -3.179   2.209  0.00  0.00    +0.122 HD
ATOM     49  C   LIG    1        2.989  -2.364   0.541  0.00  0.00    +0.101 C 
ENDBRANCH  42  47
BRANCH  43  50
ATOM     50  O   LIG    1        2.270   0.751   3.618  0.00  0.00    -0.387 OA
ATOM     51  H   LIG    1        2.483   0.301   4.466  0.00  0.00    +0.210 HD
ENDBRANCH  43  50
BRANCH  45  52
ATOM     52  C   LIG    1        1.411   2.621   0.294  0.00  0.00    +0.190 C 
BRANCH  52  53
ATOM     53  O   LIG    1        2.482   3.185  -0.375  0.00  0.00    -0.392 OA
ATOM     54  H   LIG    1        2.606   4.149  -0.159  0.00  0.00    +0.210 HD
ENDBRANCH  52  53
ENDBRANCH  45  52
BRANCH  44  55
ATOM     55  O   LIG    1        3.886   0.458   0.548  0.00  0.00    -0.340 OA
BRANCH  55  56
ATOM     56  C   LIG    1        4.977   1.261   0.368  0.00  0.00    +0.282 C 
ATOM     57  O   LIG    1        6.145   0.702   0.926  0.00  0.00    -0.341 OA
ATOM     58  C   LIG    1        7.282   1.271   0.367  0.00  0.00    +0.178 C 
ATOM     59  C   LIG    1        7.493   0.830  -1.059  0.00  0.00    +0.177 C 
ATOM     60  C   LIG    1        6.166   0.710  -1.780  0.00  0.00    +0.179 C 
ATOM     61  C   LIG    1        5.173   1.608  -1.071  0.00  0.00    +0.201 C 
BRANCH  61  62
ATOM     62  O   LIG    1        5.527   2.926  -1.296  0.00  0.00    -0.384 OA
ATOM     63  H   LIG    1        6.400   2.983  -1.790  0.00  0.00    +0.210 HD
ENDBRANCH  61  62
BRANCH  60  64
ATOM     64  O   LIG    1        6.339   1.219  -3.063  0.00  0.00    -0.386 OA
ATOM     65  H   LIG    1        6.349   0.524  -3.765  0.00  0.00    +0.210 HD
ENDBRANCH  60  64
BRANCH  59  66
ATOM     66  O   LIG    1        8.118  -0.418  -1.117  0.00  0.00    -0.386 OA
ATOM     67  H   LIG    1        8.499  -0.493  -2.041  0.00  0.00    +0.210 HD
ENDBRANCH  59  66
BRANCH  58  68
ATOM     68  C   LIG    1        8.469   0.852   1.202  0.00  0.00    +0.190 C 
BRANCH  68  69
ATOM     69  O   LIG    1        9.656   1.389   0.691  0.00  0.00    -0.392 OA
ATOM     70  H   LIG    1        9.461   2.277   0.266  0.00  0.00    +0.210 HD
ENDBRANCH  68  69
ENDBRANCH  58  68
ENDBRANCH  55  56
ENDBRANCH  44  55
ENDBRANCH  40  41
ENDBRANCH   1  40
TORSDOF 26
