REMARK  Name = molecules/HRNLPPBUBKMZMT-RDRUQFPZSA-N.pdb
REMARK                            x       y       z     vdW  Elec       q    Type
REMARK                         _______ _______ _______ _____ _____    ______ ____
ROOT
ATOM      1  C   LIG    1        0.831  -1.606  -0.328  0.00  0.00    +0.163 C 
ENDROOT
BRANCH   1   2
ATOM      2  C   LIG    1        2.206  -1.139  -0.519  0.00  0.00    +0.234 C 
ATOM      3  N   LIG    1        2.990  -0.856   0.631  0.00  0.00    -0.302 N 
ATOM      4  H   LIG    1        2.591  -0.964   1.605  0.00  0.00    +0.150 HD
ATOM      5  O   LIG    1        2.680  -0.990  -1.652  0.00  0.00    -0.274 OA
BRANCH   3   6
ATOM      6  C   LIG    1        4.352  -0.412   0.505  0.00  0.00    +0.163 C 
BRANCH   6   7
ATOM      7  C   LIG    1        4.353   1.087   0.452  0.00  0.00    +0.234 C 
ATOM      8  N   LIG    1        5.558   1.830   0.445  0.00  0.00    -0.302 N 
ATOM      9  H   LIG    1        6.451   1.294   0.488  0.00  0.00    +0.150 HD
ATOM     10  O   LIG    1        3.258   1.677   0.415  0.00  0.00    -0.274 OA
BRANCH   8  11
ATOM     11  C   LIG    1        5.572   3.273   0.380  0.00  0.00    +0.159 C 
BRANCH  11  12
ATOM     12  C   LIG    1        6.439   3.763  -0.699  0.00  0.00    +0.231 C 
ATOM     13  N   LIG    1        6.621   5.137  -0.972  0.00  0.00    -0.328 N 
ATOM     14  H   LIG    1        7.339   5.745  -0.539  0.00  0.00    +0.145 HD
ATOM     15  H   LIG    1        5.975   5.564  -1.667  0.00  0.00    +0.145 HD
ATOM     16  O   LIG    1        7.053   2.936  -1.421  0.00  0.00    -0.274 OA
ENDBRANCH  11  12
BRANCH  11  17
ATOM     17  C   LIG    1        5.760   3.909   1.702  0.00  0.00    +0.032 C 
BRANCH  17  18
ATOM     18  C   LIG    1        6.969   3.623   2.488  0.00  0.00    +0.003 C 
BRANCH  18  19
ATOM     19  C   LIG    1        8.282   3.965   1.818  0.00  0.00    +0.015 C 
BRANCH  19  20
ATOM     20  C   LIG    1        9.362   3.632   2.847  0.00  0.00    +0.077 C 
BRANCH  20  21
ATOM     21  N   LIG    1        9.326   2.251   3.231  0.00  0.00    -0.330 NA
ATOM     22  H   LIG    1        9.451   2.190   4.264  0.00  0.00    +0.118 HD
ATOM     23  H   LIG    1       10.119   1.757   2.772  0.00  0.00    +0.118 HD
ENDBRANCH  20  21
ENDBRANCH  19  20
ENDBRANCH  18  19
ENDBRANCH  17  18
ENDBRANCH  11  17
ENDBRANCH   8  11
ENDBRANCH   6   7
BRANCH   6  24
ATOM     24  C   LIG    1        5.270  -0.933   1.558  0.00  0.00    +0.067 C 
BRANCH  24  25
ATOM     25  C   LIG    1        5.351  -2.402   1.574  0.00  0.00    -0.045 A 
ATOM     26  C   LIG    1        4.457  -3.156   2.336  0.00  0.00    +0.004 A 
ATOM     27  C   LIG    1        4.488  -4.511   2.401  0.00  0.00    +0.000 A 
ATOM     28  C   LIG    1        5.428  -5.221   1.700  0.00  0.00    +0.000 A 
ATOM     29  C   LIG    1        6.329  -4.499   0.936  0.00  0.00    +0.000 A 
ATOM     30  C   LIG    1        6.307  -3.119   0.862  0.00  0.00    +0.004 A 
ENDBRANCH  24  25
ENDBRANCH   6  24
ENDBRANCH   3   6
ENDBRANCH   1   2
BRANCH   1  33
ATOM     31  C   LIG    1       -1.256  -0.439  -1.055  0.00  0.00    +0.234 C 
ATOM     32  O   LIG    1       -1.592  -0.393   0.152  0.00  0.00    -0.274 OA
ATOM     33  N   LIG    1       -0.024  -1.048  -1.379  0.00  0.00    -0.302 N 
ATOM     34  H   LIG    1        0.302  -1.114  -2.352  0.00  0.00    +0.150 HD
BRANCH  31  35
ATOM     35  C   LIG    1       -2.138   0.131  -2.082  0.00  0.00    +0.156 C 
ATOM     36  C   LIG    1       -1.558   1.371  -2.723  0.00  0.00    +0.038 C 
BRANCH  35  38
ATOM     37  C   LIG    1       -4.621   0.052  -1.691  0.00  0.00    +0.234 C 
ATOM     38  N   LIG    1       -3.357   0.585  -1.395  0.00  0.00    -0.303 N 
ATOM     39  H   LIG    1       -3.256   1.322  -0.677  0.00  0.00    +0.149 HD
ATOM     40  O   LIG    1       -4.770  -0.848  -2.583  0.00  0.00    -0.274 OA
BRANCH  37  41
ATOM     41  C   LIG    1       -5.809   0.519  -0.969  0.00  0.00    +0.163 C 
BRANCH  41  44
ATOM     42  C   LIG    1       -7.766  -1.003  -0.570  0.00  0.00    +0.230 C 
ATOM     43  O   LIG    1       -7.391  -1.036   0.646  0.00  0.00    -0.274 OA
ATOM     44  N   LIG    1       -6.972  -0.205  -1.442  0.00  0.00    -0.302 N 
ATOM     45  H   LIG    1       -7.244  -0.146  -2.445  0.00  0.00    +0.150 HD
BRANCH  42  47
ATOM     46  C   LIG    1       -8.659  -2.780  -2.050  0.00  0.00    +0.033 C 
ATOM     47  C   LIG    1       -8.952  -1.772  -0.947  0.00  0.00    +0.135 C 
BRANCH  47  48
ATOM     48  N   LIG    1       -9.486  -2.472   0.217  0.00  0.00    -0.320 NA
ATOM     49  H   LIG    1       -9.562  -1.742   0.986  0.00  0.00    +0.119 HD
ATOM     50  H   LIG    1       -8.882  -3.250   0.547  0.00  0.00    +0.119 HD
ENDBRANCH  47  48
ENDBRANCH  42  47
ENDBRANCH  41  44
BRANCH  41  51
ATOM     51  C   LIG    1       -5.962   2.005  -1.125  0.00  0.00    +0.067 C 
BRANCH  51  52
ATOM     52  C   LIG    1       -7.150   2.485  -0.331  0.00  0.00    -0.045 A 
ATOM     53  C   LIG    1       -7.003   2.880   0.997  0.00  0.00    +0.012 A 
ATOM     54  C   LIG    1       -8.069   3.318   1.752  0.00  0.00    -0.018 A 
ATOM     55  C   LIG    1       -7.913   3.710   3.076  0.00  0.00    +0.008 A 
ATOM     56  C   LIG    1       -8.990   4.152   3.834  0.00  0.00    +0.001 A 
ATOM     57  C   LIG    1      -10.263   4.218   3.292  0.00  0.00    +0.001 A 
ATOM     58  C   LIG    1      -10.407   3.825   1.976  0.00  0.00    +0.008 A 
ATOM     59  C   LIG    1       -9.335   3.385   1.220  0.00  0.00    -0.018 A 
ATOM     60  C   LIG    1       -9.487   2.991  -0.107  0.00  0.00    +0.009 A 
ATOM     61  C   LIG    1       -8.412   2.550  -0.867  0.00  0.00    +0.004 A 
ENDBRANCH  51  52
ENDBRANCH  41  51
ENDBRANCH  37  41
ENDBRANCH  35  38
ENDBRANCH  31  35
ENDBRANCH   1  33
BRANCH   1  62
ATOM     62  C   LIG    1        0.659  -3.090  -0.226  0.00  0.00    +0.069 C 
BRANCH  62  63
ATOM     63  C   LIG    1        0.985  -3.816  -1.458  0.00  0.00    -0.020 A 
ATOM     64  C   LIG    1        2.204  -4.207  -1.986  0.00  0.00    +0.003 A 
ATOM     65  C   LIG    1        3.514  -4.085  -1.547  0.00  0.00    +0.010 A 
ATOM     66  C   LIG    1        4.522  -4.594  -2.307  0.00  0.00    +0.001 A 
ATOM     67  C   LIG    1        4.269  -5.237  -3.515  0.00  0.00    +0.002 A 
ATOM     68  C   LIG    1        2.966  -5.356  -3.945  0.00  0.00    +0.026 A 
ATOM     69  C   LIG    1        1.942  -4.836  -3.171  0.00  0.00    +0.047 A 
ATOM     70  N   LIG    1        0.608  -4.861  -3.415  0.00  0.00    -0.360 N 
ATOM     71  H   LIG    1        0.161  -5.287  -4.255  0.00  0.00    +0.165 HD
ATOM     72  C   LIG    1        0.022  -4.243  -2.377  0.00  0.00    +0.087 A 
ENDBRANCH  62  63
ENDBRANCH   1  62
TORSDOF 23
