REMARK  Name = molecules/HRWCVUIFMSZDJS-SZMVWBNQSA-N.pdb
REMARK                            x       y       z     vdW  Elec       q    Type
REMARK                         _______ _______ _______ _____ _____    ______ ____
ROOT
ATOM      1  C   UNK A  1       -0.745  -0.112  -0.727  0.00  0.00    +0.138 C 
ATOM      2  C   UNK A  1       -1.148  -1.040  -1.875  0.00  0.00    +0.034 C 
ENDROOT
BRANCH   1   3
ATOM      3  C   UNK A  1       -1.344  -0.699   0.498  0.00  0.00    +0.233 C 
ATOM      4  O   UNK A  1       -0.590  -1.264   1.326  0.00  0.00    -0.274 OA
ATOM      5  N   UNK A  1       -2.760  -0.617   0.726  0.00  0.00    -0.285 N 
ATOM      6  C   UNK A  1       -3.407  -1.162   1.878  0.00  0.00    +0.187 C 
ATOM      7  C   UNK A  1       -4.856  -0.786   1.805  0.00  0.00    +0.064 C 
ATOM      8  C   UNK A  1       -5.038  -0.326   0.396  0.00  0.00    +0.080 C 
ATOM      9  S   UNK A  1       -6.130   1.127   0.292  0.00  0.00    -0.141 S 
ATOM     10  C   UNK A  1       -6.974   0.913  -1.243  0.00  0.00    +0.081 C 
ATOM     11  C   UNK A  1       -6.924  -0.481  -1.699  0.00  0.00    +0.081 C 
ATOM     12  S   UNK A  1       -5.949  -1.491  -0.622  0.00  0.00    -0.141 S 
ATOM     13  C   UNK A  1       -3.690   0.012  -0.145  0.00  0.00    +0.137 C 
BRANCH   6  14
ATOM     14  C   UNK A  1       -3.212  -2.633   1.975  0.00  0.00    +0.326 C 
ATOM     15  O   UNK A  1       -3.720  -3.244   2.932  0.00  0.00    -0.249 OA
BRANCH  14  16
ATOM     16  O   UNK A  1       -2.487  -3.308   1.031  0.00  0.00    -0.479 OA
ATOM     17  H   UNK A  1       -2.391  -4.319   1.008  0.00  0.00    +0.295 HD
ENDBRANCH  14  16
ENDBRANCH   6  14
ENDBRANCH   1   3
BRANCH   1  18
ATOM     18  N   UNK A  1        0.688  -0.207  -0.631  0.00  0.00    -0.294 NA
ATOM     19  H   UNK A  1        1.022  -1.183  -0.570  0.00  0.00    +0.123 HD
BRANCH  18  20
ATOM     20  C   UNK A  0        1.264   0.553   0.442  0.00  0.00    +0.164 C 
BRANCH  20  21
ATOM     21  C   UNK A  0        1.583   1.951   0.018  0.00  0.00    +0.324 C 
ATOM     22  O   UNK A  0        1.357   2.334  -1.152  0.00  0.00    -0.249 OA
BRANCH  21  23
ATOM     23  O   UNK A  0        2.133   2.844   0.916  0.00  0.00    -0.464 OA
BRANCH  23  24
ATOM     24  C   UNK A  0        2.437   4.158   0.529  0.00  0.00    +0.229 C 
ATOM     25  C   UNK A  0        3.428   4.267  -0.583  0.00  0.00    +0.048 C 
ENDBRANCH  23  24
ENDBRANCH  21  23
ENDBRANCH  20  21
BRANCH  20  26
ATOM     26  C   UNK A  0        2.583  -0.140   0.813  0.00  0.00    +0.035 C 
BRANCH  26  27
ATOM     27  C   UNK A  0        3.417  -0.087  -0.458  0.00  0.00    +0.037 C 
BRANCH  27  28
ATOM     28  C   UNK A  0        4.742  -0.706  -0.253  0.00  0.00    -0.047 A 
ATOM     29  C   UNK A  0        5.765   0.110   0.184  0.00  0.00    +0.003 A 
ATOM     30  C   UNK A  0        7.018  -0.428   0.386  0.00  0.00    +0.000 A 
ATOM     31  C   UNK A  0        7.208  -1.774   0.142  0.00  0.00    +0.000 A 
ATOM     32  C   UNK A  0        6.184  -2.570  -0.291  0.00  0.00    +0.000 A 
ATOM     33  C   UNK A  0        4.925  -2.052  -0.498  0.00  0.00    +0.003 A 
ENDBRANCH  27  28
ENDBRANCH  26  27
ENDBRANCH  20  26
ENDBRANCH  18  20
ENDBRANCH   1  18
TORSDOF 11
