REMARK  Name = molecules/HSHNITRMYYLLCV-UHFFFAOYSA-N.pdb
REMARK                            x       y       z     vdW  Elec       q    Type
REMARK                         _______ _______ _______ _____ _____    ______ ____
ROOT
ATOM      1  C   LIG    1       -2.568  -0.772  -0.097  0.00  0.00    +0.045 C 
ATOM      2  C   LIG    1       -1.519   0.273  -0.055  0.00  0.00    -0.033 A 
ATOM      3  C   LIG    1       -0.200  -0.090   0.033  0.00  0.00    +0.021 A 
ATOM      4  C   LIG    1        0.230  -1.400   0.087  0.00  0.00    +0.015 A 
ATOM      5  C   LIG    1        1.560  -1.756   0.176  0.00  0.00    +0.046 A 
ATOM      6  C   LIG    1        2.494  -0.739   0.211  0.00  0.00    +0.120 A 
ATOM      7  C   LIG    1        2.082   0.577   0.159  0.00  0.00    +0.092 A 
ATOM      8  C   LIG    1        0.734   0.927   0.069  0.00  0.00    +0.143 A 
ATOM      9  O   LIG    1        0.352   2.189   0.019  0.00  0.00    -0.422 OA
ATOM     10  C   LIG    1       -0.905   2.553  -0.066  0.00  0.00    +0.337 A 
ATOM     11  O   LIG    1       -1.254   3.756  -0.112  0.00  0.00    -0.245 OA
ATOM     12  C   LIG    1       -1.905   1.606  -0.107  0.00  0.00    +0.096 A 
ENDROOT
BRANCH   6  13
ATOM     13  O   LIG    1        3.851  -1.054   0.301  0.00  0.00    -0.507 OA
ATOM     14  H   LIG    1        4.357  -1.178  -0.574  0.00  0.00    +0.292 HD
ENDBRANCH   6  13
TORSDOF 1
