REMARK  Name = molecules/HSRJKNPTNIJEKV-QMMMGPOBSA-N.pdb
REMARK                            x       y       z     vdW  Elec       q    Type
REMARK                         _______ _______ _______ _____ _____    ______ ____
ROOT
ATOM      1  O   LIG    1        0.391   0.224  -0.063  0.00  0.00    -0.486 OA
ENDROOT
BRANCH   1   2
ATOM      2  C   LIG    1       -0.927  -0.131   0.048  0.00  0.00    +0.162 A 
ATOM      3  C   LIG    1       -1.258  -1.435   0.310  0.00  0.00    +0.049 A 
ATOM      4  C   LIG    1       -2.598  -1.793   0.422  0.00  0.00    +0.004 A 
ATOM      5  C   LIG    1       -3.573  -0.836   0.269  0.00  0.00    +0.004 A 
ATOM      6  C   LIG    1       -3.260   0.479   0.005  0.00  0.00    +0.049 A 
ATOM      7  C   LIG    1       -1.935   0.803  -0.100  0.00  0.00    +0.161 A 
BRANCH   7   8
ATOM      8  O   LIG    1       -1.578   2.097  -0.361  0.00  0.00    -0.491 OA
ATOM      9  C   LIG    1       -2.551   3.085  -0.521  0.00  0.00    +0.277 C 
ENDBRANCH   7   8
ENDBRANCH   1   2
BRANCH   1  10
ATOM     10  C   LIG    1        1.396  -0.742   0.091  0.00  0.00    +0.262 C 
BRANCH  10  11
ATOM     11  C   LIG    1        2.789  -0.136  -0.071  0.00  0.00    +0.177 C 
BRANCH  11  12
ATOM     12  O   LIG    1        3.023   0.853   0.864  0.00  0.00    -0.386 OA
ATOM     13  H   LIG    1        3.800   1.385   0.584  0.00  0.00    +0.210 HD
ENDBRANCH  11  12
BRANCH  11  14
ATOM     14  C   LIG    1        3.766  -1.306   0.111  0.00  0.00    +0.190 C 
BRANCH  14  15
ATOM     15  O   LIG    1        5.074  -0.886  -0.034  0.00  0.00    -0.392 OA
ATOM     16  H   LIG    1        5.196  -0.448  -0.897  0.00  0.00    +0.210 HD
ENDBRANCH  14  15
ENDBRANCH  11  14
ENDBRANCH  10  11
ENDBRANCH   1  10
TORSDOF 7
