REMARK  Name = molecules/HSTZMXCBWJGKHG-CUYWLFDKSA-N.pdb
REMARK                            x       y       z     vdW  Elec       q    Type
REMARK                         _______ _______ _______ _____ _____    ______ ____
ROOT
ATOM      1  C   LIG    1       -0.779   1.900   0.951  0.00  0.00    +0.128 A 
ATOM      2  C   LIG    1       -0.411   3.137   1.480  0.00  0.00    +0.091 A 
ATOM      3  C   LIG    1        0.893   3.481   1.687  0.00  0.00    +0.121 A 
ATOM      4  C   LIG    1        1.879   2.565   1.358  0.00  0.00    +0.053 A 
ATOM      5  C   LIG    1        1.590   1.335   0.836  0.00  0.00    -0.018 A 
ATOM      6  C   LIG    1        0.242   1.030   0.643  0.00  0.00    +0.054 A 
ENDROOT
BRANCH   3   7
ATOM      7  O   LIG    1        1.288   4.706   2.212  0.00  0.00    -0.507 OA
ATOM      8  H   LIG    1        0.581   5.394   2.461  0.00  0.00    +0.292 HD
ENDBRANCH   3   7
BRANCH   5   9
ATOM      9  C   LIG    1        2.603   0.353   0.481  0.00  0.00    +0.009 C 
ATOM     10  C   LIG    1        3.900   0.506   0.608  0.00  0.00    +0.008 C 
BRANCH  10  11
ATOM     11  C   LIG    1        4.902  -0.491   0.246  0.00  0.00    -0.025 A 
ATOM     12  C   LIG    1        6.252  -0.184   0.441  0.00  0.00    +0.011 A 
ATOM     13  C   LIG    1        7.249  -1.081   0.120  0.00  0.00    +0.046 A 
ATOM     14  C   LIG    1        6.936  -2.317  -0.406  0.00  0.00    +0.117 A 
ATOM     15  C   LIG    1        5.617  -2.650  -0.609  0.00  0.00    +0.046 A 
ATOM     16  C   LIG    1        4.636  -1.728  -0.277  0.00  0.00    +0.011 A 
BRANCH  14  17
ATOM     17  O   LIG    1        7.914  -3.254  -0.744  0.00  0.00    -0.507 OA
ATOM     18  H   LIG    1        8.296  -3.237  -1.696  0.00  0.00    +0.292 HD
ENDBRANCH  14  17
ENDBRANCH  10  11
ENDBRANCH   5   9
BRANCH   1  19
ATOM     19  O   LIG    1       -2.104   1.600   0.762  0.00  0.00    -0.461 OA
BRANCH  19  20
ATOM     20  C   LIG    1       -2.618   0.417   0.248  0.00  0.00    +0.339 C 
ATOM     21  C   LIG    1       -3.558  -0.187   1.285  0.00  0.00    +0.214 C 
ATOM     22  C   LIG    1       -5.002  -0.053   0.825  0.00  0.00    +0.180 C 
ATOM     23  C   LIG    1       -5.222  -0.694  -0.528  0.00  0.00    +0.177 C 
ATOM     24  C   LIG    1       -3.930  -0.535  -1.305  0.00  0.00    +0.179 C 
ATOM     25  O   LIG    1       -3.333   0.658  -0.953  0.00  0.00    -0.331 OA
BRANCH  21  26
ATOM     26  O   LIG    1       -3.231  -1.513   1.563  0.00  0.00    -0.383 OA
ATOM     27  H   LIG    1       -3.564  -1.782   2.442  0.00  0.00    +0.210 HD
ENDBRANCH  21  26
BRANCH  22  28
ATOM     28  O   LIG    1       -5.292   1.309   0.802  0.00  0.00    -0.386 OA
ATOM     29  H   LIG    1       -5.244   1.701  -0.093  0.00  0.00    +0.210 HD
ENDBRANCH  22  28
BRANCH  23  30
ATOM     30  O   LIG    1       -5.474  -2.061  -0.415  0.00  0.00    -0.386 OA
ATOM     31  H   LIG    1       -5.618  -2.351   0.515  0.00  0.00    +0.210 HD
ENDBRANCH  23  30
BRANCH  24  32
ATOM     32  C   LIG    1       -4.151  -0.671  -2.790  0.00  0.00    +0.190 C 
BRANCH  32  33
ATOM     33  O   LIG    1       -4.758  -1.918  -3.003  0.00  0.00    -0.392 OA
ATOM     34  H   LIG    1       -4.320  -2.630  -2.482  0.00  0.00    +0.210 HD
ENDBRANCH  32  33
ENDBRANCH  24  32
ENDBRANCH  19  20
ENDBRANCH   1  19
TORSDOF 11
