REMARK  Name = molecules/HSUGRBWQSSZJOP-RTWAWAEBSA-N.pdb
REMARK                            x       y       z     vdW  Elec       q    Type
REMARK                         _______ _______ _______ _____ _____    ______ ____
ROOT
ATOM      1  C   LIG    1        0.416   0.671  -0.130  0.00  0.00    +0.279 C 
ATOM      2  C   LIG    1       -0.755   0.887   0.703  0.00  0.00    +0.262 C 
ATOM      3  N   LIG    1       -1.712   0.098   1.419  0.00  0.00    -0.266 N 
ATOM      4  C   LIG    1       -1.625  -1.339   1.518  0.00  0.00    +0.050 A 
ATOM      5  C   LIG    1       -2.668  -1.854   2.276  0.00  0.00    +0.024 A 
ATOM      6  C   LIG    1       -2.789  -3.225   2.511  0.00  0.00    +0.002 A 
ATOM      7  C   LIG    1       -1.862  -4.083   1.985  0.00  0.00    +0.001 A 
ATOM      8  C   LIG    1       -0.812  -3.625   1.228  0.00  0.00    +0.016 A 
ATOM      9  C   LIG    1       -0.725  -2.248   1.016  0.00  0.00    +0.030 A 
ATOM     10  S   LIG    1        0.722  -1.966  -0.005  0.00  0.00    -0.111 S 
ATOM     11  O   LIG    1       -1.025   2.133   0.849  0.00  0.00    -0.271 OA
ATOM     12  C   LIG    1        1.386  -0.344   0.405  0.00  0.00    +0.131 C 
ENDROOT
BRANCH  12  13
ATOM     13  C   LIG    1        2.737  -0.090  -0.091  0.00  0.00    -0.030 A 
ATOM     14  C   LIG    1        3.660   0.492   0.787  0.00  0.00    +0.008 A 
ATOM     15  C   LIG    1        4.956   0.780   0.421  0.00  0.00    +0.046 A 
ATOM     16  C   LIG    1        5.382   0.492  -0.858  0.00  0.00    +0.120 A 
ATOM     17  C   LIG    1        4.491  -0.077  -1.725  0.00  0.00    +0.046 A 
ATOM     18  C   LIG    1        3.183  -0.364  -1.343  0.00  0.00    +0.008 A 
BRANCH  16  19
ATOM     19  O   LIG    1        6.700   0.776  -1.259  0.00  0.00    -0.495 OA
ATOM     20  C   LIG    1        7.590   1.369  -0.313  0.00  0.00    +0.277 C 
ENDBRANCH  16  19
ENDBRANCH  12  13
BRANCH   1  21
ATOM     21  O   LIG    1        0.083   0.298  -1.463  0.00  0.00    -0.451 OA
BRANCH  21  22
ATOM     22  C   LIG    1        0.402   1.055  -2.576  0.00  0.00    +0.305 C 
ATOM     23  O   LIG    1        1.014   2.121  -2.408  0.00  0.00    -0.251 OA
ATOM     24  C   LIG    1       -0.019   0.524  -3.904  0.00  0.00    +0.136 C 
ENDBRANCH  21  22
ENDBRANCH   1  21
BRANCH   3  25
ATOM     25  C   LIG    1       -2.798   0.755   2.058  0.00  0.00    +0.129 C 
BRANCH  25  26
ATOM     26  C   LIG    1       -4.071   0.944   1.347  0.00  0.00    +0.103 C 
BRANCH  26  27
ATOM     27  N   LIG    1       -4.043   1.702   0.110  0.00  0.00    -0.307 NA
ATOM     28  C   LIG    1       -5.440   1.967  -0.315  0.00  0.00    +0.104 C 
ATOM     29  C   LIG    1       -3.402   0.945  -0.973  0.00  0.00    +0.104 C 
ENDBRANCH  26  27
ENDBRANCH  25  26
ENDBRANCH   3  25
TORSDOF 7
