REMARK  Name = molecules/HSZLKTCKAYXVBX-DVFIWFOFSA-N.pdb
REMARK                            x       y       z     vdW  Elec       q    Type
REMARK                         _______ _______ _______ _____ _____    ______ ____
ROOT
ATOM      1  C   LIG    1        0.248   1.066   1.489  0.00  0.00    +0.157 C 
ATOM      2  C   LIG    1        0.381   2.548   1.697  0.00  0.00    +0.188 C 
ATOM      3  C   LIG    1        0.239   3.492   0.595  0.00  0.00    +0.218 C 
ATOM      4  C   LIG    1        0.657   3.126  -0.772  0.00  0.00    +0.167 C 
ATOM      5  C   LIG    1        1.312   4.339  -1.386  0.00  0.00    +0.311 C 
ATOM      6  O   LIG    1        2.636   4.497  -1.476  0.00  0.00    -0.461 OA
ATOM      7  C   LIG    1        3.640   3.896  -2.210  0.00  0.00    +0.177 C 
ATOM      8  C   LIG    1        3.833   2.483  -1.797  0.00  0.00    +0.071 C 
ATOM      9  C   LIG    1        5.189   1.927  -2.053  0.00  0.00    -0.023 C 
ATOM     10  C   LIG    1        5.415   0.784  -2.668  0.00  0.00    -0.004 C 
ATOM     11  C   LIG    1        4.449  -0.146  -3.208  0.00  0.00    -0.002 C 
ATOM     12  C   LIG    1        3.555  -0.881  -2.616  0.00  0.00    +0.004 C 
ATOM     13  C   LIG    1        3.326  -0.908  -1.094  0.00  0.00    +0.147 C 
ATOM     14  C   LIG    1        1.876  -1.087  -0.920  0.00  0.00    +0.019 C 
ATOM     15  C   LIG    1        1.265  -0.961   0.423  0.00  0.00    +0.012 C 
ATOM     16  C   LIG    1        1.122  -0.380  -2.030  0.00  0.00    +0.010 C 
ATOM     17  C   LIG    1        3.436   3.913  -3.713  0.00  0.00    +0.052 C 
ATOM     18  O   LIG    1        0.460   5.199  -1.807  0.00  0.00    -0.251 OA
ATOM     19  C   LIG    1        1.470   0.306   1.193  0.00  0.00    +0.028 C 
ENDROOT
BRANCH   2  20
ATOM     20  O   LIG    1        1.573   2.867   2.391  0.00  0.00    -0.374 OA
ATOM     21  C   LIG    1        1.310   3.401   3.651  0.00  0.00    +0.194 C 
ENDBRANCH   2  20
BRANCH  19  22
ATOM     22  C   LIG    1        2.114  -0.071   2.566  0.00  0.00    +0.076 C 
BRANCH  22  23
ATOM     23  C   LIG    1        1.169  -0.881   3.357  0.00  0.00    +0.223 C 
ATOM     24  O   LIG    1        1.440  -1.219   4.495  0.00  0.00    -0.301 OA
ENDBRANCH  22  23
ENDBRANCH  19  22
BRANCH  13  25
ATOM     25  O   LIG    1        4.013  -2.085  -0.659  0.00  0.00    -0.344 OA
BRANCH  25  26
ATOM     26  C   LIG    1        5.211  -1.757  -0.012  0.00  0.00    +0.251 C 
ATOM     27  C   LIG    1        5.372  -2.292   1.363  0.00  0.00    +0.063 C 
ATOM     28  C   LIG    1        6.844  -2.556   1.627  0.00  0.00    +0.026 C 
ATOM     29  C   LIG    1        7.355  -3.634   0.685  0.00  0.00    +0.085 C 
ATOM     30  C   LIG    1        6.769  -3.400  -0.699  0.00  0.00    +0.135 C 
ATOM     31  C   LIG    1        5.785  -4.499  -0.991  0.00  0.00    +0.039 C 
ATOM     32  O   LIG    1        6.208  -2.184  -0.841  0.00  0.00    -0.347 OA
BRANCH  29  33
ATOM     33  N   LIG    1        8.783  -3.488   0.600  0.00  0.00    -0.303 NA
ATOM     34  C   LIG    1        9.432  -3.494   1.888  0.00  0.00    +0.105 C 
ATOM     35  C   LIG    1        9.410  -4.445  -0.255  0.00  0.00    +0.105 C 
ENDBRANCH  29  33
ENDBRANCH  25  26
ENDBRANCH  13  25
BRANCH   3  36
ATOM     36  O   LIG    1       -1.121   3.967   0.494  0.00  0.00    -0.458 OA
BRANCH  36  37
ATOM     37  C   LIG    1       -1.508   5.250   0.758  0.00  0.00    +0.307 C 
ATOM     38  O   LIG    1       -0.599   6.055   1.115  0.00  0.00    -0.251 OA
BRANCH  37  39
ATOM     39  C   LIG    1       -2.896   5.712   0.647  0.00  0.00    +0.117 C 
ATOM     40  C   LIG    1       -2.978   7.182   1.015  0.00  0.00    +0.015 C 
ENDBRANCH  37  39
ENDBRANCH  36  37
ENDBRANCH   3  36
BRANCH   1  41
ATOM     41  O   LIG    1       -0.821   0.699   0.735  0.00  0.00    -0.343 OA
BRANCH  41  42
ATOM     42  C   LIG    1       -1.942   0.237   1.393  0.00  0.00    +0.281 C 
ATOM     43  C   LIG    1       -3.126   1.173   1.308  0.00  0.00    +0.190 C 
ATOM     44  C   LIG    1       -4.380   0.285   1.383  0.00  0.00    +0.121 C 
ATOM     45  C   LIG    1       -4.343  -0.607   0.204  0.00  0.00    +0.169 C 
ATOM     46  C   LIG    1       -3.046  -1.396   0.220  0.00  0.00    +0.149 C 
ATOM     47  C   LIG    1       -2.338  -1.311  -1.110  0.00  0.00    +0.041 C 
ATOM     48  O   LIG    1       -2.274  -1.069   1.265  0.00  0.00    -0.343 OA
BRANCH  44  49
ATOM     49  N   LIG    1       -5.588   1.023   1.552  0.00  0.00    -0.301 NA
ATOM     50  C   LIG    1       -5.672   1.738   2.784  0.00  0.00    +0.105 C 
ATOM     51  C   LIG    1       -5.912   1.897   0.441  0.00  0.00    +0.105 C 
ENDBRANCH  44  49
BRANCH  43  52
ATOM     52  O   LIG    1       -3.171   2.028   2.372  0.00  0.00    -0.385 OA
ATOM     53  H   LIG    1       -3.039   2.971   2.174  0.00  0.00    +0.210 HD
ENDBRANCH  43  52
BRANCH  45  54
ATOM     54  O   LIG    1       -5.435  -1.409  -0.014  0.00  0.00    -0.344 OA
BRANCH  54  55
ATOM     55  C   LIG    1       -6.009  -1.277  -1.250  0.00  0.00    +0.254 C 
ATOM     56  O   LIG    1       -7.364  -1.022  -1.108  0.00  0.00    -0.346 OA
ATOM     57  C   LIG    1       -7.926  -1.974  -0.287  0.00  0.00    +0.149 C 
ATOM     58  C   LIG    1       -9.356  -1.640   0.089  0.00  0.00    +0.041 C 
ATOM     59  C   LIG    1       -7.970  -3.319  -0.970  0.00  0.00    +0.174 C 
ATOM     60  C   LIG    1       -7.215  -3.253  -2.256  0.00  0.00    +0.096 C 
ATOM     61  C   LIG    1       -8.025  -2.728  -3.424  0.00  0.00    +0.044 C 
ATOM     62  C   LIG    1       -5.904  -2.562  -2.069  0.00  0.00    +0.098 C 
BRANCH  60  63
ATOM     63  O   LIG    1       -6.897  -4.594  -2.597  0.00  0.00    -0.386 OA
ATOM     64  H   LIG    1       -7.710  -5.111  -2.782  0.00  0.00    +0.210 HD
ENDBRANCH  60  63
BRANCH  59  65
ATOM     65  O   LIG    1       -7.288  -4.217  -0.132  0.00  0.00    -0.386 OA
ATOM     66  H   LIG    1       -7.716  -4.313   0.733  0.00  0.00    +0.210 HD
ENDBRANCH  59  65
ENDBRANCH  54  55
ENDBRANCH  45  54
ENDBRANCH  41  42
ENDBRANCH   1  41
TORSDOF 17
