REMARK  Name = molecules/HTAFVGKAHGNWQO-HXUWFJFHSA-N.pdb
REMARK                            x       y       z     vdW  Elec       q    Type
REMARK                         _______ _______ _______ _____ _____    ______ ____
ROOT
ATOM      1  C   LIG    1       -2.711  -0.701   0.176  0.00  0.00    +0.050 C 
ENDROOT
BRANCH   1   2
ATOM      2  C   LIG    1       -3.923  -1.534   0.248  0.00  0.00    -0.040 A 
ATOM      3  C   LIG    1       -4.758  -1.554   1.329  0.00  0.00    +0.004 A 
ATOM      4  C   LIG    1       -5.894  -2.373   1.314  0.00  0.00    +0.000 A 
ATOM      5  C   LIG    1       -6.165  -3.149   0.217  0.00  0.00    +0.000 A 
ATOM      6  C   LIG    1       -5.327  -3.123  -0.859  0.00  0.00    +0.000 A 
ATOM      7  C   LIG    1       -4.216  -2.332  -0.860  0.00  0.00    +0.004 A 
ENDBRANCH   1   2
BRANCH   1   8
ATOM      8  C   LIG    1       -3.018   0.647  -0.312  0.00  0.00    -0.040 A 
ATOM      9  C   LIG    1       -3.366   1.700   0.510  0.00  0.00    +0.004 A 
ATOM     10  C   LIG    1       -3.643   2.950  -0.036  0.00  0.00    +0.000 A 
ATOM     11  C   LIG    1       -3.577   3.167  -1.386  0.00  0.00    +0.000 A 
ATOM     12  C   LIG    1       -3.233   2.135  -2.222  0.00  0.00    +0.000 A 
ATOM     13  C   LIG    1       -2.959   0.890  -1.666  0.00  0.00    +0.004 A 
ENDBRANCH   1   8
BRANCH   1  14
ATOM     14  C   LIG    1       -2.019  -0.710   1.511  0.00  0.00    +0.028 C 
BRANCH  14  15
ATOM     15  C   LIG    1       -0.694   0.024   1.496  0.00  0.00    +0.082 C 
BRANCH  15  16
ATOM     16  N   LIG    1        0.256  -0.533   0.587  0.00  0.00    -0.313 NA
ATOM     17  H   LIG    1       -0.079  -0.649  -0.383  0.00  0.00    +0.122 HD
BRANCH  16  18
ATOM     18  C   LIG    1        1.524   0.217   0.608  0.00  0.00    +0.051 C 
ATOM     19  C   LIG    1        1.260   1.603   0.063  0.00  0.00    +0.024 C 
BRANCH  18  20
ATOM     20  C   LIG    1        2.502  -0.564  -0.203  0.00  0.00    +0.022 C 
BRANCH  20  21
ATOM     21  C   LIG    1        3.861   0.059  -0.290  0.00  0.00    -0.010 C 
ATOM     22  C   LIG    1        4.529   0.242   1.056  0.00  0.00    +0.003 C 
ATOM     23  C   LIG    1        5.611   1.306   0.826  0.00  0.00    +0.000 C 
ATOM     24  C   LIG    1        6.468   0.878  -0.324  0.00  0.00    +0.000 C 
ATOM     25  C   LIG    1        6.220  -0.550  -0.746  0.00  0.00    +0.000 C 
ATOM     26  C   LIG    1        4.786  -0.825  -1.098  0.00  0.00    +0.003 C 
ENDBRANCH  20  21
ENDBRANCH  18  20
ENDBRANCH  16  18
ENDBRANCH  15  16
ENDBRANCH  14  15
ENDBRANCH   1  14
TORSDOF 8
