REMARK  Name = molecules/HTIQEAQVCYTUBX-KRWDZBQOSA-N.pdb
REMARK                            x       y       z     vdW  Elec       q    Type
REMARK                         _______ _______ _______ _____ _____    ______ ____
ROOT
ATOM      1  C   LIG    1        0.459   0.264   0.590  0.00  0.00    +0.068 C 
ATOM      2  C   LIG    1       -0.866  -0.400   0.695  0.00  0.00    +0.097 C 
ATOM      3  C   LIG    1       -1.031  -1.519  -0.213  0.00  0.00    +0.065 C 
ATOM      4  C   LIG    1       -0.072  -1.918  -1.004  0.00  0.00    +0.016 C 
ATOM      5  N   LIG    1        1.204  -1.297  -1.061  0.00  0.00    -0.319 N 
ATOM      6  H   LIG    1        1.930  -1.647  -1.712  0.00  0.00    +0.152 HD
ATOM      7  C   LIG    1       -0.347  -3.104  -1.895  0.00  0.00    +0.061 C 
ATOM      8  C   LIG    1        1.394  -0.174  -0.197  0.00  0.00    +0.045 C 
ENDROOT
BRANCH   2   9
ATOM      9  C   LIG    1       -1.961   0.591   0.622  0.00  0.00    -0.017 A 
ATOM     10  C   LIG    1       -2.886   0.662   1.610  0.00  0.00    +0.045 A 
ATOM     11 CL   LIG    1       -2.853  -0.248   3.113  0.00  0.00    -0.083 Cl
ATOM     12  C   LIG    1       -3.933   1.580   1.449  0.00  0.00    +0.020 A 
ATOM     13  C   LIG    1       -4.025   2.383   0.337  0.00  0.00    +0.001 A 
ATOM     14  C   LIG    1       -3.089   2.310  -0.654  0.00  0.00    +0.000 A 
ATOM     15  C   LIG    1       -2.056   1.391  -0.479  0.00  0.00    +0.006 A 
ENDBRANCH   2   9
BRANCH   1  16
ATOM     16  C   LIG    1        0.652   1.466   1.457  0.00  0.00    +0.338 C 
ATOM     17  O   LIG    1        1.643   2.167   1.570  0.00  0.00    -0.245 OA
BRANCH  16  18
ATOM     18  O   LIG    1       -0.440   1.860   2.257  0.00  0.00    -0.462 OA
BRANCH  18  19
ATOM     19  C   LIG    1       -0.299   2.988   3.088  0.00  0.00    +0.229 C 
ATOM     20  C   LIG    1        0.013   4.241   2.312  0.00  0.00    +0.048 C 
ENDBRANCH  18  19
ENDBRANCH  16  18
ENDBRANCH   1  16
BRANCH   3  21
ATOM     21  C   LIG    1       -2.340  -2.227  -0.278  0.00  0.00    +0.337 C 
ATOM     22  O   LIG    1       -3.277  -1.858   0.457  0.00  0.00    -0.245 OA
BRANCH  21  23
ATOM     23  O   LIG    1       -2.586  -3.276  -1.109  0.00  0.00    -0.465 OA
ATOM     24  C   LIG    1       -3.852  -3.925  -1.141  0.00  0.00    +0.280 C 
ENDBRANCH  21  23
ENDBRANCH   3  21
BRANCH   8  25
ATOM     25  C   LIG    1        2.714   0.538  -0.254  0.00  0.00    +0.211 C 
BRANCH  25  26
ATOM     26  O   LIG    1        3.811  -0.134   0.099  0.00  0.00    -0.373 OA
BRANCH  26  27
ATOM     27  C   LIG    1        4.304  -1.213  -0.516  0.00  0.00    +0.175 C 
BRANCH  27  28
ATOM     28  C   LIG    1        4.704  -0.997  -1.983  0.00  0.00    +0.106 C 
BRANCH  28  29
ATOM     29  N   LIG    1        5.734   0.035  -2.021  0.00  0.00    -0.328 NA
ATOM     30  H   LIG    1        6.115   0.174  -1.069  0.00  0.00    +0.118 HD
ATOM     31  H   LIG    1        6.519  -0.269  -2.666  0.00  0.00    +0.118 HD
ENDBRANCH  28  29
ENDBRANCH  27  28
ENDBRANCH  26  27
ENDBRANCH  25  26
ENDBRANCH   8  25
TORSDOF 11
