REMARK  Name = molecules/HTJXMOGUGMSZOG-UHFFFAOYSA-N.pdb
REMARK                            x       y       z     vdW  Elec       q    Type
REMARK                         _______ _______ _______ _____ _____    ______ ____
ROOT
ATOM      1  C   LIG    1       -1.492  -0.308   1.002  0.00  0.00    +0.221 C 
ENDROOT
BRANCH   1   2
ATOM      2  N   LIG    1       -2.833   0.336   1.017  0.00  0.00    -0.293 N 
ATOM      3  C   LIG    1       -2.981   1.404   1.802  0.00  0.00    +0.292 A 
ATOM      4  O   LIG    1       -2.132   1.977   2.567  0.00  0.00    -0.259 OA
ATOM      5  S   LIG    1       -4.609   1.851   1.554  0.00  0.00    -0.027 S 
ATOM      6  C   LIG    1       -5.032   0.630   0.437  0.00  0.00    +0.041 A 
ATOM      7  C   LIG    1       -6.212   0.334  -0.231  0.00  0.00    +0.018 A 
ATOM      8  C   LIG    1       -6.262  -0.737  -1.091  0.00  0.00    +0.021 A 
ATOM      9  C   LIG    1       -5.089  -1.454  -1.223  0.00  0.00    +0.043 A 
ATOM     10  C   LIG    1       -3.930  -1.165  -0.569  0.00  0.00    +0.047 A 
ATOM     11 CL   LIG    1       -5.171  -2.833  -2.333  0.00  0.00    -0.083 Cl
ATOM     12  C   LIG    1       -3.864  -0.069   0.317  0.00  0.00    +0.061 A 
ENDBRANCH   1   2
BRANCH   1  13
ATOM     13  C   LIG    1       -0.725   0.387  -0.083  0.00  0.00    +0.236 C 
ATOM     14  N   LIG    1        0.612   0.018  -0.377  0.00  0.00    -0.298 N 
ATOM     15  C   LIG    1        1.261  -1.030   0.352  0.00  0.00    +0.123 C 
ATOM     16  C   LIG    1        2.751  -0.871   0.196  0.00  0.00    +0.103 C 
ATOM     17  N   LIG    1        3.158   0.500   0.179  0.00  0.00    -0.297 NA
ATOM     18  C   LIG    1        2.595   1.278  -0.873  0.00  0.00    +0.103 C 
ATOM     19  C   LIG    1        1.332   0.701  -1.423  0.00  0.00    +0.123 C 
ATOM     20  O   LIG    1       -1.238   1.313  -0.764  0.00  0.00    -0.274 OA
BRANCH  17  21
ATOM     21  C   LIG    1        4.568   0.642   0.314  0.00  0.00    +0.112 C 
BRANCH  21  22
ATOM     22  C   LIG    1        5.357   0.053  -0.847  0.00  0.00    +0.171 C 
BRANCH  22  23
ATOM     23  O   LIG    1        6.721   0.236  -0.633  0.00  0.00    -0.394 OA
ATOM     24  H   LIG    1        7.126  -0.470  -0.097  0.00  0.00    +0.209 HD
ENDBRANCH  22  23
ENDBRANCH  21  22
ENDBRANCH  17  21
ENDBRANCH   1  13
TORSDOF 5
