REMARK  Name = molecules/HTNPEHXGEKVIHG-QCNRFFRDSA-N.pdb
REMARK                            x       y       z     vdW  Elec       q    Type
REMARK                         _______ _______ _______ _____ _____    ______ ____
ROOT
ATOM      1  C   LIG    1        1.663   0.488  -0.358  0.00  0.00    +0.255 C 
ATOM      2  O   LIG    1        0.703   0.928   0.548  0.00  0.00    -0.345 OA
ATOM      3  C   LIG    1       -0.513   0.715  -0.154  0.00  0.00    +0.189 C 
ATOM      4  C   LIG    1       -0.361  -0.660  -0.718  0.00  0.00    +0.179 C 
ATOM      5  C   LIG    1        1.139  -0.836  -0.808  0.00  0.00    +0.195 C 
ENDROOT
BRANCH   1   9
ATOM      6  N   LIG    1        4.453   0.124   1.989  0.00  0.00    -0.174 NA
ATOM      7  C   LIG    1        3.199   0.160   1.475  0.00  0.00    +0.352 A 
ATOM      8  O   LIG    1        2.195  -0.078   2.193  0.00  0.00    -0.244 OA
ATOM      9  N   LIG    1        2.977   0.450   0.182  0.00  0.00    -0.270 N 
ATOM     10  C   LIG    1        4.050   0.705  -0.589  0.00  0.00    +0.097 A 
ATOM     11  C   LIG    1        5.341   0.676  -0.091  0.00  0.00    +0.066 A 
ATOM     12  C   LIG    1        5.538   0.375   1.239  0.00  0.00    +0.157 A 
BRANCH  12  13
ATOM     13  N   LIG    1        6.863   0.344   1.754  0.00  0.00    -0.251 N 
ATOM     14  H   LIG    1        7.465  -0.505   1.769  0.00  0.00    +0.196 HD
BRANCH  13  15
ATOM     15  O   LIG    1        7.414   1.479   2.271  0.00  0.00    -0.288 OA
ATOM     16  H   LIG    1        7.312   2.181   1.575  0.00  0.00    +0.244 HD
ENDBRANCH  13  15
ENDBRANCH  12  13
ENDBRANCH   1   9
BRANCH   4  17
ATOM     17  O   LIG    1       -0.883  -0.627  -2.019  0.00  0.00    -0.386 OA
ATOM     18  H   LIG    1       -0.908   0.304  -2.367  0.00  0.00    +0.210 HD
ENDBRANCH   4  17
BRANCH   5  19
ATOM     19  O   LIG    1        1.535  -1.153  -2.111  0.00  0.00    -0.385 OA
ATOM     20  H   LIG    1        2.178  -1.910  -2.092  0.00  0.00    +0.210 HD
ENDBRANCH   5  19
BRANCH   3  21
ATOM     21  C   LIG    1       -1.644   0.815   0.808  0.00  0.00    +0.266 C 
BRANCH  21  22
ATOM     22  O   LIG    1       -2.927   0.753   0.399  0.00  0.00    -0.462 OA
BRANCH  22  23
ATOM     23  C   LIG    1       -3.776  -0.110  -0.167  0.00  0.00    +0.310 C 
ATOM     24  O   LIG    1       -3.369  -1.258  -0.443  0.00  0.00    -0.251 OA
BRANCH  23  25
ATOM     25  C   LIG    1       -5.208   0.217  -0.495  0.00  0.00    +0.092 C 
ATOM     26  C   LIG    1       -5.971   0.518   0.777  0.00  0.00    +0.019 C 
ATOM     27  C   LIG    1       -5.839  -1.001  -1.119  0.00  0.00    +0.019 C 
ENDBRANCH  23  25
ENDBRANCH  22  23
ENDBRANCH  21  22
ENDBRANCH   3  21
TORSDOF 9
