REMARK  Name = molecules/HTQBXNHDCUEHJF-XWLPCZSASA-N.pdb
REMARK                            x       y       z     vdW  Elec       q    Type
REMARK                         _______ _______ _______ _____ _____    ______ ____
ROOT
ATOM      1  N   LIG    1       68.332  27.497   0.000  0.00  0.00    -0.130 NA
ATOM      2  C   LIG    1       69.758  27.033   0.000  0.00  0.00    +0.186 C 
ENDROOT
BRANCH   2   3
ATOM      3  C   LIG    1       70.222  28.459   0.000  0.00  0.00    +0.256 C 
ATOM      4  O   LIG    1       69.218  29.574   0.000  0.00  0.00    -0.272 OA
BRANCH   3   5
ATOM      5  N   LIG    1       71.689  28.771   0.000  0.00  0.00    -0.195 NA
ATOM      6  C   LIG    1       72.153  30.198   0.000  0.00  0.00    +0.127 C 
ENDBRANCH   3   5
ENDBRANCH   2   3
BRANCH   2   7
ATOM      7  C   LIG    1       69.295  25.606   0.000  0.00  0.00    +0.088 C 
BRANCH   7   8
ATOM      8  C   LIG    1       68.831  24.180   0.000  0.00  0.00    +0.063 A 
ATOM      9  N   LIG    1       67.405  23.716   0.000  0.00  0.00    -0.239 NA
ATOM     10  C   LIG    1       67.405  22.216   0.000  0.00  0.00    +0.221 A 
ATOM     11  N   LIG    1       68.831  21.753   0.000  0.00  0.00    -0.242 NA
ATOM     12  C   LIG    1       69.713  22.966   0.000  0.00  0.00    +0.135 A 
ENDBRANCH   7   8
ENDBRANCH   2   7
TORSDOF 4
REMARK  Name = molecules/HTQBXNHDCUEHJF-XWLPCZSASA-N.pdb
REMARK                            x       y       z     vdW  Elec       q    Type
REMARK                         _______ _______ _______ _____ _____    ______ ____
ROOT
ATOM      1  N   LIG    1       71.612  32.739   0.000  0.00  0.00    -0.130 NA
ATOM      2  C   LIG    1       72.076  34.166   0.000  0.00  0.00    +0.184 C 
ENDROOT
BRANCH   2   3
ATOM      3  C   LIG    1       70.649  34.629   0.000  0.00  0.00    +0.256 C 
ATOM      4  O   LIG    1       69.421  33.769   0.000  0.00  0.00    -0.272 OA
BRANCH   3   5
ATOM      5  N   LIG    1       70.337  36.097   0.000  0.00  0.00    -0.195 NA
ATOM      6  C   LIG    1       68.911  36.560   0.000  0.00  0.00    +0.127 C 
ENDBRANCH   3   5
ENDBRANCH   2   3
BRANCH   2   7
ATOM      7  C   LIG    1       73.502  33.702   0.000  0.00  0.00    +0.034 C 
BRANCH   7   8
ATOM      8  C   LIG    1       74.929  33.239   0.000  0.00  0.00    +0.131 C 
BRANCH   8   9
ATOM      9  C   LIG    1       76.356  32.775   0.000  0.00  0.00    +0.356 C 
ATOM     10  O   LIG    1       77.470  33.779   0.000  0.00  0.00    -0.246 OA
ATOM     11  O   LIG    1       76.668  31.308   0.000  0.00  0.00    -0.246 OA
ENDBRANCH   8   9
ENDBRANCH   7   8
ENDBRANCH   2   7
TORSDOF 5
REMARK  Name = molecules/HTQBXNHDCUEHJF-XWLPCZSASA-N.pdb
REMARK                            x       y       z     vdW  Elec       q    Type
REMARK                         _______ _______ _______ _____ _____    ______ ____
ROOT
ATOM      1  N   LIG    1       63.012  34.745   0.000  0.00  0.00    -0.278 NA
ATOM      2  C   LIG    1       62.549  33.319   0.000  0.00  0.00    +0.106 C 
ENDROOT
BRANCH   2   3
ATOM      3  C   LIG    1       63.975  32.855   0.000  0.00  0.00    +0.028 C 
ATOM      4  C   LIG    1       65.402  32.391   0.000  0.00  0.00    -0.016 C 
BRANCH   4   5
ATOM      5  C   LIG    1       65.714  30.924   0.000  0.00  0.00    +0.008 C 
ATOM      6  C   LIG    1       67.140  30.461   0.000  0.00  0.00    +0.000 C 
BRANCH   6   7
ATOM      7  C   LIG    1       68.255  31.464   0.000  0.00  0.00    -0.004 C 
ATOM      8  C   LIG    1       67.943  32.932   0.000  0.00  0.00    -0.022 C 
ATOM      9  C   LIG    1       66.517  33.395   0.000  0.00  0.00    +0.026 C 
ENDBRANCH   6   7
ENDBRANCH   4   5
ENDBRANCH   2   3
BRANCH   1  10
ATOM     10  C   LIG    1       64.479  35.057   0.000  0.00  0.00    +0.139 C 
BRANCH  10  11
ATOM     11  C   LIG    1       64.943  36.483   0.000  0.00  0.00    +0.144 C 
BRANCH  11  12
ATOM     12  C   LIG    1       65.406  37.910   0.000  0.00  0.00    +0.154 C 
ATOM     13  C   LIG    1       65.870  39.337   0.000  0.00  0.00    +0.050 C 
ATOM     14  O   LIG    1       63.980  38.374   0.000  0.00  0.00    -0.223 OA
ENDBRANCH  11  12
BRANCH  11  15
ATOM     15  N   LIG    1       66.370  36.020   0.000  0.00  0.00    -0.219 NA
ATOM     16  C   LIG    1       67.484  37.024   0.000  0.00  0.00    +0.107 C 
ENDBRANCH  11  15
ENDBRANCH  10  11
ENDBRANCH   1  10
TORSDOF 7
REMARK  Name = molecules/HTQBXNHDCUEHJF-XWLPCZSASA-N.pdb
REMARK                            x       y       z     vdW  Elec       q    Type
REMARK                         _______ _______ _______ _____ _____    ______ ____
ROOT
ATOM      1  N   LIG    1       60.007  32.778   0.000  0.00  0.00    -0.134 NA
ATOM      2  C   LIG    1       58.581  33.242   0.000  0.00  0.00    +0.163 C 
ATOM      3  C   LIG    1       59.044  34.668   0.000  0.00  0.00    +0.170 C 
ATOM      4  C   LIG    1       59.508  36.095   0.000  0.00  0.00    +0.092 C 
ATOM      5  O   LIG    1       57.618  35.132   0.000  0.00  0.00    -0.292 OA
ENDROOT
TORSDOF 0
REMARK  Name = molecules/HTQBXNHDCUEHJF-XWLPCZSASA-N.pdb
REMARK                            x       y       z     vdW  Elec       q    Type
REMARK                         _______ _______ _______ _____ _____    ______ ____
ROOT
ATOM      1  C   LIG    1       52.219  30.000   0.000  0.00  0.00    +0.182 C 
ENDROOT
BRANCH   1   2
ATOM      2  C   LIG    1       52.682  31.427   0.000  0.00  0.00    +0.060 C 
ATOM      3  C   LIG    1       53.146  32.853   0.000  0.00  0.00    +0.223 C 
ATOM      4  O   LIG    1       52.142  33.968   0.000  0.00  0.00    -0.284 OA
ENDBRANCH   1   2
BRANCH   1   6
ATOM      5  C   LIG    1       54.760  30.540   0.000  0.00  0.00    +0.082 C 
ATOM      6  N   LIG    1       53.645  29.537   0.000  0.00  0.00    -0.271 NA
BRANCH   5   8
ATOM      7  N   LIG    1       56.650  31.503   0.000  0.00  0.00    -0.130 NA
ATOM      8  CA  LIG    1       56.187  30.077   0.000  0.00  0.00    +0.177 C 
BRANCH   8   9
ATOM      9  C   LIG    1       57.613  29.613   0.000  0.00  0.00    +0.216 C 
ATOM     10  O   LIG    1       59.040  29.150   0.000  0.00  0.00    -0.226 OA
ENDBRANCH   8   9
ENDBRANCH   5   8
ENDBRANCH   1   6
BRANCH   1  11
ATOM     11  C   LIG    1       51.755  28.574   0.000  0.00  0.00    +0.088 C 
ATOM     12  N   LIG    1       50.288  28.262   0.000  0.00  0.00    -0.280 NA
BRANCH  12  13
ATOM     13  C   LIG    1       49.824  26.835   0.000  0.00  0.00    +0.117 C 
ATOM     14  C   LIG    1       48.398  27.299   0.000  0.00  0.00    +0.020 C 
BRANCH  13  15
ATOM     15  C   LIG    1       51.251  26.372   0.000  0.00  0.00    +0.022 C 
BRANCH  15  16
ATOM     16  C   LIG    1       52.678  25.908   0.000  0.00  0.00    -0.012 C 
ATOM     17  C   LIG    1       52.214  24.482   0.000  0.00  0.00    +0.007 C 
ATOM     18  C   LIG    1       54.104  25.445   0.000  0.00  0.00    +0.007 C 
ENDBRANCH  15  16
ENDBRANCH  13  15
ENDBRANCH  12  13
ENDBRANCH   1  11
TORSDOF 8
REMARK  Name = molecules/HTQBXNHDCUEHJF-XWLPCZSASA-N.pdb
REMARK                            x       y       z     vdW  Elec       q    Type
REMARK                         _______ _______ _______ _____ _____    ______ ____
ROOT
ATOM      1  N   GLY A  1       47.283  26.295   0.000  0.00  0.00    -0.134 NA
ATOM      2  CA  GLY A  1       45.856  26.759   0.000  0.00  0.00    +0.160 C 
ATOM      3  C   GLY A  1       46.320  28.185   0.000  0.00  0.00    +0.269 C 
ATOM      4  O   GLY A  1       46.783  29.612   0.000  0.00  0.00    -0.295 OA
ENDROOT
TORSDOF 0
REMARK  Name = molecules/HTQBXNHDCUEHJF-XWLPCZSASA-N.pdb
REMARK                            x       y       z     vdW  Elec       q    Type
REMARK                         _______ _______ _______ _____ _____    ______ ____
ROOT
ATOM      1  C   LIG    1       44.889  23.130   0.000  0.00  0.00    +0.013 C 
ENDROOT
BRANCH   1   2
ATOM      2  C   LIG    1       43.462  23.593   0.000  0.00  0.00    +0.085 C 
ATOM      3  C   LIG    1       42.036  24.057   0.000  0.00  0.00    +0.013 C 
BRANCH   2   4
ATOM      4  N   LIG    1       43.926  25.020   0.000  0.00  0.00    -0.223 NA
ATOM      5  C   LIG    1       45.393  25.332   0.000  0.00  0.00    +0.107 C 
ENDBRANCH   2   4
ENDBRANCH   1   2
BRANCH   1   6
ATOM      6  C   LIG    1       46.315  22.666   0.000  0.00  0.00    +0.007 C 
BRANCH   6   7
ATOM      7  C   LIG    1       47.742  22.203   0.000  0.00  0.00    +0.019 C 
BRANCH   7   8
ATOM      8  C   LIG    1       49.169  21.739   0.000  0.00  0.00    +0.124 C 
ATOM      9  N   LIG    1       50.595  21.276   0.000  0.00  0.00    -0.143 NA
ENDBRANCH   7   8
ENDBRANCH   6   7
ENDBRANCH   1   6
TORSDOF 5
REMARK  Name = molecules/HTQBXNHDCUEHJF-XWLPCZSASA-N.pdb
REMARK                            x       y       z     vdW  Elec       q    Type
REMARK                         _______ _______ _______ _____ _____    ______ ____
ROOT
ATOM      1  C   LIG    1       40.421  26.370   0.000  0.00  0.00    +0.127 C 
ENDROOT
BRANCH   1   4
ATOM      2  N   LIG    1       40.921  23.053   0.000  0.00  0.00    -0.138 NA
ATOM      3  C   LIG    1       39.494  23.517   0.000  0.00  0.00    +0.114 C 
ATOM      4  C   LIG    1       39.958  24.943   0.000  0.00  0.00    +0.001 C 
ENDBRANCH   1   4
BRANCH   1   5
ATOM      5  C   LIG    1       40.885  27.797   0.000  0.00  0.00    +0.256 C 
ATOM      6  O   LIG    1       42.352  28.108   0.000  0.00  0.00    -0.272 OA
ATOM      7  N   LIG    1       39.881  28.911   0.000  0.00  0.00    -0.088 NA
ENDBRANCH   1   5
TORSDOF 2
REMARK  Name = molecules/HTQBXNHDCUEHJF-XWLPCZSASA-N.pdb
REMARK                            x       y       z     vdW  Elec       q    Type
REMARK                         _______ _______ _______ _____ _____    ______ ____
ROOT
ATOM      1  C   LIG    1       35.673  20.815   0.000  0.00  0.00    +0.077 C 
ATOM      2  N   LIG    1       34.559  19.812   0.000  0.00  0.00    -0.281 NA
ENDROOT
BRANCH   2   3
ATOM      3  C   LIG    1       33.132  20.275   0.000  0.00  0.00    +0.118 C 
ATOM      4  C   LIG    1       32.669  18.849   0.000  0.00  0.00    +0.020 C 
BRANCH   3   5
ATOM      5  C   LIG    1       33.596  21.702   0.000  0.00  0.00    +0.030 C 
BRANCH   5   6
ATOM      6  C   LIG    1       34.059  23.128   0.000  0.00  0.00    +0.131 C 
BRANCH   6   7
ATOM      7  C   LIG    1       34.523  24.555   0.000  0.00  0.00    +0.356 C 
ATOM      8  O   LIG    1       35.990  24.867   0.000  0.00  0.00    -0.246 OA
ATOM      9  O   LIG    1       33.519  25.670   0.000  0.00  0.00    -0.246 OA
ENDBRANCH   6   7
ENDBRANCH   5   6
ENDBRANCH   3   5
ENDBRANCH   2   3
BRANCH   1  10
ATOM     10  C   LIG    1       37.100  20.352   0.000  0.00  0.00    +0.128 C 
BRANCH  10  11
ATOM     11  N   LIG    1       37.564  21.778   0.000  0.00  0.00    -0.218 NA
ATOM     12  C   LIG    1       39.031  22.090   0.000  0.00  0.00    +0.107 C 
ENDBRANCH  10  11
BRANCH  10  13
ATOM     13  C   LIG    1       38.527  19.888   0.000  0.00  0.00    +0.029 C 
BRANCH  13  14
ATOM     14  C   LIG    1       39.953  19.425   0.000  0.00  0.00    +0.074 C 
BRANCH  14  15
ATOM     15  S   LIG    1       41.380  18.961   0.000  0.00  0.00    -0.164 S 
ATOM     16  C   LIG    1       41.692  17.494   0.000  0.00  0.00    +0.084 C 
ENDBRANCH  14  15
ENDBRANCH  13  14
ENDBRANCH  10  13
ENDBRANCH   1  10
TORSDOF 9
REMARK  Name = molecules/HTQBXNHDCUEHJF-XWLPCZSASA-N.pdb
REMARK                            x       y       z     vdW  Elec       q    Type
REMARK                         _______ _______ _______ _____ _____    ______ ____
ROOT
ATOM      1  C   LIG    1       33.591  16.183   0.000  0.00  0.00    +0.153 C 
ENDROOT
BRANCH   1   4
ATOM      2  N   LIG    1       31.201  18.537   0.000  0.00  0.00    -0.138 NA
ATOM      3  C   LIG    1       30.738  17.110   0.000  0.00  0.00    +0.114 C 
ATOM      4  C   LIG    1       32.164  16.646   0.000  0.00  0.00    +0.003 C 
ENDBRANCH   1   4
BRANCH   1   5
ATOM      5  C   LIG    1       35.018  15.720   0.000  0.00  0.00    +0.360 C 
ATOM      6  O   LIG    1       35.330  14.252   0.000  0.00  0.00    -0.246 OA
ATOM      7  O   LIG    1       36.132  16.723   0.000  0.00  0.00    -0.246 OA
ENDBRANCH   1   5
TORSDOF 2
REMARK  Name = molecules/HTQBXNHDCUEHJF-XWLPCZSASA-N.pdb
REMARK                            x       y       z     vdW  Elec       q    Type
REMARK                         _______ _______ _______ _____ _____    ______ ____
ROOT
ATOM      1  N   LIG    1       28.197  16.570   0.000  0.00  0.00    -0.133 NA
ATOM      2  C   LIG    1       26.770  17.033   0.000  0.00  0.00    +0.147 C 
ENDROOT
BRANCH   2   3
ATOM      3  C   LIG    1       26.306  15.607   0.000  0.00  0.00    +0.079 C 
ATOM      4  N   LIG    1       24.839  15.295   0.000  0.00  0.00    -0.273 NA
BRANCH   4   5
ATOM      5  C   LIG    1       24.376  13.868   0.000  0.00  0.00    +0.121 C 
ATOM      6  C   LIG    1       25.802  13.405   0.000  0.00  0.00    +0.033 C 
ENDBRANCH   4   5
ENDBRANCH   2   3
BRANCH   2   7
ATOM      7  C   LIG    1       27.233  18.460   0.000  0.00  0.00    +0.031 C 
BRANCH   7   8
ATOM      8  C   LIG    1       27.697  19.887   0.000  0.00  0.00    +0.131 C 
BRANCH   8   9
ATOM      9  C   LIG    1       28.161  21.313   0.000  0.00  0.00    +0.356 C 
ATOM     10  O   LIG    1       29.628  21.625   0.000  0.00  0.00    -0.246 OA
ATOM     11  O   LIG    1       27.157  22.428   0.000  0.00  0.00    -0.246 OA
ENDBRANCH   8   9
ENDBRANCH   7   8
ENDBRANCH   2   7
TORSDOF 5
REMARK  Name = molecules/HTQBXNHDCUEHJF-XWLPCZSASA-N.pdb
REMARK                            x       y       z     vdW  Elec       q    Type
REMARK                         _______ _______ _______ _____ _____    ______ ____
ROOT
ATOM      1  N   LIG    1       21.834  13.328   0.000  0.00  0.00    -0.138 NA
ATOM      2  C   LIG    1       20.408  13.792   0.000  0.00  0.00    +0.117 C 
ATOM      3  C   LIG    1       20.871  15.218   0.000  0.00  0.00    +0.021 C 
ENDROOT
TORSDOF 0
REMARK  Name = molecules/HTQBXNHDCUEHJF-XWLPCZSASA-N.pdb
REMARK                            x       y       z     vdW  Elec       q    Type
REMARK                         _______ _______ _______ _____ _____    ______ ____
ROOT
ATOM      1  C   LIG    1       18.014  10.627   0.000  0.00  0.00    +0.128 C 
ENDROOT
BRANCH   1   2
ATOM      2  N   LIG    1       18.477  12.053   0.000  0.00  0.00    -0.218 NA
ATOM      3  C   LIG    1       19.944  12.365   0.000  0.00  0.00    +0.107 C 
ENDBRANCH   1   2
BRANCH   1   4
ATOM      4  C   LIG    1       16.587  11.090   0.000  0.00  0.00    +0.083 C 
ATOM      5  N   LIG    1       15.472  10.086   0.000  0.00  0.00    -0.257 NA
BRANCH   5   6
ATOM      6  C   LIG    1       14.046  10.550   0.000  0.00  0.00    +0.107 C 
ATOM      7  C   LIG    1       14.509  11.977   0.000  0.00  0.00    -0.004 C 
BRANCH   7   8
ATOM      8  C   LIG    1       14.973  13.403   0.000  0.00  0.00    +0.007 C 
ATOM      9  C   LIG    1       13.546  13.867   0.000  0.00  0.00    +0.011 C 
ATOM     10  C   LIG    1       15.436  14.830   0.000  0.00  0.00    +0.011 C 
ENDBRANCH   7   8
ENDBRANCH   5   6
ENDBRANCH   1   4
BRANCH   1  11
ATOM     11  C   LIG    1       19.440  10.163   0.000  0.00  0.00    +0.022 C 
BRANCH  11  12
ATOM     12  C   LIG    1       20.867   9.700   0.000  0.00  0.00    +0.046 C 
BRANCH  12  13
ATOM     13  C   LIG    1       22.293   9.236   0.000  0.00  0.00    +0.244 C 
BRANCH  13  14
ATOM     14  N   LIG    1       23.720   8.773   0.000  0.00  0.00    -0.108 NA
BRANCH  14  15
ATOM     15  C   LIG    1       24.835   9.776   0.000  0.00  0.00    +0.457 C 
ATOM     16  N   LIG    1       26.261   9.313   0.000  0.00  0.00    +0.128 NA
BRANCH  15  17
ATOM     17  N   LIG    1       24.523  11.243   0.000  0.00  0.00    -0.284 N 
ATOM     18  H   LIG    1       23.912  12.442   0.000  0.00  0.00    +0.255 HD
ATOM     19  H   LIG    1       25.516  11.932   0.000  0.00  0.00    +0.255 HD
ENDBRANCH  15  17
ENDBRANCH  14  15
ENDBRANCH  13  14
ENDBRANCH  12  13
ENDBRANCH  11  12
ENDBRANCH   1  11
TORSDOF 10
REMARK  Name = molecules/HTQBXNHDCUEHJF-XWLPCZSASA-N.pdb
REMARK                            x       y       z     vdW  Elec       q    Type
REMARK                         _______ _______ _______ _____ _____    ______ ____
ROOT
ATOM      1  N   LIG    1       12.115   8.812   0.000  0.00  0.00    -0.163 NA
ATOM      2  H   LIG    1       12.477   8.069   0.000  0.00  0.00    +0.163 HD
ENDROOT
TORSDOF 0
REMARK  Name = molecules/HTQBXNHDCUEHJF-XWLPCZSASA-N.pdb
REMARK                            x       y       z     vdW  Elec       q    Type
REMARK                         _______ _______ _______ _____ _____    ______ ____
ROOT
ATOM      1  N   LIG    1        9.110   6.845   0.000  0.00  0.00    -0.140 NA
ATOM      2  N   LIG    1        9.264   7.795   0.000  0.00  0.00    -0.024 NA
ATOM      3  H   LIG    1       10.184   6.901   0.000  0.00  0.00    +0.165 HD
ENDROOT
TORSDOF 0
REMARK  Name = molecules/HTQBXNHDCUEHJF-XWLPCZSASA-N.pdb
REMARK                            x       y       z     vdW  Elec       q    Type
REMARK                         _______ _______ _______ _____ _____    ______ ____
ROOT
ATOM      1  N   LIG    1        5.753   5.570   0.000  0.00  0.00    +0.000 NA
ENDROOT
TORSDOF 0
REMARK  Name = molecules/HTQBXNHDCUEHJF-XWLPCZSASA-N.pdb
REMARK                            x       y       z     vdW  Elec       q    Type
REMARK                         _______ _______ _______ _____ _____    ______ ____
ROOT
ATOM      1  N   LIG    1        3.946   4.214   0.000  0.00  0.00    -0.093 NA
ATOM      2  C   LIG    1        3.634   5.681   0.000  0.00  0.00    +0.290 C 
ATOM      3  O   LIG    1        2.208   6.144   0.000  0.00  0.00    -0.198 OA
ENDROOT
TORSDOF 0
REMARK  Name = molecules/HTQBXNHDCUEHJF-XWLPCZSASA-N.pdb
REMARK                            x       y       z     vdW  Elec       q    Type
REMARK                         _______ _______ _______ _____ _____    ______ ____
ROOT
ATOM      1  N   LIG    1        3.442   2.012   0.000  0.00  0.00    -0.261 NA
ATOM      2  C   LIG    1        4.909   2.324   0.000  0.00  0.00    +0.214 C 
ATOM      3  N   LIG    1        5.520   1.125   0.000  0.00  0.00    -0.135 N 
ATOM      4  C   LIG    1        4.405   0.122   0.000  0.00  0.00    +0.268 C 
ATOM      5  O   LIG    1        5.016  -1.077   0.000  0.00  0.00    -0.271 OA
ATOM      6  C   LIG    1        2.978   0.585   0.000  0.00  0.00    +0.199 C 
ENDROOT
BRANCH   3   7
ATOM      7  O   LIG    1        6.153   1.485   0.000  0.00  0.00    -0.255 OA
ATOM      8  C   LIG    1        6.946   0.662   0.000  0.00  0.00    +0.206 C 
ENDBRANCH   3   7
BRANCH   6   9
ATOM      9  C   LIG    1        1.552   1.049   0.000  0.00  0.00    +0.036 C 
BRANCH   9  10
ATOM     10  C   LIG    1        0.125   1.512   0.000  0.00  0.00    -0.007 C 
ATOM     11  C   LIG    1       -1.301   1.976   0.000  0.00  0.00    +0.005 C 
ENDBRANCH   9  10
ENDBRANCH   6   9
TORSDOF 3
REMARK  Name = molecules/HTQBXNHDCUEHJF-XWLPCZSASA-N.pdb
REMARK                            x       y       z     vdW  Elec       q    Type
REMARK                         _______ _______ _______ _____ _____    ______ ____
ROOT
ATOM      1  N   LIG    1        7.487  -1.879   0.000  0.00  0.00    -0.216 NA
ATOM      2  C   LIG    1        6.483  -0.765   0.000  0.00  0.00    +0.285 A 
ATOM      3  O   LIG    1        5.285  -1.375   0.000  0.00  0.00    -0.414 OA
ATOM      4  C   LIG    1        5.596  -2.843   0.000  0.00  0.00    +0.236 A 
ATOM      5  C   LIG    1        7.023  -3.306   0.000  0.00  0.00    +0.146 A 
ENDROOT
BRANCH   4   6
ATOM      6  N   LIG    1        4.482  -3.846   0.000  0.00  0.00    -0.218 NA
ATOM      7  C   LIG    1        3.055  -3.383   0.000  0.00  0.00    +0.143 C 
BRANCH   7   8
ATOM      8  C   LIG    1        1.629  -2.919   0.000  0.00  0.00    +0.099 C 
ATOM      9  N   LIG    1        0.514  -3.923   0.000  0.00  0.00    -0.296 NA
ATOM     10  H   LIG    1        0.206  -4.708   0.000  0.00  0.00    +0.187 HD
ENDBRANCH   7   8
ENDBRANCH   4   6
BRANCH   5  11
ATOM     11  C   LIG    1        8.450  -3.770   0.000  0.00  0.00    +0.150 C 
BRANCH  11  12
ATOM     12  C   LIG    1        9.876  -4.233   0.000  0.00  0.00    +0.257 C 
ATOM     13  O   LIG    1       10.188  -5.700   0.000  0.00  0.00    -0.272 OA
ATOM     14  N   LIG    1       10.991  -3.229   0.000  0.00  0.00    -0.088 NA
ENDBRANCH  11  12
ENDBRANCH   5  11
TORSDOF 4
REMARK  Name = molecules/HTQBXNHDCUEHJF-XWLPCZSASA-N.pdb
REMARK                            x       y       z     vdW  Elec       q    Type
REMARK                         _______ _______ _______ _____ _____    ______ ____
ROOT
ATOM      1  N   LIG    1       -3.454  -3.999   0.000  0.00  0.00    -0.114 NA
ATOM      2  C   LIG    1       -2.296  -3.541   0.000  0.00  0.00    +0.158 C 
ATOM      3  C   LIG    1       -0.913  -3.459   0.000  0.00  0.00    +0.117 C 
ATOM      4  N   LIG    1       -1.293  -4.655   0.000  0.00  0.00    -0.285 NA
ATOM      5  H   LIG    1       -1.816  -5.726   0.000  0.00  0.00    +0.124 HD
ENDROOT
TORSDOF 0
REMARK  Name = molecules/HTQBXNHDCUEHJF-XWLPCZSASA-N.pdb
REMARK                            x       y       z     vdW  Elec       q    Type
REMARK                         _______ _______ _______ _____ _____    ______ ____
ROOT
ATOM      1  N   LIG    1       -5.461  -1.146   0.000  0.00  0.00    -0.244 NA
ATOM      2  C   LIG    1       -4.998   0.280   0.000  0.00  0.00    +0.116 C 
ENDROOT
BRANCH   2   3
ATOM      3  C   LIG    1       -6.425   0.744   0.000  0.00  0.00    +0.248 C 
ATOM      4  O   LIG    1       -7.851   1.207   0.000  0.00  0.00    -0.229 OA
ENDBRANCH   2   3
BRANCH   1   5
ATOM      5  C   LIG    1       -4.458  -2.261   0.000  0.00  0.00    +0.244 C 
ATOM      6  N   LIG    1       -3.259  -1.651   0.000  0.00  0.00    -0.136 NA
ENDBRANCH   1   5
TORSDOF 2
REMARK  Name = molecules/HTQBXNHDCUEHJF-XWLPCZSASA-N.pdb
REMARK                            x       y       z     vdW  Elec       q    Type
REMARK                         _______ _______ _______ _____ _____    ______ ____
ROOT
ATOM      1  N   LIG    1       -1.216  -8.623   0.000  0.00  0.00    +0.000 NA
ENDROOT
TORSDOF 0
REMARK  Name = molecules/HTQBXNHDCUEHJF-XWLPCZSASA-N.pdb
REMARK                            x       y       z     vdW  Elec       q    Type
REMARK                         _______ _______ _______ _____ _____    ______ ____
ROOT
ATOM      1  C   LIG    1       -3.106  -9.586   0.000  0.00  0.00    +0.224 C 
ATOM      2  O   LIG    1       -3.725  -8.904   0.000  0.00  0.00    -0.369 OA
ATOM      3  N   LIG    1       -4.178  -8.200   0.000  0.00  0.00    +0.039 NA
ATOM      4  O   LIG    1       -3.478  -8.326   0.000  0.00  0.00    -0.050 OA
ATOM      5  O   LIG    1       -2.871  -8.105   0.000  0.00  0.00    -0.307 OA
ATOM      6  C   LIG    1       -2.808  -8.810   0.000  0.00  0.00    +0.263 C 
ENDROOT
BRANCH   1   8
ATOM      7  N   LIG    1       -4.221 -10.590   0.000  0.00  0.00    -0.150 NA
ATOM      8  C   LIG    1       -2.964 -10.302   0.000  0.00  0.00    +0.112 C 
ATOM      9  C   LIG    1       -1.680 -10.050   0.000  0.00  0.00    +0.067 C 
ENDBRANCH   1   8
BRANCH   3  10
ATOM     10  C   LIG    1       -5.225  -8.851   0.000  0.00  0.00    +0.181 C 
BRANCH  10  11
ATOM     11  C   LIG    1       -6.185  -8.200   0.000  0.00  0.00    +0.165 C 
BRANCH  11  12
ATOM     12  O   LIG    1       -6.269  -7.189   0.000  0.00  0.00    -0.359 OA
BRANCH  12  13
ATOM     13  C   LIG    1       -5.916  -6.270   0.000  0.00  0.00    +0.156 C 
BRANCH  13  14
ATOM     14  C   LIG    1       -4.668  -6.101   0.000  0.00  0.00    +0.021 C 
ATOM     15  C   LIG    1       -4.490  -6.733   0.000  0.00  0.00    +0.007 C 
ENDBRANCH  13  14
ENDBRANCH  12  13
ENDBRANCH  11  12
ENDBRANCH  10  11
ENDBRANCH   3  10
TORSDOF 6
REMARK  Name = molecules/HTQBXNHDCUEHJF-XWLPCZSASA-N.pdb
REMARK                            x       y       z     vdW  Elec       q    Type
REMARK                         _______ _______ _______ _____ _____    ______ ____
ROOT
ATOM      1  N   LIG    1       -6.228  -7.737   0.000  0.00  0.00    +0.038 NA
ATOM      2  O   LIG    1       -6.081  -6.704   0.000  0.00  0.00    -0.278 OA
ATOM      3  H   LIG    1       -6.159  -5.944   0.000  0.00  0.00    +0.240 HD
ENDROOT
TORSDOF 0
REMARK  Name = molecules/HTQBXNHDCUEHJF-XWLPCZSASA-N.pdb
REMARK                            x       y       z     vdW  Elec       q    Type
REMARK                         _______ _______ _______ _____ _____    ______ ____
ROOT
ATOM      1  N   LIG    1       -7.652  -8.512   0.000  0.00  0.00    -0.163 NA
ATOM      2  H   LIG    1       -7.955  -9.375   0.000  0.00  0.00    +0.163 HD
ENDROOT
TORSDOF 0
REMARK  Name = molecules/HTQBXNHDCUEHJF-XWLPCZSASA-N.pdb
REMARK                            x       y       z     vdW  Elec       q    Type
REMARK                         _______ _______ _______ _____ _____    ______ ____
ROOT
ATOM      1  C   LIG    1       -7.542  -6.394   0.000  0.00  0.00    -0.017 C 
ATOM      2  C   LIG    1       -8.330  -6.523   0.000  0.00  0.00    +0.006 C 
ENDROOT
BRANCH   2   3
ATOM      3  C   LIG    1       -8.656  -7.397   0.000  0.00  0.00    +0.009 C 
ATOM      4  C   LIG    1       -7.720  -7.894   0.000  0.00  0.00    -0.010 C 
ENDBRANCH   2   3
BRANCH   1   5
ATOM      5  C   LIG    1       -7.215  -5.520   0.000  0.00  0.00    +0.109 C 
BRANCH   5   6
ATOM      6  N   LIG    1       -7.853  -4.927   0.000  0.00  0.00    -0.241 NA
ATOM      7  H   LIG    1       -8.054  -4.276   0.000  0.00  0.00    +0.142 HD
ENDBRANCH   5   6
ENDBRANCH   1   5
TORSDOF 3
REMARK  Name = molecules/HTQBXNHDCUEHJF-XWLPCZSASA-N.pdb
REMARK                            x       y       z     vdW  Elec       q    Type
REMARK                         _______ _______ _______ _____ _____    ______ ____
ROOT
ATOM      1  C   LIG    1       72.616  31.625   0.000  0.00  0.00    +0.000 C 
ENDROOT
TORSDOF 0
REMARK  Name = molecules/HTQBXNHDCUEHJF-XWLPCZSASA-N.pdb
REMARK                            x       y       z     vdW  Elec       q    Type
REMARK                         _______ _______ _______ _____ _____    ______ ____
ROOT
ATOM      1  O   HOH    1       74.110  31.755   0.000  0.00  0.00    -0.253 OA
ATOM      2  H   HOH    0       73.398  32.206   0.000  0.00  0.00    +0.253 HD
ENDROOT
TORSDOF 0
REMARK  Name = molecules/HTQBXNHDCUEHJF-XWLPCZSASA-N.pdb
REMARK                            x       y       z     vdW  Elec       q    Type
REMARK                         _______ _______ _______ _____ _____    ______ ____
ROOT
ATOM      1  O   HOH    1       67.353  38.518   0.000  0.00  0.00    -0.253 OA
ATOM      2  H   HOH    0       66.903  37.806   0.000  0.00  0.00    +0.253 HD
ENDROOT
TORSDOF 0
REMARK  Name = molecules/HTQBXNHDCUEHJF-XWLPCZSASA-N.pdb
REMARK                            x       y       z     vdW  Elec       q    Type
REMARK                         _______ _______ _______ _____ _____    ______ ____
ROOT
ATOM      1  O   HOH    1       65.483  33.942   0.000  0.00  0.00    -0.410 OA
ATOM      2  H   HOH    0       64.770  34.127   0.000  0.00  0.00    +0.205 HD
ATOM      3  H   HOH    0       66.028  34.813   0.000  0.00  0.00    +0.205 HD
ENDROOT
TORSDOF 0
REMARK  Name = molecules/HTQBXNHDCUEHJF-XWLPCZSASA-N.pdb
REMARK                            x       y       z     vdW  Elec       q    Type
REMARK                         _______ _______ _______ _____ _____    ______ ____
ROOT
ATOM      1  C   LIG    1       61.122  33.782   0.000  0.00  0.00    +0.000 C 
ENDROOT
TORSDOF 0
REMARK  Name = molecules/HTQBXNHDCUEHJF-XWLPCZSASA-N.pdb
REMARK                            x       y       z     vdW  Elec       q    Type
REMARK                         _______ _______ _______ _____ _____    ______ ____
ROOT
ATOM      1  O   HOH    1       60.991  35.276   0.000  0.00  0.00    -0.410 OA
ATOM      2  H   HOH    0       62.008  35.860   0.000  0.00  0.00    +0.205 HD
ATOM      3  H   HOH    0       60.541  34.564   0.000  0.00  0.00    +0.205 HD
ENDROOT
TORSDOF 0
REMARK  Name = molecules/HTQBXNHDCUEHJF-XWLPCZSASA-N.pdb
REMARK                            x       y       z     vdW  Elec       q    Type
REMARK                         _______ _______ _______ _____ _____    ______ ____
ROOT
ATOM      1  C   LIG    1       58.117  31.815   0.000  0.00  0.00    +0.000 C 
ENDROOT
TORSDOF 0
REMARK  Name = molecules/HTQBXNHDCUEHJF-XWLPCZSASA-N.pdb
REMARK                            x       y       z     vdW  Elec       q    Type
REMARK                         _______ _______ _______ _____ _____    ______ ____
ROOT
ATOM      1  O   HOH    1       59.121  30.701   0.000  0.00  0.00    -0.410 OA
ATOM      2  H   HOH    0       60.319  31.311   0.000  0.00  0.00    +0.205 HD
ATOM      3  H   HOH    0       58.408  30.885   0.000  0.00  0.00    +0.205 HD
ENDROOT
TORSDOF 0
REMARK  Name = molecules/HTQBXNHDCUEHJF-XWLPCZSASA-N.pdb
REMARK                            x       y       z     vdW  Elec       q    Type
REMARK                         _______ _______ _______ _____ _____    ______ ____
ROOT
ATOM      1  O   LIG    1       54.448  32.008   0.000  0.00  0.00    -0.253 OA
ATOM      2  H   LIG    1       54.178  31.322   0.000  0.00  0.00    +0.253 HD
ENDROOT
BRANCH   1   3
ATOM      3  O   LIG    1       54.613  33.165   0.000  0.00  0.00    -0.253 OA
ATOM      4  H   LIG    1       55.646  32.618   0.000  0.00  0.00    +0.253 HD
ENDBRANCH   1   3
TORSDOF 1
REMARK  Name = molecules/HTQBXNHDCUEHJF-XWLPCZSASA-N.pdb
REMARK                            x       y       z     vdW  Elec       q    Type
REMARK                         _______ _______ _______ _____ _____    ______ ____
ROOT
ATOM      1  O   HOH    1       52.887  27.590   0.000  0.00  0.00    -0.410 OA
ATOM      2  H   HOH    0       53.957  28.069   0.000  0.00  0.00    +0.205 HD
ATOM      3  H   HOH    0       52.046  27.644   0.000  0.00  0.00    +0.205 HD
ENDROOT
TORSDOF 0
REMARK  Name = molecules/HTQBXNHDCUEHJF-XWLPCZSASA-N.pdb
REMARK                            x       y       z     vdW  Elec       q    Type
REMARK                         _______ _______ _______ _____ _____    ______ ____
ROOT
ATOM      1  O   HOH    1       48.086  28.766   0.000  0.00  0.00    -0.410 OA
ATOM      2  H   HOH    0       48.251  29.924   0.000  0.00  0.00    +0.205 HD
ATOM      3  H   HOH    0       47.816  28.081   0.000  0.00  0.00    +0.205 HD
ENDROOT
TORSDOF 0
REMARK  Name = molecules/HTQBXNHDCUEHJF-XWLPCZSASA-N.pdb
REMARK                            x       y       z     vdW  Elec       q    Type
REMARK                         _______ _______ _______ _____ _____    ______ ____
ROOT
ATOM      1  O   HOH    1       46.525  24.348   0.000  0.00  0.00    -0.410 OA
ATOM      2  H   HOH    0       47.595  24.828   0.000  0.00  0.00    +0.205 HD
ATOM      3  H   HOH    0       45.684  24.402   0.000  0.00  0.00    +0.205 HD
ENDROOT
TORSDOF 0
REMARK  Name = molecules/HTQBXNHDCUEHJF-XWLPCZSASA-N.pdb
REMARK                            x       y       z     vdW  Elec       q    Type
REMARK                         _______ _______ _______ _____ _____    ______ ____
ROOT
ATOM      1  O   HOH    1       41.905  25.551   0.000  0.00  0.00    -0.410 OA
ATOM      2  H   HOH    0       42.922  26.135   0.000  0.00  0.00    +0.205 HD
ATOM      3  H   HOH    0       41.454  24.839   0.000  0.00  0.00    +0.205 HD
ENDROOT
TORSDOF 0
REMARK  Name = molecules/HTQBXNHDCUEHJF-XWLPCZSASA-N.pdb
REMARK                            x       y       z     vdW  Elec       q    Type
REMARK                         _______ _______ _______ _____ _____    ______ ____
ROOT
ATOM      1  O   HOH    1       40.163  21.106   0.000  0.00  0.00    -0.410 OA
ATOM      2  H   HOH    0       41.233  21.586   0.000  0.00  0.00    +0.205 HD
ATOM      3  H   HOH    0       39.322  21.160   0.000  0.00  0.00    +0.205 HD
ENDROOT
TORSDOF 0
REMARK  Name = molecules/HTQBXNHDCUEHJF-XWLPCZSASA-N.pdb
REMARK                            x       y       z     vdW  Elec       q    Type
REMARK                         _______ _______ _______ _____ _____    ______ ____
ROOT
ATOM      1  O   HOH    1       35.543  22.310   0.000  0.00  0.00    -0.410 OA
ATOM      2  H   HOH    0       36.560  22.893   0.000  0.00  0.00    +0.205 HD
ATOM      3  H   HOH    0       35.092  21.597   0.000  0.00  0.00    +0.205 HD
ENDROOT
TORSDOF 0
REMARK  Name = molecules/HTQBXNHDCUEHJF-XWLPCZSASA-N.pdb
REMARK                            x       y       z     vdW  Elec       q    Type
REMARK                         _______ _______ _______ _____ _____    ______ ____
ROOT
ATOM      1  O   HOH    1       33.801  17.864   0.000  0.00  0.00    -0.410 OA
ATOM      2  H   HOH    0       34.871  18.344   0.000  0.00  0.00    +0.205 HD
ATOM      3  H   HOH    0       32.959  17.919   0.000  0.00  0.00    +0.205 HD
ENDROOT
TORSDOF 0
REMARK  Name = molecules/HTQBXNHDCUEHJF-XWLPCZSASA-N.pdb
REMARK                            x       y       z     vdW  Elec       q    Type
REMARK                         _______ _______ _______ _____ _____    ______ ____
ROOT
ATOM      1  C   LIG    1       29.311  17.574   0.000  0.00  0.00    +0.000 C 
ENDROOT
TORSDOF 0
REMARK  Name = molecules/HTQBXNHDCUEHJF-XWLPCZSASA-N.pdb
REMARK                            x       y       z     vdW  Elec       q    Type
REMARK                         _______ _______ _______ _____ _____    ______ ____
ROOT
ATOM      1  O   HOH    1       29.181  19.068   0.000  0.00  0.00    -0.410 OA
ATOM      2  H   HOH    0       30.198  19.651   0.000  0.00  0.00    +0.205 HD
ATOM      3  H   HOH    0       28.730  18.355   0.000  0.00  0.00    +0.205 HD
ENDROOT
TORSDOF 0
REMARK  Name = molecules/HTQBXNHDCUEHJF-XWLPCZSASA-N.pdb
REMARK                            x       y       z     vdW  Elec       q    Type
REMARK                         _______ _______ _______ _____ _____    ______ ____
ROOT
ATOM      1  O   HOH    1       27.310  14.492   0.000  0.00  0.00    -0.410 OA
ATOM      2  H   HOH    0       26.597  14.677   0.000  0.00  0.00    +0.205 HD
ATOM      3  H   HOH    0       28.508  15.103   0.000  0.00  0.00    +0.205 HD
ENDROOT
TORSDOF 0
REMARK  Name = molecules/HTQBXNHDCUEHJF-XWLPCZSASA-N.pdb
REMARK                            x       y       z     vdW  Elec       q    Type
REMARK                         _______ _______ _______ _____ _____    ______ ____
ROOT
ATOM      1  C   LIG    1       22.949  14.332   0.000  0.00  0.00    +0.004 C 
ATOM      2  C   LIG    1       22.298  14.755   0.000  0.00  0.00    -0.004 C 
ENDROOT
TORSDOF 0
REMARK  Name = molecules/HTQBXNHDCUEHJF-XWLPCZSASA-N.pdb
REMARK                            x       y       z     vdW  Elec       q    Type
REMARK                         _______ _______ _______ _____ _____    ______ ____
ROOT
ATOM      1  O   HOH    1       23.002  15.831   0.000  0.00  0.00    -0.410 OA
ATOM      2  H   HOH    0       22.831  16.540   0.000  0.00  0.00    +0.205 HD
ATOM      3  H   HOH    0       23.835  16.410   0.000  0.00  0.00    +0.205 HD
ENDROOT
TORSDOF 0
REMARK  Name = molecules/HTQBXNHDCUEHJF-XWLPCZSASA-N.pdb
REMARK                            x       y       z     vdW  Elec       q    Type
REMARK                         _______ _______ _______ _____ _____    ______ ____
ROOT
ATOM      1  C   LIG    1       21.335  16.645   0.000  0.00  0.00    -0.000 C 
ENDROOT
TORSDOF 0
REMARK  Name = molecules/HTQBXNHDCUEHJF-XWLPCZSASA-N.pdb
REMARK                            x       y       z     vdW  Elec       q    Type
REMARK                         _______ _______ _______ _____ _____    ______ ____
ROOT
ATOM      1  O   HOH    1       21.076  11.381   0.000  0.00  0.00    -0.410 OA
ATOM      2  H   HOH    0       20.235  11.435   0.000  0.00  0.00    +0.205 HD
ATOM      3  H   HOH    0       22.146  11.861   0.000  0.00  0.00    +0.205 HD
ENDROOT
TORSDOF 0
REMARK  Name = molecules/HTQBXNHDCUEHJF-XWLPCZSASA-N.pdb
REMARK                            x       y       z     vdW  Elec       q    Type
REMARK                         _______ _______ _______ _____ _____    ______ ____
ROOT
ATOM      1  O   HOH    1       16.456  12.585   0.000  0.00  0.00    -0.410 OA
ATOM      2  H   HOH    0       16.006  11.872   0.000  0.00  0.00    +0.205 HD
ATOM      3  H   HOH    0       17.473  13.168   0.000  0.00  0.00    +0.205 HD
ENDROOT
TORSDOF 0
REMARK  Name = molecules/HTQBXNHDCUEHJF-XWLPCZSASA-N.pdb
REMARK                            x       y       z     vdW  Elec       q    Type
REMARK                         _______ _______ _______ _____ _____    ______ ____
ROOT
ATOM      1  C   LIG    1       13.582   9.123   0.000  0.00  0.00    +0.000 C 
ENDROOT
TORSDOF 0
REMARK  Name = molecules/HTQBXNHDCUEHJF-XWLPCZSASA-N.pdb
REMARK                            x       y       z     vdW  Elec       q    Type
REMARK                         _______ _______ _______ _____ _____    ______ ____
ROOT
ATOM      1  O   HOH    1       14.586   8.009   0.000  0.00  0.00    -0.410 OA
ATOM      2  H   HOH    0       15.131   8.880   0.000  0.00  0.00    +0.205 HD
ATOM      3  H   HOH    0       13.873   8.194   0.000  0.00  0.00    +0.205 HD
ENDROOT
TORSDOF 0
REMARK  Name = molecules/HTQBXNHDCUEHJF-XWLPCZSASA-N.pdb
REMARK                            x       y       z     vdW  Elec       q    Type
REMARK                         _______ _______ _______ _____ _____    ______ ____
ROOT
ATOM      1  C   LIG    1       10.225   7.848   0.000  0.00  0.00    +0.000 C 
ENDROOT
TORSDOF 0
REMARK  Name = molecules/HTQBXNHDCUEHJF-XWLPCZSASA-N.pdb
REMARK                            x       y       z     vdW  Elec       q    Type
REMARK                         _______ _______ _______ _____ _____    ______ ____
ROOT
ATOM      1  C   LIG    1       13.078   6.921   0.000  0.00  0.00    +0.035 C 
ATOM      2  C   LIG    1       14.505   6.458   0.000  0.00  0.00    -0.043 C 
ATOM      3  C   LIG    1       14.816   4.991   0.000  0.00  0.00    -0.014 C 
ENDROOT
BRANCH   3   4
ATOM      4  C   LIG    1       16.243   4.527   0.000  0.00  0.00    +0.045 C 
BRANCH   4   5
ATOM      5  C   LIG    1       17.358   5.531   0.000  0.00  0.00    -0.018 C 
ATOM      6  C   LIG    1       17.046   6.998   0.000  0.00  0.00    -0.004 C 
ENDBRANCH   4   5
ENDBRANCH   3   4
TORSDOF 2
REMARK  Name = molecules/HTQBXNHDCUEHJF-XWLPCZSASA-N.pdb
REMARK                            x       y       z     vdW  Elec       q    Type
REMARK                         _______ _______ _______ _____ _____    ______ ____
ROOT
ATOM      1  C   LIG    1       15.619   7.462   0.000  0.00  0.00    +0.000 C 
ENDROOT
TORSDOF 0
REMARK  Name = molecules/HTQBXNHDCUEHJF-XWLPCZSASA-N.pdb
REMARK                            x       y       z     vdW  Elec       q    Type
REMARK                         _______ _______ _______ _____ _____    ______ ____
ROOT
ATOM      1  C   LIG    1       11.651   7.385   0.000  0.00  0.00    +0.005 C 
ATOM      2  C   LIG    1       11.000   7.808   0.000  0.00  0.00    -0.009 C 
ATOM      3  C   LIG    1       10.325   7.067   0.000  0.00  0.00    +0.005 C 
ENDROOT
TORSDOF 0
REMARK  Name = molecules/HTQBXNHDCUEHJF-XWLPCZSASA-N.pdb
REMARK                            x       y       z     vdW  Elec       q    Type
REMARK                         _______ _______ _______ _____ _____    ______ ____
ROOT
ATOM      1  O   LIG    1       10.460   9.330   0.000  0.00  0.00    -0.503 OA
ATOM      2  H   LIG    1       11.105   9.304   0.000  0.00  0.00    +0.292 HD
ENDROOT
BRANCH   1   3
ATOM      3  C   LIG    1       10.325   8.567   0.000  0.00  0.00    +0.168 C 
ATOM      4  C   LIG    1        9.574   8.271   0.000  0.00  0.00    +0.043 C 
ENDBRANCH   1   3
TORSDOF 1
REMARK  Name = molecules/HTQBXNHDCUEHJF-XWLPCZSASA-N.pdb
REMARK                            x       y       z     vdW  Elec       q    Type
REMARK                         _______ _______ _______ _____ _____    ______ ____
ROOT
ATOM      1  C   LIG    1        7.220   5.882   0.000  0.00  0.00    +0.005 C 
ATOM      2  C   LIG    1        7.726   7.067   0.000  0.00  0.00    -0.005 C 
ATOM      3  C   LIG    1        8.800   6.368   0.000  0.00  0.00    -0.000 C 
ENDROOT
TORSDOF 0
REMARK  Name = molecules/HTQBXNHDCUEHJF-XWLPCZSASA-N.pdb
REMARK                            x       y       z     vdW  Elec       q    Type
REMARK                         _______ _______ _______ _____ _____    ______ ____
ROOT
ATOM      1  C   LIG    1        8.147   8.735   0.000  0.00  0.00    +0.000 C 
ATOM      2  C   LIG    1        8.093   9.696   0.000  0.00  0.00    +0.005 C 
ENDROOT
BRANCH   2   3
ATOM      3  C   LIG    1        8.611  10.162   0.000  0.00  0.00    -0.005 C 
ATOM      4  C   LIG    1        9.025   9.317   0.000  0.00  0.00    -0.000 C 
ENDBRANCH   2   3
TORSDOF 1
REMARK  Name = molecules/HTQBXNHDCUEHJF-XWLPCZSASA-N.pdb
REMARK                            x       y       z     vdW  Elec       q    Type
REMARK                         _______ _______ _______ _____ _____    ______ ____
ROOT
ATOM      1  C   LIG    1        7.684   7.308   0.000  0.00  0.00    +0.000 C 
ENDROOT
TORSDOF 0
REMARK  Name = molecules/HTQBXNHDCUEHJF-XWLPCZSASA-N.pdb
REMARK                            x       y       z     vdW  Elec       q    Type
REMARK                         _______ _______ _______ _____ _____    ______ ____
ROOT
ATOM      1  O   HOH    1        8.352   4.898   0.000  0.00  0.00    -0.253 OA
ATOM      2  H   HOH    0        9.563   4.917   0.000  0.00  0.00    +0.253 HD
ENDROOT
TORSDOF 0
REMARK  Name = molecules/HTQBXNHDCUEHJF-XWLPCZSASA-N.pdb
REMARK                            x       y       z     vdW  Elec       q    Type
REMARK                         _______ _______ _______ _____ _____    ______ ____
ROOT
ATOM      1  C   LIG    1        5.864   7.688   0.000  0.00  0.00    +0.000 C 
ENDROOT
TORSDOF 0
REMARK  Name = molecules/HTQBXNHDCUEHJF-XWLPCZSASA-N.pdb
REMARK                            x       y       z     vdW  Elec       q    Type
REMARK                         _______ _______ _______ _____ _____    ______ ____
ROOT
ATOM      1  C   LIG    1        6.979   8.692   0.000  0.00  0.00    +0.076 C 
ATOM      2  C   LIG    1        7.726   8.567   0.000  0.00  0.00    +0.029 C 
ENDROOT
BRANCH   1   3
ATOM      3  N   LIG    1        6.300   9.030   0.000  0.00  0.00    -0.246 NA
ATOM      4  H   LIG    1        6.441  10.092   0.000  0.00  0.00    +0.141 HD
ENDBRANCH   1   3
TORSDOF 1
REMARK  Name = molecules/HTQBXNHDCUEHJF-XWLPCZSASA-N.pdb
REMARK                            x       y       z     vdW  Elec       q    Type
REMARK                         _______ _______ _______ _____ _____    ______ ____
ROOT
ATOM      1  O   HOH    1        7.781  11.163   0.000  0.00  0.00    -0.253 OA
ATOM      2  H   HOH    0        9.074  11.588   0.000  0.00  0.00    +0.253 HD
ENDROOT
TORSDOF 0
REMARK  Name = molecules/HTQBXNHDCUEHJF-XWLPCZSASA-N.pdb
REMARK                            x       y       z     vdW  Elec       q    Type
REMARK                         _______ _______ _______ _____ _____    ______ ____
ROOT
ATOM      1  O   HOH    1        9.591   9.774   0.000  0.00  0.00    -0.410 OA
ATOM      2  H   HOH    0       10.208   9.631   0.000  0.00  0.00    +0.205 HD
ATOM      3  H   HOH    0       10.108  10.240   0.000  0.00  0.00    +0.205 HD
ENDROOT
TORSDOF 0
REMARK  Name = molecules/HTQBXNHDCUEHJF-XWLPCZSASA-N.pdb
REMARK                            x       y       z     vdW  Elec       q    Type
REMARK                         _______ _______ _______ _____ _____    ______ ____
ROOT
ATOM      1  C   LIG    1        4.749   6.685   0.000  0.00  0.00    +0.008 C 
ATOM      2  C   LIG    1        5.418   7.817   0.000  0.00  0.00    -0.008 C 
ENDROOT
TORSDOF 0
REMARK  Name = molecules/HTQBXNHDCUEHJF-XWLPCZSASA-N.pdb
REMARK                            x       y       z     vdW  Elec       q    Type
REMARK                         _______ _______ _______ _____ _____    ______ ____
ROOT
ATOM      1  C   LIG    1        5.836   5.177   0.000  0.00  0.00    +0.000 C 
ENDROOT
TORSDOF 0
REMARK  Name = molecules/HTQBXNHDCUEHJF-XWLPCZSASA-N.pdb
REMARK                            x       y       z     vdW  Elec       q    Type
REMARK                         _______ _______ _______ _____ _____    ______ ____
ROOT
ATOM      1  C   LIG    1        6.300   6.603   0.000  0.00  0.00    +0.000 C 
ENDROOT
TORSDOF 0
REMARK  Name = molecules/HTQBXNHDCUEHJF-XWLPCZSASA-N.pdb
REMARK                            x       y       z     vdW  Elec       q    Type
REMARK                         _______ _______ _______ _____ _____    ______ ____
ROOT
ATOM      1  C   LIG    1        9.025   6.317   0.000  0.00  0.00    +0.000 C 
ENDROOT
TORSDOF 0
REMARK  Name = molecules/HTQBXNHDCUEHJF-XWLPCZSASA-N.pdb
REMARK                            x       y       z     vdW  Elec       q    Type
REMARK                         _______ _______ _______ _____ _____    ______ ____
ROOT
ATOM      1  C   LIG    1        5.373   3.750   0.000  0.00  0.00    -0.000 C 
ENDROOT
TORSDOF 0
REMARK  Name = molecules/HTQBXNHDCUEHJF-XWLPCZSASA-N.pdb
REMARK                            x       y       z     vdW  Elec       q    Type
REMARK                         _______ _______ _______ _____ _____    ______ ____
ROOT
ATOM      1  C   LIG    1        0.589   2.939   0.000  0.00  0.00    +0.000 C 
ENDROOT
TORSDOF 0
REMARK  Name = molecules/HTQBXNHDCUEHJF-XWLPCZSASA-N.pdb
REMARK                            x       y       z     vdW  Elec       q    Type
REMARK                         _______ _______ _______ _____ _____    ______ ____
ROOT
ATOM      1  O   HOH    1        4.717  -1.346   0.000  0.00  0.00    -0.253 OA
ATOM      2  H   HOH    0        3.519  -1.956   0.000  0.00  0.00    +0.253 HD
ENDROOT
TORSDOF 0
REMARK  Name = molecules/HTQBXNHDCUEHJF-XWLPCZSASA-N.pdb
REMARK                            x       y       z     vdW  Elec       q    Type
REMARK                         _______ _______ _______ _____ _____    ______ ____
ROOT
ATOM      1  C   LIG    1        8.337   4.942   0.000  0.00  0.00    +0.000 C 
ENDROOT
TORSDOF 0
REMARK  Name = molecules/HTQBXNHDCUEHJF-XWLPCZSASA-N.pdb
REMARK                            x       y       z     vdW  Elec       q    Type
REMARK                         _______ _______ _______ _____ _____    ______ ____
ROOT
ATOM      1  C   LIG    1        7.873   3.515   0.000  0.00  0.00    +0.000 C 
ENDROOT
TORSDOF 0
REMARK  Name = molecules/HTQBXNHDCUEHJF-XWLPCZSASA-N.pdb
REMARK                            x       y       z     vdW  Elec       q    Type
REMARK                         _______ _______ _______ _____ _____    ______ ____
ROOT
ATOM      1  C   LIG    1        7.410   2.088   0.000  0.00  0.00    +0.000 C 
ENDROOT
TORSDOF 0
REMARK  Name = molecules/HTQBXNHDCUEHJF-XWLPCZSASA-N.pdb
REMARK                            x       y       z     vdW  Elec       q    Type
REMARK                         _______ _______ _______ _____ _____    ______ ____
ROOT
ATOM      1  O   HOH    1        1.317  -1.452   0.000  0.00  0.00    -0.410 OA
ATOM      2  H   HOH    0        1.088  -0.378   0.000  0.00  0.00    +0.205 HD
ATOM      3  H   HOH    0        0.057  -1.151   0.000  0.00  0.00    +0.205 HD
ENDROOT
TORSDOF 0
REMARK  Name = molecules/HTQBXNHDCUEHJF-XWLPCZSASA-N.pdb
REMARK                            x       y       z     vdW  Elec       q    Type
REMARK                         _______ _______ _______ _____ _____    ______ ____
ROOT
ATOM      1  C   LIG    1       -2.339  -2.996   0.000  0.00  0.00    +0.217 C 
ATOM      2  C   LIG    1       -1.833  -2.114   0.000  0.00  0.00    +0.217 C 
ATOM      3  O   LIG    1       -2.104  -1.514   0.000  0.00  0.00    -0.217 OA
ATOM      4  O   LIG    1       -2.963  -2.130   0.000  0.00  0.00    -0.217 OA
ENDROOT
TORSDOF 0
REMARK  Name = molecules/HTQBXNHDCUEHJF-XWLPCZSASA-N.pdb
REMARK                            x       y       z     vdW  Elec       q    Type
REMARK                         _______ _______ _______ _____ _____    ______ ____
ROOT
ATOM      1  C   LIG    1       -4.921  -3.688   0.000  0.00  0.00    +0.174 C 
ATOM      2  O   LIG    1       -3.644  -4.198   0.000  0.00  0.00    -0.348 OA
ATOM      3  C   LIG    1       -3.297  -5.491   0.000  0.00  0.00    +0.174 C 
ENDROOT
TORSDOF 0
REMARK  Name = molecules/HTQBXNHDCUEHJF-XWLPCZSASA-N.pdb
REMARK                            x       y       z     vdW  Elec       q    Type
REMARK                         _______ _______ _______ _____ _____    ______ ____
ROOT
ATOM      1  C   LIG    1       -5.671  -4.987   0.000  0.00  0.00    -0.000 C 
ENDROOT
TORSDOF 0
REMARK  Name = molecules/HTQBXNHDCUEHJF-XWLPCZSASA-N.pdb
REMARK                            x       y       z     vdW  Elec       q    Type
REMARK                         _______ _______ _______ _____ _____    ______ ____
ROOT
ATOM      1  C   LIG    1       -3.571  -0.183   0.000  0.00  0.00    +0.000 C 
ENDROOT
TORSDOF 0
REMARK  Name = molecules/HTQBXNHDCUEHJF-XWLPCZSASA-N.pdb
REMARK                            x       y       z     vdW  Elec       q    Type
REMARK                         _______ _______ _______ _____ _____    ______ ____
ROOT
ATOM      1  O   HOH    1       -2.342   0.677   0.000  0.00  0.00    -0.410 OA
ATOM      2  H   HOH    0       -2.149   1.578   0.000  0.00  0.00    +0.205 HD
ATOM      3  H   HOH    0       -2.641   0.107   0.000  0.00  0.00    +0.205 HD
ENDROOT
TORSDOF 0
REMARK  Name = molecules/HTQBXNHDCUEHJF-XWLPCZSASA-N.pdb
REMARK                            x       y       z     vdW  Elec       q    Type
REMARK                         _______ _______ _______ _____ _____    ______ ____
ROOT
ATOM      1  C   LIG    1       -1.369  -0.688   0.000  0.00  0.00    +0.000 C 
ENDROOT
TORSDOF 0
REMARK  Name = molecules/HTQBXNHDCUEHJF-XWLPCZSASA-N.pdb
REMARK                            x       y       z     vdW  Elec       q    Type
REMARK                         _______ _______ _______ _____ _____    ______ ____
ROOT
ATOM      1  O   HOH    1       -0.906   0.739   0.000  0.00  0.00    -0.410 OA
ATOM      2  H   HOH    0       -1.935   0.616   0.000  0.00  0.00    +0.205 HD
ATOM      3  H   HOH    0        0.021   0.016   0.000  0.00  0.00    +0.205 HD
ENDROOT
TORSDOF 0
REMARK  Name = molecules/HTQBXNHDCUEHJF-XWLPCZSASA-N.pdb
REMARK                            x       y       z     vdW  Elec       q    Type
REMARK                         _______ _______ _______ _____ _____    ______ ____
ROOT
ATOM      1  C   LIG    1       -2.220  -7.508   0.000  0.00  0.00    +0.000 C 
ENDROOT
TORSDOF 0
REMARK  Name = molecules/HTQBXNHDCUEHJF-XWLPCZSASA-N.pdb
REMARK                            x       y       z     vdW  Elec       q    Type
REMARK                         _______ _______ _______ _____ _____    ______ ____
ROOT
ATOM      1  C   LIG    1       -1.756  -6.082   0.000  0.00  0.00    +0.000 C 
ENDROOT
TORSDOF 0
REMARK  Name = molecules/HTQBXNHDCUEHJF-XWLPCZSASA-N.pdb
REMARK                            x       y       z     vdW  Elec       q    Type
REMARK                         _______ _______ _______ _____ _____    ______ ____
ROOT
ATOM      1  C   LIG    1       -0.253 -10.513   0.000  0.00  0.00    +0.000 C 
ENDROOT
TORSDOF 0
REMARK  Name = molecules/HTQBXNHDCUEHJF-XWLPCZSASA-N.pdb
REMARK                            x       y       z     vdW  Elec       q    Type
REMARK                         _______ _______ _______ _____ _____    ______ ____
ROOT
ATOM      1  C   LIG    1       -5.688 -10.278   0.000  0.00  0.00    +0.009 C 
ATOM      2  C   LIG    1       -4.432 -10.614   0.000  0.00  0.00    -0.005 C 
ATOM      3  C   LIG    1       -5.182  -9.315   0.000  0.00  0.00    -0.005 C 
ENDROOT
TORSDOF 0
REMARK  Name = molecules/HTQBXNHDCUEHJF-XWLPCZSASA-N.pdb
REMARK                            x       y       z     vdW  Elec       q    Type
REMARK                         _______ _______ _______ _____ _____    ______ ____
ROOT
ATOM      1  C   LIG    1       -6.438 -11.577   0.000  0.00  0.00    +0.000 C 
ENDROOT
TORSDOF 0
REMARK  Name = molecules/HTQBXNHDCUEHJF-XWLPCZSASA-N.pdb
REMARK                            x       y       z     vdW  Elec       q    Type
REMARK                         _______ _______ _______ _____ _____    ______ ____
ROOT
ATOM      1  C   LIG    1       -5.434 -12.692   0.000  0.00  0.00    +0.000 C 
ENDROOT
TORSDOF 0
REMARK  Name = molecules/HTQBXNHDCUEHJF-XWLPCZSASA-N.pdb
REMARK                            x       y       z     vdW  Elec       q    Type
REMARK                         _______ _______ _______ _____ _____    ______ ____
ROOT
ATOM      1  C   LIG    1       -4.064 -12.082   0.000  0.00  0.00    -0.000 C 
ENDROOT
TORSDOF 0
REMARK  Name = molecules/HTQBXNHDCUEHJF-XWLPCZSASA-N.pdb
REMARK                            x       y       z     vdW  Elec       q    Type
REMARK                         _______ _______ _______ _____ _____    ______ ____
ROOT
ATOM      1  O   HOH    1       -3.261  -5.873   0.000  0.00  0.00    +0.000 OA
ENDROOT
TORSDOF 0
REMARK  Name = molecules/HTQBXNHDCUEHJF-XWLPCZSASA-N.pdb
REMARK                            x       y       z     vdW  Elec       q    Type
REMARK                         _______ _______ _______ _____ _____    ______ ____
ROOT
ATOM      1  C   LIG    1       -9.771  -8.401   0.000  0.00  0.00    -0.000 C 
ENDROOT
TORSDOF 0
REMARK  Name = molecules/HTQBXNHDCUEHJF-XWLPCZSASA-N.pdb
REMARK                            x       y       z     vdW  Elec       q    Type
REMARK                         _______ _______ _______ _____ _____    ______ ____
ROOT
ATOM      1  O   HOH    1      -10.886  -9.405   0.000  0.00  0.00    +0.000 OA
ENDROOT
TORSDOF 0
REMARK  Name = molecules/HTQBXNHDCUEHJF-XWLPCZSASA-N.pdb
REMARK                            x       y       z     vdW  Elec       q    Type
REMARK                         _______ _______ _______ _____ _____    ______ ____
ROOT
ATOM      1  H   UNK    1       67.103  26.636   0.000  0.00  0.00    +0.000 HD
ENDROOT
TORSDOF 0
REMARK  Name = molecules/HTQBXNHDCUEHJF-XWLPCZSASA-N.pdb
REMARK                            x       y       z     vdW  Elec       q    Type
REMARK                         _______ _______ _______ _____ _____    ______ ____
ROOT
ATOM      1  H   UNK    1       67.843  28.915   0.000  0.00  0.00    +0.000 HD
ENDROOT
TORSDOF 0
REMARK  Name = molecules/HTQBXNHDCUEHJF-XWLPCZSASA-N.pdb
REMARK                            x       y       z     vdW  Elec       q    Type
REMARK                         _______ _______ _______ _____ _____    ______ ____
ROOT
ATOM      1  H   UNK    1       72.693  27.657   0.000  0.00  0.00    +0.000 HD
ENDROOT
TORSDOF 0
REMARK  Name = molecules/HTQBXNHDCUEHJF-XWLPCZSASA-N.pdb
REMARK                            x       y       z     vdW  Elec       q    Type
REMARK                         _______ _______ _______ _____ _____    ______ ____
ROOT
ATOM      1  H   UNK    1       70.145  32.427   0.000  0.00  0.00    +0.000 HD
ENDROOT
TORSDOF 0
REMARK  Name = molecules/HTQBXNHDCUEHJF-XWLPCZSASA-N.pdb
REMARK                            x       y       z     vdW  Elec       q    Type
REMARK                         _______ _______ _______ _____ _____    ______ ____
ROOT
ATOM      1  H   UNK    1       71.452  37.100   0.000  0.00  0.00    +0.000 HD
ENDROOT
TORSDOF 0
REMARK  Name = molecules/HTQBXNHDCUEHJF-XWLPCZSASA-N.pdb
REMARK                            x       y       z     vdW  Elec       q    Type
REMARK                         _______ _______ _______ _____ _____    ______ ____
ROOT
ATOM      1  H   UNK    1       49.284  29.376   0.000  0.00  0.00    +0.000 HD
ENDROOT
TORSDOF 0
REMARK  Name = molecules/HTQBXNHDCUEHJF-XWLPCZSASA-N.pdb
REMARK                            x       y       z     vdW  Elec       q    Type
REMARK                         _______ _______ _______ _____ _____    ______ ____
ROOT
ATOM      1  H   UNK    1       11.411  10.136   0.000  0.00  0.00    +0.000 HD
ENDROOT
TORSDOF 0
REMARK  Name = molecules/HTQBXNHDCUEHJF-XWLPCZSASA-N.pdb
REMARK                            x       y       z     vdW  Elec       q    Type
REMARK                         _______ _______ _______ _____ _____    ______ ____
ROOT
ATOM      1  H   UNK    1        2.717   3.353   0.000  0.00  0.00    +0.000 HD
ENDROOT
TORSDOF 0
REMARK  Name = molecules/HTQBXNHDCUEHJF-XWLPCZSASA-N.pdb
REMARK                            x       y       z     vdW  Elec       q    Type
REMARK                         _______ _______ _______ _____ _____    ______ ____
ROOT
ATOM      1  H   UNK    1        2.582   3.240   0.000  0.00  0.00    +0.000 HD
ENDROOT
TORSDOF 0
REMARK  Name = molecules/HTQBXNHDCUEHJF-XWLPCZSASA-N.pdb
REMARK                            x       y       z     vdW  Elec       q    Type
REMARK                         _______ _______ _______ _____ _____    ______ ____
ROOT
ATOM      1  H   UNK    1        8.905  -1.391   0.000  0.00  0.00    +0.000 HD
ENDROOT
TORSDOF 0
REMARK  Name = molecules/HTQBXNHDCUEHJF-XWLPCZSASA-N.pdb
REMARK                            x       y       z     vdW  Elec       q    Type
REMARK                         _______ _______ _______ _____ _____    ______ ____
ROOT
ATOM      1  H   UNK    1        4.794  -5.314   0.000  0.00  0.00    +0.000 HD
ENDROOT
TORSDOF 0
REMARK  Name = molecules/HTQBXNHDCUEHJF-XWLPCZSASA-N.pdb
REMARK                            x       y       z     vdW  Elec       q    Type
REMARK                         _______ _______ _______ _____ _____    ______ ____
ROOT
ATOM      1  H   UNK    1        0.826  -5.390   0.000  0.00  0.00    +0.000 HD
ENDROOT
TORSDOF 0
REMARK  Name = molecules/HTQBXNHDCUEHJF-XWLPCZSASA-N.pdb
REMARK                            x       y       z     vdW  Elec       q    Type
REMARK                         _______ _______ _______ _____ _____    ______ ____
ROOT
ATOM      1  H   UNK    1       -6.880  -1.635   0.000  0.00  0.00    +0.000 HD
ENDROOT
TORSDOF 0
REMARK  Name = molecules/HTQBXNHDCUEHJF-XWLPCZSASA-N.pdb
REMARK                            x       y       z     vdW  Elec       q    Type
REMARK                         _______ _______ _______ _____ _____    ______ ____
ROOT
ATOM      1  H   UNK    1        0.202  -8.135   0.000  0.00  0.00    +0.000 HD
ENDROOT
TORSDOF 0
REMARK  Name = molecules/HTQBXNHDCUEHJF-XWLPCZSASA-N.pdb
REMARK                            x       y       z     vdW  Elec       q    Type
REMARK                         _______ _______ _______ _____ _____    ______ ____
ROOT
ATOM      1  H   UNK    1       -8.116  -9.939   0.000  0.00  0.00    +0.000 HD
ENDROOT
TORSDOF 0
REMARK  Name = molecules/HTQBXNHDCUEHJF-XWLPCZSASA-N.pdb
REMARK                            x       y       z     vdW  Elec       q    Type
REMARK                         _______ _______ _______ _____ _____    ______ ____
ROOT
ATOM      1  H   UNK    1       -7.015  -3.683   0.000  0.00  0.00    +0.000 HD
ENDROOT
TORSDOF 0
REMARK  Name = molecules/HTQBXNHDCUEHJF-XWLPCZSASA-N.pdb
REMARK                            x       y       z     vdW  Elec       q    Type
REMARK                         _______ _______ _______ _____ _____    ______ ____
ROOT
ATOM      1  H   UNK    1       -9.213  -4.293   0.000  0.00  0.00    +0.000 HD
ENDROOT
TORSDOF 0
REMARK  Name = molecules/HTQBXNHDCUEHJF-XWLPCZSASA-N.pdb
REMARK                            x       y       z     vdW  Elec       q    Type
REMARK                         _______ _______ _______ _____ _____    ______ ____
ROOT
ATOM      1  H   UNK    1       69.295  20.326   0.000  0.00  0.00    +0.000 HD
ENDROOT
TORSDOF 0
REMARK  Name = molecules/HTQBXNHDCUEHJF-XWLPCZSASA-N.pdb
REMARK                            x       y       z     vdW  Elec       q    Type
REMARK                         _______ _______ _______ _____ _____    ______ ____
ROOT
ATOM      1  H   UNK    1       78.094  30.845   0.000  0.00  0.00    +0.000 HD
ENDROOT
TORSDOF 0
REMARK  Name = molecules/HTQBXNHDCUEHJF-XWLPCZSASA-N.pdb
REMARK                            x       y       z     vdW  Elec       q    Type
REMARK                         _______ _______ _______ _____ _____    ______ ____
ROOT
ATOM      1  H   UNK    1       63.492  39.792   0.000  0.00  0.00    +0.000 HD
ENDROOT
TORSDOF 0
REMARK  Name = molecules/HTQBXNHDCUEHJF-XWLPCZSASA-N.pdb
REMARK                            x       y       z     vdW  Elec       q    Type
REMARK                         _______ _______ _______ _____ _____    ______ ____
ROOT
ATOM      1  H   UNK    1       57.129  36.550   0.000  0.00  0.00    +0.000 HD
ENDROOT
TORSDOF 0
REMARK  Name = molecules/HTQBXNHDCUEHJF-XWLPCZSASA-N.pdb
REMARK                            x       y       z     vdW  Elec       q    Type
REMARK                         _______ _______ _______ _____ _____    ______ ____
ROOT
ATOM      1  H   UNK    1       59.352  27.683   0.000  0.00  0.00    +0.000 HD
ENDROOT
TORSDOF 0
REMARK  Name = molecules/HTQBXNHDCUEHJF-XWLPCZSASA-N.pdb
REMARK                            x       y       z     vdW  Elec       q    Type
REMARK                         _______ _______ _______ _____ _____    ______ ____
ROOT
ATOM      1  H   UNK    1       52.605  35.395   0.000  0.00  0.00    +0.000 HD
ENDROOT
TORSDOF 0
REMARK  Name = molecules/HTQBXNHDCUEHJF-XWLPCZSASA-N.pdb
REMARK                            x       y       z     vdW  Elec       q    Type
REMARK                         _______ _______ _______ _____ _____    ______ ____
ROOT
ATOM      1  H   UNK    1       50.907  19.809   0.000  0.00  0.00    +0.000 HD
ENDROOT
TORSDOF 0
REMARK  Name = molecules/HTQBXNHDCUEHJF-XWLPCZSASA-N.pdb
REMARK                            x       y       z     vdW  Elec       q    Type
REMARK                         _______ _______ _______ _____ _____    ______ ____
ROOT
ATOM      1  H   UNK    1       51.824  22.136   0.000  0.00  0.00    +0.000 HD
ENDROOT
TORSDOF 0
REMARK  Name = molecules/HTQBXNHDCUEHJF-XWLPCZSASA-N.pdb
REMARK                            x       y       z     vdW  Elec       q    Type
REMARK                         _______ _______ _______ _____ _____    ______ ____
ROOT
ATOM      1  H   UNK    1       40.345  30.338   0.000  0.00  0.00    +0.000 HD
ENDROOT
TORSDOF 0
REMARK  Name = molecules/HTQBXNHDCUEHJF-XWLPCZSASA-N.pdb
REMARK                            x       y       z     vdW  Elec       q    Type
REMARK                         _______ _______ _______ _____ _____    ______ ____
ROOT
ATOM      1  H   UNK    1       38.414  28.599   0.000  0.00  0.00    +0.000 HD
ENDROOT
TORSDOF 0
REMARK  Name = molecules/HTQBXNHDCUEHJF-XWLPCZSASA-N.pdb
REMARK                            x       y       z     vdW  Elec       q    Type
REMARK                         _______ _______ _______ _____ _____    ______ ____
ROOT
ATOM      1  H   UNK    1       33.983  27.096   0.000  0.00  0.00    +0.000 HD
ENDROOT
TORSDOF 0
REMARK  Name = molecules/HTQBXNHDCUEHJF-XWLPCZSASA-N.pdb
REMARK                            x       y       z     vdW  Elec       q    Type
REMARK                         _______ _______ _______ _____ _____    ______ ____
ROOT
ATOM      1  H   UNK    1       37.559  16.260   0.000  0.00  0.00    +0.000 HD
ENDROOT
TORSDOF 0
REMARK  Name = molecules/HTQBXNHDCUEHJF-XWLPCZSASA-N.pdb
REMARK                            x       y       z     vdW  Elec       q    Type
REMARK                         _______ _______ _______ _____ _____    ______ ____
ROOT
ATOM      1  H   UNK    1       30.091  23.052   0.000  0.00  0.00    +0.000 HD
ENDROOT
TORSDOF 0
REMARK  Name = molecules/HTQBXNHDCUEHJF-XWLPCZSASA-N.pdb
REMARK                            x       y       z     vdW  Elec       q    Type
REMARK                         _______ _______ _______ _____ _____    ______ ____
ROOT
ATOM      1  H   UNK    1       27.229  12.941   0.000  0.00  0.00    +0.000 HD
ENDROOT
TORSDOF 0
REMARK  Name = molecules/HTQBXNHDCUEHJF-XWLPCZSASA-N.pdb
REMARK                            x       y       z     vdW  Elec       q    Type
REMARK                         _______ _______ _______ _____ _____    ______ ____
ROOT
ATOM      1  H   UNK    1       24.032   7.305   0.000  0.00  0.00    +0.000 HD
ENDROOT
TORSDOF 0
REMARK  Name = molecules/HTQBXNHDCUEHJF-XWLPCZSASA-N.pdb
REMARK                            x       y       z     vdW  Elec       q    Type
REMARK                         _______ _______ _______ _____ _____    ______ ____
ROOT
ATOM      1  H   UNK    1       23.096  11.707   0.000  0.00  0.00    +0.000 HD
ENDROOT
TORSDOF 0
REMARK  Name = molecules/HTQBXNHDCUEHJF-XWLPCZSASA-N.pdb
REMARK                            x       y       z     vdW  Elec       q    Type
REMARK                         _______ _______ _______ _____ _____    ______ ____
ROOT
ATOM      1  H   UNK    1       27.376  10.316   0.000  0.00  0.00    +0.000 HD
ENDROOT
TORSDOF 0
REMARK  Name = molecules/HTQBXNHDCUEHJF-XWLPCZSASA-N.pdb
REMARK                            x       y       z     vdW  Elec       q    Type
REMARK                         _______ _______ _______ _____ _____    ______ ____
ROOT
ATOM      1  H   UNK    1       11.547   5.889   0.000  0.00  0.00    +0.000 HD
ENDROOT
TORSDOF 0
REMARK  Name = molecules/HTQBXNHDCUEHJF-XWLPCZSASA-N.pdb
REMARK                            x       y       z     vdW  Elec       q    Type
REMARK                         _______ _______ _______ _____ _____    ______ ____
ROOT
ATOM      1  H   UNK    1        7.338  10.957   0.000  0.00  0.00    +0.000 HD
ENDROOT
TORSDOF 0
REMARK  Name = molecules/HTQBXNHDCUEHJF-XWLPCZSASA-N.pdb
REMARK                            x       y       z     vdW  Elec       q    Type
REMARK                         _______ _______ _______ _____ _____    ______ ____
ROOT
ATOM      1  H   UNK    1        7.325   7.351   0.000  0.00  0.00    +0.000 HD
ENDROOT
TORSDOF 0
REMARK  Name = molecules/HTQBXNHDCUEHJF-XWLPCZSASA-N.pdb
REMARK                            x       y       z     vdW  Elec       q    Type
REMARK                         _______ _______ _______ _____ _____    ______ ____
ROOT
ATOM      1  H   UNK    1        8.765  12.295   0.000  0.00  0.00    +0.000 HD
ENDROOT
TORSDOF 0
REMARK  Name = molecules/HTQBXNHDCUEHJF-XWLPCZSASA-N.pdb
REMARK                            x       y       z     vdW  Elec       q    Type
REMARK                         _______ _______ _______ _____ _____    ______ ____
ROOT
ATOM      1  H   UNK    1        3.929   8.000   0.000  0.00  0.00    +0.000 HD
ENDROOT
TORSDOF 0
REMARK  Name = molecules/HTQBXNHDCUEHJF-XWLPCZSASA-N.pdb
REMARK                            x       y       z     vdW  Elec       q    Type
REMARK                         _______ _______ _______ _____ _____    ______ ____
ROOT
ATOM      1  H   UNK    1        5.666  10.390   0.000  0.00  0.00    +0.000 HD
ENDROOT
TORSDOF 0
REMARK  Name = molecules/HTQBXNHDCUEHJF-XWLPCZSASA-N.pdb
REMARK                            x       y       z     vdW  Elec       q    Type
REMARK                         _______ _______ _______ _____ _____    ______ ____
ROOT
ATOM      1  H   UNK    1       11.119   9.839   0.000  0.00  0.00    +0.000 HD
ENDROOT
TORSDOF 0
REMARK  Name = molecules/HTQBXNHDCUEHJF-XWLPCZSASA-N.pdb
REMARK                            x       y       z     vdW  Elec       q    Type
REMARK                         _______ _______ _______ _____ _____    ______ ____
ROOT
ATOM      1  H   UNK    1        9.563  10.717   0.000  0.00  0.00    +0.000 HD
ENDROOT
TORSDOF 0
REMARK  Name = molecules/HTQBXNHDCUEHJF-XWLPCZSASA-N.pdb
REMARK                            x       y       z     vdW  Elec       q    Type
REMARK                         _______ _______ _______ _____ _____    ______ ____
ROOT
ATOM      1  H   UNK    1       -2.728   2.439   0.000  0.00  0.00    +0.000 HD
ENDROOT
TORSDOF 0
REMARK  Name = molecules/HTQBXNHDCUEHJF-XWLPCZSASA-N.pdb
REMARK                            x       y       z     vdW  Elec       q    Type
REMARK                         _______ _______ _______ _____ _____    ______ ____
ROOT
ATOM      1  H   UNK    1       -0.771   3.573   0.000  0.00  0.00    +0.000 HD
ENDROOT
TORSDOF 0
REMARK  Name = molecules/HTQBXNHDCUEHJF-XWLPCZSASA-N.pdb
REMARK                            x       y       z     vdW  Elec       q    Type
REMARK                         _______ _______ _______ _____ _____    ______ ____
ROOT
ATOM      1  H   UNK    1        2.085   2.834   0.000  0.00  0.00    +0.000 HD
ENDROOT
TORSDOF 0
REMARK  Name = molecules/HTQBXNHDCUEHJF-XWLPCZSASA-N.pdb
REMARK                            x       y       z     vdW  Elec       q    Type
REMARK                         _______ _______ _______ _____ _____    ______ ____
ROOT
ATOM      1  H   UNK    1        9.696   4.308   0.000  0.00  0.00    +0.000 HD
ENDROOT
TORSDOF 0
REMARK  Name = molecules/HTQBXNHDCUEHJF-XWLPCZSASA-N.pdb
REMARK                            x       y       z     vdW  Elec       q    Type
REMARK                         _______ _______ _______ _____ _____    ______ ____
ROOT
ATOM      1  H   UNK    1        9.300   3.051   0.000  0.00  0.00    +0.000 HD
ENDROOT
TORSDOF 0
REMARK  Name = molecules/HTQBXNHDCUEHJF-XWLPCZSASA-N.pdb
REMARK                            x       y       z     vdW  Elec       q    Type
REMARK                         _______ _______ _______ _____ _____    ______ ____
ROOT
ATOM      1  H   UNK    1        8.373   0.198   0.000  0.00  0.00    +0.000 HD
ENDROOT
TORSDOF 0
REMARK  Name = molecules/HTQBXNHDCUEHJF-XWLPCZSASA-N.pdb
REMARK                            x       y       z     vdW  Elec       q    Type
REMARK                         _______ _______ _______ _____ _____    ______ ____
ROOT
ATOM      1  H   UNK    1       10.160   5.734   0.000  0.00  0.00    +0.000 HD
ENDROOT
TORSDOF 0
REMARK  Name = molecules/HTQBXNHDCUEHJF-XWLPCZSASA-N.pdb
REMARK                            x       y       z     vdW  Elec       q    Type
REMARK                         _______ _______ _______ _____ _____    ______ ____
ROOT
ATOM      1  H   UNK    1       12.418  -3.693   0.000  0.00  0.00    +0.000 HD
ENDROOT
TORSDOF 0
REMARK  Name = molecules/HTQBXNHDCUEHJF-XWLPCZSASA-N.pdb
REMARK                            x       y       z     vdW  Elec       q    Type
REMARK                         _______ _______ _______ _____ _____    ______ ____
ROOT
ATOM      1  H   UNK    1       10.679  -1.762   0.000  0.00  0.00    +0.000 HD
ENDROOT
TORSDOF 0
REMARK  Name = molecules/HTQBXNHDCUEHJF-XWLPCZSASA-N.pdb
REMARK                            x       y       z     vdW  Elec       q    Type
REMARK                         _______ _______ _______ _____ _____    ______ ____
ROOT
ATOM      1  H   UNK    1       -0.279  -2.100   0.000  0.00  0.00    +0.000 HD
ENDROOT
TORSDOF 0
REMARK  Name = molecules/HTQBXNHDCUEHJF-XWLPCZSASA-N.pdb
REMARK                            x       y       z     vdW  Elec       q    Type
REMARK                         _______ _______ _______ _____ _____    ______ ____
ROOT
ATOM      1  H   UNK    1       -6.292  -3.078   0.000  0.00  0.00    +0.000 HD
ENDROOT
TORSDOF 0
REMARK  Name = molecules/HTQBXNHDCUEHJF-XWLPCZSASA-N.pdb
REMARK                            x       y       z     vdW  Elec       q    Type
REMARK                         _______ _______ _______ _____ _____    ______ ____
ROOT
ATOM      1  H   UNK    1       -6.635  -3.838   0.000  0.00  0.00    +0.000 HD
ENDROOT
TORSDOF 0
REMARK  Name = molecules/HTQBXNHDCUEHJF-XWLPCZSASA-N.pdb
REMARK                            x       y       z     vdW  Elec       q    Type
REMARK                         _______ _______ _______ _____ _____    ______ ____
ROOT
ATOM      1  H   UNK    1       -8.966   0.204   0.000  0.00  0.00    +0.000 HD
ENDROOT
TORSDOF 0
REMARK  Name = molecules/HTQBXNHDCUEHJF-XWLPCZSASA-N.pdb
REMARK                            x       y       z     vdW  Elec       q    Type
REMARK                         _______ _______ _______ _____ _____    ______ ____
ROOT
ATOM      1  H   UNK    1       -3.229  -5.796   0.000  0.00  0.00    +0.000 HD
ENDROOT
TORSDOF 0
REMARK  Name = molecules/HTQBXNHDCUEHJF-XWLPCZSASA-N.pdb
REMARK                            x       y       z     vdW  Elec       q    Type
REMARK                         _______ _______ _______ _____ _____    ______ ____
ROOT
ATOM      1  H   UNK    1       -0.330  -6.545   0.000  0.00  0.00    +0.000 HD
ENDROOT
TORSDOF 0
REMARK  Name = molecules/HTQBXNHDCUEHJF-XWLPCZSASA-N.pdb
REMARK                            x       y       z     vdW  Elec       q    Type
REMARK                         _______ _______ _______ _____ _____    ______ ____
ROOT
ATOM      1  H   UNK    1        1.174 -10.977   0.000  0.00  0.00    +0.000 HD
ENDROOT
TORSDOF 0
REMARK  Name = molecules/HTQBXNHDCUEHJF-XWLPCZSASA-N.pdb
REMARK                            x       y       z     vdW  Elec       q    Type
REMARK                         _______ _______ _______ _____ _____    ______ ____
ROOT
ATOM      1  H   UNK    1       -0.717 -11.940   0.000  0.00  0.00    +0.000 HD
ENDROOT
TORSDOF 0
REMARK  Name = molecules/HTQBXNHDCUEHJF-XWLPCZSASA-N.pdb
REMARK                            x       y       z     vdW  Elec       q    Type
REMARK                         _______ _______ _______ _____ _____    ______ ____
ROOT
ATOM      1  H   UNK    1       -1.784 -11.546   0.000  0.00  0.00    +0.000 HD
ENDROOT
TORSDOF 0
REMARK  Name = molecules/HTQBXNHDCUEHJF-XWLPCZSASA-N.pdb
REMARK                            x       y       z     vdW  Elec       q    Type
REMARK                         _______ _______ _______ _____ _____    ______ ____
ROOT
ATOM      1  H   UNK    1       -7.442 -12.692   0.000  0.00  0.00    +0.000 HD
ENDROOT
TORSDOF 0
REMARK  Name = molecules/HTQBXNHDCUEHJF-XWLPCZSASA-N.pdb
REMARK                            x       y       z     vdW  Elec       q    Type
REMARK                         _______ _______ _______ _____ _____    ______ ____
ROOT
ATOM      1  H   UNK    1       -6.648 -13.574   0.000  0.00  0.00    +0.000 HD
ENDROOT
TORSDOF 0
REMARK  Name = molecules/HTQBXNHDCUEHJF-XWLPCZSASA-N.pdb
REMARK                            x       y       z     vdW  Elec       q    Type
REMARK                         _______ _______ _______ _____ _____    ______ ____
ROOT
ATOM      1  H   UNK    1       -4.684 -13.991   0.000  0.00  0.00    +0.000 HD
ENDROOT
TORSDOF 0
REMARK  Name = molecules/HTQBXNHDCUEHJF-XWLPCZSASA-N.pdb
REMARK                            x       y       z     vdW  Elec       q    Type
REMARK                         _______ _______ _______ _____ _____    ______ ____
ROOT
ATOM      1  H   UNK    1       -2.565 -12.134   0.000  0.00  0.00    +0.000 HD
ENDROOT
TORSDOF 0
REMARK  Name = molecules/HTQBXNHDCUEHJF-XWLPCZSASA-N.pdb
REMARK                            x       y       z     vdW  Elec       q    Type
REMARK                         _______ _______ _______ _____ _____    ______ ____
ROOT
ATOM      1  H   UNK    1       -9.353  -5.426   0.000  0.00  0.00    +0.000 HD
ENDROOT
TORSDOF 0
REMARK  Name = molecules/HTQBXNHDCUEHJF-XWLPCZSASA-N.pdb
REMARK                            x       y       z     vdW  Elec       q    Type
REMARK                         _______ _______ _______ _____ _____    ______ ____
ROOT
ATOM      1  H   UNK    1       -2.521  -7.338   0.000  0.00  0.00    +0.000 HD
ENDROOT
TORSDOF 0
REMARK  Name = molecules/HTQBXNHDCUEHJF-XWLPCZSASA-N.pdb
REMARK                            x       y       z     vdW  Elec       q    Type
REMARK                         _______ _______ _______ _____ _____    ______ ____
ROOT
ATOM      1  H   UNK    1       -8.911  -9.630   0.000  0.00  0.00    +0.000 HD
ENDROOT
TORSDOF 0
REMARK  Name = molecules/HTQBXNHDCUEHJF-XWLPCZSASA-N.pdb
REMARK                            x       y       z     vdW  Elec       q    Type
REMARK                         _______ _______ _______ _____ _____    ______ ____
ROOT
ATOM      1  H   UNK    1      -10.574 -10.872   0.000  0.00  0.00    +0.000 HD
ENDROOT
TORSDOF 0
