REMARK  Name = molecules/HTWFXPCUFWKXOP-CYBMUJFWSA-N.pdb
REMARK                            x       y       z     vdW  Elec       q    Type
REMARK                         _______ _______ _______ _____ _____    ______ ____
ROOT
ATOM      1  O   LIG    1       -0.810   0.285   0.875  0.00  0.00    -0.488 OA
ENDROOT
BRANCH   1   2
ATOM      2  C   LIG    1       -2.054  -0.306   1.026  0.00  0.00    +0.134 A 
ATOM      3  C   LIG    1       -2.413  -0.991   2.197  0.00  0.00    +0.047 A 
ATOM      4  C   LIG    1       -3.638  -1.561   2.319  0.00  0.00    +0.004 A 
ATOM      5  C   LIG    1       -4.568  -1.490   1.310  0.00  0.00    +0.005 A 
ATOM      6  C   LIG    1       -4.222  -0.806   0.131  0.00  0.00    -0.030 A 
ATOM      7  C   LIG    1       -5.152  -0.679  -1.002  0.00  0.00    +0.037 C 
ATOM      8  C   LIG    1       -5.352   0.750  -1.439  0.00  0.00    +0.016 C 
ATOM      9  C   LIG    1       -4.149   1.332  -2.124  0.00  0.00    +0.075 C 
ATOM     10  S   LIG    1       -2.597   0.619  -1.500  0.00  0.00    -0.121 S 
ATOM     11  C   LIG    1       -2.978  -0.230   0.012  0.00  0.00    +0.053 A 
ENDBRANCH   1   2
BRANCH   1  12
ATOM     12  C   LIG    1        0.102   0.176   1.951  0.00  0.00    +0.261 C 
BRANCH  12  13
ATOM     13  C   LIG    1        1.410   0.851   1.678  0.00  0.00    +0.166 C 
BRANCH  13  14
ATOM     14  O   LIG    1        1.254   2.203   1.436  0.00  0.00    -0.387 OA
ATOM     15  H   LIG    1        1.041   2.395   0.482  0.00  0.00    +0.210 HD
ENDBRANCH  13  14
BRANCH  13  16
ATOM     16  C   LIG    1        2.220   0.150   0.622  0.00  0.00    +0.116 C 
BRANCH  16  17
ATOM     17  N   LIG    1        3.547   0.673   0.497  0.00  0.00    -0.309 NA
ATOM     18  H   LIG    1        3.530   1.706   0.398  0.00  0.00    +0.123 HD
BRANCH  17  19
ATOM     19  C   LIG    1        4.332   0.016  -0.506  0.00  0.00    +0.011 C 
ATOM     20  C   LIG    1        4.492  -1.440  -0.111  0.00  0.00    +0.027 C 
ATOM     21  C   LIG    1        5.734   0.609  -0.488  0.00  0.00    +0.027 C 
ATOM     22  C   LIG    1        3.802   0.195  -1.895  0.00  0.00    +0.027 C 
ENDBRANCH  17  19
ENDBRANCH  16  17
ENDBRANCH  13  16
ENDBRANCH  12  13
ENDBRANCH   1  12
TORSDOF 7
