REMARK  Name = molecules/HUCJFAOMUPXHDK-UHFFFAOYSA-N.pdb
REMARK                            x       y       z     vdW  Elec       q    Type
REMARK                         _______ _______ _______ _____ _____    ______ ____
ROOT
ATOM      1  C   LIG    1        0.752   0.623   0.211  0.00  0.00    -0.030 A 
ATOM      2  C   LIG    1        0.238  -0.681   0.346  0.00  0.00    -0.046 A 
ATOM      3  C   LIG    1        1.124  -1.856   0.540  0.00  0.00    +0.044 C 
ATOM      4  C   LIG    1       -1.102  -0.923   0.223  0.00  0.00    +0.007 A 
ATOM      5  C   LIG    1       -2.005   0.101  -0.042  0.00  0.00    -0.041 A 
ATOM      6  C   LIG    1       -1.498   1.362  -0.180  0.00  0.00    +0.007 A 
ATOM      7  C   LIG    1       -0.130   1.626  -0.057  0.00  0.00    -0.046 A 
ATOM      8  C   LIG    1        0.350   3.049  -0.211  0.00  0.00    +0.044 C 
ENDROOT
BRANCH   5   9
ATOM      9  C   LIG    1       -3.469  -0.219  -0.031  0.00  0.00    -0.013 C 
ATOM     10  C   LIG    1       -3.728  -0.980   1.295  0.00  0.00    +0.015 C 
ATOM     11  C   LIG    1       -4.237   1.079   0.142  0.00  0.00    +0.015 C 
ATOM     12  C   LIG    1       -3.963  -0.994  -1.184  0.00  0.00    +0.015 C 
ENDBRANCH   5   9
BRANCH   1  13
ATOM     13  C   LIG    1        2.168   0.799   0.418  0.00  0.00    +0.163 C 
BRANCH  13  14
ATOM     14  C   LIG    1        3.141   0.092  -0.414  0.00  0.00    +0.285 C 
ATOM     15  N   LIG    1        4.523   0.022   0.069  0.00  0.00    -0.233 N 
ATOM     16  H   LIG    1        4.907   0.583   0.874  0.00  0.00    +0.291 HD
ATOM     17  C   LIG    1        5.288  -0.907  -0.719  0.00  0.00    +0.273 C 
ATOM     18  C   LIG    1        4.394  -1.077  -1.928  0.00  0.00    +0.333 C 
ATOM     19  N   LIG    1        3.137  -0.518  -1.508  0.00  0.00    -0.084 NA
ENDBRANCH  13  14
ENDBRANCH   1  13
TORSDOF 3
