REMARK  Name = molecules/HUMXXHTVHHLNRO-KAJVQRHHSA-N.pdb
REMARK                            x       y       z     vdW  Elec       q    Type
REMARK                         _______ _______ _______ _____ _____    ______ ____
ROOT
ATOM      1  C   LIG    1       -0.502   1.538   1.657  0.00  0.00    +0.015 C 
ATOM      2  C   LIG    1       -0.681   0.542   0.566  0.00  0.00    +0.009 C 
ATOM      3  C   LIG    1       -1.551  -0.638   0.996  0.00  0.00    +0.002 C 
ATOM      4  C   LIG    1       -0.862  -1.092   2.214  0.00  0.00    +0.008 C 
ATOM      5  C   LIG    1        0.609  -1.014   1.768  0.00  0.00    +0.043 C 
ATOM      6  C   LIG    1       -2.959  -0.253   1.052  0.00  0.00    -0.000 C 
ATOM      7  C   LIG    1       -3.892  -1.160   1.745  0.00  0.00    +0.008 C 
ATOM      8  C   LIG    1       -4.769  -2.031   0.923  0.00  0.00    +0.032 C 
ATOM      9  C   LIG    1       -5.158  -1.447  -0.372  0.00  0.00    -0.056 C 
ATOM     10  C   LIG    1       -4.800  -0.006  -0.614  0.00  0.00    +0.013 C 
ATOM     11  C   LIG    1       -5.588   0.802   0.407  0.00  0.00    +0.020 C 
ATOM     12  C   LIG    1       -5.194   0.460  -1.931  0.00  0.00    -0.012 C 
ATOM     13  C   LIG    1       -5.807  -0.261  -2.850  0.00  0.00    +0.047 C 
ATOM     14  C   LIG    1       -6.133  -1.628  -2.571  0.00  0.00    +0.179 C 
ATOM     15  O   LIG    1       -6.719  -2.327  -3.438  0.00  0.00    -0.288 OA
ATOM     16  C   LIG    1       -5.768  -2.193  -1.260  0.00  0.00    +0.051 C 
ATOM     17  C   LIG    1       -3.342   0.052  -0.406  0.00  0.00    +0.035 C 
ATOM     18  C   LIG    1       -2.626   1.285  -0.802  0.00  0.00    +0.120 C 
ATOM     19  C   LIG    1        0.621  -0.263   0.463  0.00  0.00    +0.133 C 
ATOM     20  C   LIG    1       -1.140   1.069  -0.735  0.00  0.00    +0.041 C 
ENDROOT
BRANCH  18  21
ATOM     21  O   LIG    1       -3.001   2.319   0.051  0.00  0.00    -0.391 OA
ATOM     22  H   LIG    1       -2.724   3.201  -0.315  0.00  0.00    +0.210 HD
ENDBRANCH  18  21
BRANCH  19  23
ATOM     23  C   LIG    1        1.805   0.475   0.120  0.00  0.00    +0.202 C 
ATOM     24  O   LIG    1        2.343   0.158  -0.966  0.00  0.00    -0.291 OA
BRANCH  23  25
ATOM     25  C   LIG    1        2.480   1.547   0.858  0.00  0.00    +0.309 C 
BRANCH  25  26
ATOM     26  O   LIG    1        3.685   1.889   0.153  0.00  0.00    -0.457 OA
BRANCH  26  27
ATOM     27  C   LIG    1        4.705   0.966  -0.062  0.00  0.00    +0.308 C 
ATOM     28  O   LIG    1        4.560  -0.199   0.379  0.00  0.00    -0.251 OA
BRANCH  27  29
ATOM     29  C   LIG    1        5.943   1.307  -0.785  0.00  0.00    +0.126 C 
BRANCH  29  30
ATOM     30  C   LIG    1        6.853   0.119  -0.860  0.00  0.00    -0.028 C 
ATOM     31  C   LIG    1        7.150  -0.330   0.563  0.00  0.00    +0.011 C 
ATOM     32  C   LIG    1        8.151   0.445  -1.574  0.00  0.00    +0.011 C 
ATOM     33  C   LIG    1        6.183  -1.009  -1.578  0.00  0.00    +0.011 C 
ENDBRANCH  29  30
ENDBRANCH  27  29
ENDBRANCH  26  27
ENDBRANCH  25  26
ENDBRANCH  23  25
ENDBRANCH  19  23
BRANCH  19  34
ATOM     34  O   LIG    1        0.337  -1.208  -0.559  0.00  0.00    -0.380 OA
ATOM     35  H   LIG    1        1.199  -1.639  -0.816  0.00  0.00    +0.211 HD
ENDBRANCH  19  34
TORSDOF 8
