REMARK  Name = molecules/HUPFGZXOMWLGNK-UHFFFAOYSA-N.pdb
REMARK                            x       y       z     vdW  Elec       q    Type
REMARK                         _______ _______ _______ _____ _____    ______ ____
ROOT
ATOM      1  C   LIG    1       -0.064  -0.364   0.026  0.00  0.00    -0.014 A 
ATOM      2  C   LIG    1        0.485  -1.620   0.214  0.00  0.00    +0.012 A 
ATOM      3  C   LIG    1        1.855  -1.781   0.202  0.00  0.00    +0.047 A 
ATOM      4  C   LIG    1        2.705  -0.704   0.005  0.00  0.00    +0.131 A 
ATOM      5  C   LIG    1        2.166   0.554  -0.184  0.00  0.00    +0.101 A 
ATOM      6  C   LIG    1        0.798   0.707  -0.171  0.00  0.00    +0.027 A 
ENDROOT
BRANCH   1  14
ATOM      7  F   LIG    1       -1.254   1.735   1.416  0.00  0.00    -0.205 F 
ATOM      8  C   LIG    1       -2.073   0.892   0.741  0.00  0.00    +0.134 A 
ATOM      9  C   LIG    1       -3.435   1.111   0.775  0.00  0.00    +0.077 A 
ATOM     10  C   LIG    1       -4.248   0.238   0.080  0.00  0.00    +0.126 A 
ATOM     11  F   LIG    1       -5.582   0.461   0.119  0.00  0.00    -0.205 F 
ATOM     12  C   LIG    1       -3.709  -0.820  -0.627  0.00  0.00    +0.039 A 
ATOM     13  C   LIG    1       -2.345  -1.029  -0.653  0.00  0.00    +0.014 A 
ATOM     14  C   LIG    1       -1.512  -0.170   0.034  0.00  0.00    +0.018 A 
ENDBRANCH   1  14
BRANCH   4  15
ATOM     15  O   LIG    1        4.094  -0.851  -0.009  0.00  0.00    -0.506 OA
ATOM     16  H   LIG    1        4.479  -1.789   0.132  0.00  0.00    +0.292 HD
ENDBRANCH   4  15
BRANCH   5  17
ATOM     17  C   LIG    1        3.067   1.676  -0.389  0.00  0.00    +0.340 C 
ATOM     18  O   LIG    1        2.557   2.813  -0.559  0.00  0.00    -0.245 OA
BRANCH  17  19
ATOM     19  O   LIG    1        4.438   1.552  -0.407  0.00  0.00    -0.477 OA
ATOM     20  H   LIG    1        5.059   2.311  -0.108  0.00  0.00    +0.295 HD
ENDBRANCH  17  19
ENDBRANCH   5  17
TORSDOF 4
