REMARK  Name = molecules/HVTQGIFBNBMSGE-JZRMKITLSA-N.pdb
REMARK                            x       y       z     vdW  Elec       q    Type
REMARK                         _______ _______ _______ _____ _____    ______ ____
ROOT
ATOM      1  N   LIG    1        0.147  -0.254  -0.256  0.00  0.00    +0.379 N 
ATOM      2  C   LIG    1       -0.215  -1.631   0.123  0.00  0.00    -0.092 C 
ATOM      3  C   LIG    1        0.903  -0.422  -1.494  0.00  0.00    -0.092 C 
ENDROOT
BRANCH   1   4
ATOM      4  C   LIG    1        0.895   0.288   0.818  0.00  0.00    -0.042 C 
BRANCH   4   5
ATOM      5  C   LIG    1        2.131   1.045   0.459  0.00  0.00    +0.195 C 
ATOM      6  F   LIG    1        3.071   0.335  -0.218  0.00  0.00    -0.251 F 
ENDBRANCH   4   5
ENDBRANCH   1   4
BRANCH   1   7
ATOM      7  C   LIG    1       -0.990   0.540  -0.570  0.00  0.00    -0.048 C 
BRANCH   7   8
ATOM      8  C   LIG    1       -2.255   0.135   0.132  0.00  0.00    +0.138 C 
BRANCH   8   9
ATOM      9  O   LIG    1       -2.104   0.215   1.520  0.00  0.00    -0.397 OA
ATOM     10  H   LIG    1       -2.279   1.150   1.774  0.00  0.00    +0.209 HD
ENDBRANCH   8   9
ENDBRANCH   7   8
ENDBRANCH   1   7
TORSDOF 5
