REMARK  Name = molecules/HWGBHCRJGXAGEU-UHFFFAOYSA-N.pdb
REMARK                            x       y       z     vdW  Elec       q    Type
REMARK                         _______ _______ _______ _____ _____    ______ ____
ROOT
ATOM      1  C   LIG    1        2.223   0.076  -0.149  0.00  0.00    +0.063 C 
ATOM      2  C   LIG    1        0.735   0.009  -0.057  0.00  0.00    +0.020 A 
ATOM      3  C   LIG    1        0.066  -1.193   0.040  0.00  0.00    +0.091 A 
ATOM      4  C   LIG    1       -1.324  -1.249   0.126  0.00  0.00    +0.252 A 
ATOM      5  O   LIG    1       -1.901  -2.365   0.214  0.00  0.00    -0.268 OA
ATOM      6  N   LIG    1       -2.033  -0.104   0.114  0.00  0.00    -0.303 N 
ATOM      7  H   LIG    1       -3.092  -0.098   0.177  0.00  0.00    +0.171 HD
ATOM      8  C   LIG    1       -1.353   1.049   0.018  0.00  0.00    +0.158 A 
ATOM      9  S   LIG    1       -2.223   2.442   0.004  0.00  0.00    -0.013 S 
ATOM     10  N   LIG    1       -0.018   1.128  -0.065  0.00  0.00    -0.339 N 
ATOM     11  H   LIG    1        0.497   2.050  -0.140  0.00  0.00    +0.167 HD
ENDROOT
TORSDOF 0
