REMARK  Name = molecules/HWGQMRYQVZSGDQ-HZPDHXFCSA-N.pdb
REMARK                            x       y       z     vdW  Elec       q    Type
REMARK                         _______ _______ _______ _____ _____    ______ ____
ROOT
ATOM      1  C   LIG    1       -3.503  -0.892   0.558  0.00  0.00    +0.054 A 
ATOM      2  C   LIG    1       -4.040  -2.118   0.814  0.00  0.00    +0.052 A 
ATOM      3  C   LIG    1       -3.286  -3.235   1.118  0.00  0.00    +0.126 A 
ATOM      4  F   LIG    1       -3.861  -4.438   1.366  0.00  0.00    -0.205 F 
ATOM      5  C   LIG    1       -1.920  -3.059   1.155  0.00  0.00    +0.062 A 
ATOM      6  C   LIG    1       -1.363  -1.810   0.894  0.00  0.00    +0.040 A 
ATOM      7  N   LIG    1        0.064  -1.652   0.907  0.00  0.00    -0.335 N 
ATOM      8  H   LIG    1        0.648  -2.231   1.504  0.00  0.00    +0.147 HD
ATOM      9  C   LIG    1        0.563  -0.602  -0.005  0.00  0.00    +0.117 C 
ATOM     10  C   LIG    1       -0.103   0.650   0.437  0.00  0.00    +0.132 C 
ATOM     11  C   LIG    1       -1.563   0.527   0.344  0.00  0.00    +0.084 A 
ATOM     12  N   LIG    1       -2.361   1.576   0.054  0.00  0.00    -0.174 NA
ATOM     13  N   LIG    1       -3.661   1.396   0.020  0.00  0.00    -0.242 N 
ATOM     14  H   LIG    1       -4.331   2.196  -0.204  0.00  0.00    +0.192 HD
ATOM     15  C   LIG    1       -2.138  -0.701   0.593  0.00  0.00    +0.032 A 
ATOM     16  C   LIG    1       -4.268   0.220   0.257  0.00  0.00    +0.273 A 
ATOM     17  O   LIG    1       -5.523   0.102   0.211  0.00  0.00    -0.266 OA
ENDROOT
BRANCH   9  18
ATOM     18  C   LIG    1        2.045  -0.531   0.082  0.00  0.00    -0.026 A 
ATOM     19  C   LIG    1        2.704  -0.520   1.284  0.00  0.00    +0.008 A 
ATOM     20  C   LIG    1        4.074  -0.451   1.285  0.00  0.00    +0.038 A 
ATOM     21  C   LIG    1        4.792  -0.392   0.111  0.00  0.00    +0.123 A 
ATOM     22  F   LIG    1        6.162  -0.324   0.169  0.00  0.00    -0.205 F 
ATOM     23  C   LIG    1        4.138  -0.403  -1.095  0.00  0.00    +0.038 A 
ATOM     24  C   LIG    1        2.764  -0.473  -1.091  0.00  0.00    +0.008 A 
ENDBRANCH   9  18
BRANCH  10  25
ATOM     25  C   LIG    1        0.426   1.903  -0.116  0.00  0.00    +0.138 A 
ATOM     26  N   LIG    1        0.958   2.941   0.585  0.00  0.00    -0.219 NA
ATOM     27  C   LIG    1        1.350   3.916  -0.225  0.00  0.00    +0.245 A 
ATOM     28  N   LIG    1        1.072   3.515  -1.461  0.00  0.00    -0.158 NA
ATOM     29  N   LIG    1        0.512   2.295  -1.393  0.00  0.00    -0.251 N 
ATOM     30  C   LIG    1        0.090   1.597  -2.570  0.00  0.00    +0.174 C 
ENDBRANCH  10  25
TORSDOF 2
