REMARK  Name = molecules/HWJPWWYTGBZDEG-CQSZACIVSA-N.pdb
REMARK                            x       y       z     vdW  Elec       q    Type
REMARK                         _______ _______ _______ _____ _____    ______ ____
ROOT
ATOM      1  C   LIG    1        0.599   0.838  -0.815  0.00  0.00    -0.029 A 
ATOM      2  C   LIG    1       -0.116  -0.224  -0.372  0.00  0.00    +0.024 A 
ATOM      3  C   LIG    1       -1.364  -0.155   0.255  0.00  0.00    +0.174 A 
ATOM      4  O   LIG    1       -2.041  -1.270   0.681  0.00  0.00    -0.480 OA
ATOM      5  C   LIG    1       -1.581  -2.557   0.510  0.00  0.00    +0.200 C 
ATOM      6  C   LIG    1       -0.286  -2.662  -0.149  0.00  0.00    +0.018 C 
ATOM      7  C   LIG    1       -1.926   1.122   0.442  0.00  0.00    +0.204 A 
ATOM      8  C   LIG    1       -1.238   2.231   0.003  0.00  0.00    +0.165 A 
ATOM      9  C   LIG    1        0.375  -1.603  -0.546  0.00  0.00    +0.011 C 
ATOM     10  C   LIG    1       -0.027   2.096  -0.599  0.00  0.00    +0.054 A 
ENDROOT
BRANCH   5  11
ATOM     11  C   LIG    1       -2.617  -3.493  -0.077  0.00  0.00    +0.034 C 
ATOM     12  C   LIG    1       -3.875  -3.605   0.751  0.00  0.00    +0.008 C 
ATOM     13  C   LIG    1       -3.886  -3.064  -0.665  0.00  0.00    +0.008 C 
ENDBRANCH   5  11
BRANCH   7  14
ATOM     14  O   LIG    1       -3.149   1.197   1.057  0.00  0.00    -0.488 OA
ATOM     15  C   LIG    1       -4.382   1.190   0.375  0.00  0.00    +0.277 C 
ENDBRANCH   7  14
BRANCH   8  16
ATOM     16  O   LIG    1       -1.801   3.498   0.182  0.00  0.00    -0.491 OA
ATOM     17  C   LIG    1       -1.085   4.652  -0.303  0.00  0.00    +0.277 C 
ENDBRANCH   8  16
BRANCH   1  18
ATOM     18  C   LIG    1        1.929   0.826  -1.412  0.00  0.00    +0.076 C 
BRANCH  18  19
ATOM     19  C   LIG    1        3.086   0.757  -0.522  0.00  0.00    +0.015 A 
ATOM     20  C   LIG    1        3.382   1.899   0.253  0.00  0.00    +0.121 A 
ATOM     21  N   LIG    1        4.357   1.854   1.158  0.00  0.00    -0.223 NA
ATOM     22  C   LIG    1        5.110   0.757   1.395  0.00  0.00    +0.214 A 
ATOM     23  N   LIG    1        4.827  -0.322   0.656  0.00  0.00    -0.200 NA
ATOM     24  C   LIG    1        3.845  -0.338  -0.283  0.00  0.00    +0.125 A 
BRANCH  22  25
ATOM     25  N   LIG    1        6.134   0.737   2.364  0.00  0.00    -0.327 N 
ATOM     26  H   LIG    1        6.330  -0.124   2.898  0.00  0.00    +0.145 HD
ATOM     27  H   LIG    1        6.701   1.581   2.548  0.00  0.00    +0.145 HD
ENDBRANCH  22  25
BRANCH  24  28
ATOM     28  N   LIG    1        3.755  -1.531  -1.056  0.00  0.00    -0.343 N 
ATOM     29  H   LIG    1        3.595  -2.425  -0.553  0.00  0.00    +0.144 HD
ATOM     30  H   LIG    1        3.848  -1.492  -2.098  0.00  0.00    +0.144 HD
ENDBRANCH  24  28
ENDBRANCH  18  19
ENDBRANCH   1  18
TORSDOF 7
