REMARK  Name = molecules/HWKQNAWCHQMZHK-UHFFFAOYSA-N.pdb
REMARK                            x       y       z     vdW  Elec       q    Type
REMARK                         _______ _______ _______ _____ _____    ______ ____
ROOT
ATOM      1  N   LIG    1        0.272   0.419   0.302  0.00  0.00    -0.292 NA
ENDROOT
BRANCH   1   2
ATOM      2  C   LIG    1        0.268  -0.954  -0.102  0.00  0.00    +0.128 C 
BRANCH   2   3
ATOM      3  C   LIG    1       -0.935  -1.729   0.253  0.00  0.00    +0.282 C 
BRANCH   3   4
ATOM      4  O   LIG    1       -0.734  -3.105  -0.203  0.00  0.00    -0.350 OA
BRANCH   4   5
ATOM      5  N   LIG    1       -1.801  -3.941   0.071  0.00  0.00    +0.217 N 
ATOM      6  O   LIG    1       -2.407  -3.884   1.149  0.00  0.00    -0.090 OA
ATOM      7  O   LIG    1       -2.136  -4.830  -0.928  0.00  0.00    -0.090 OA
ENDBRANCH   4   5
ENDBRANCH   3   4
ENDBRANCH   2   3
ENDBRANCH   1   2
BRANCH   1   8
ATOM      8  C   LIG    1        1.582   0.991  -0.148  0.00  0.00    +0.128 C 
BRANCH   8   9
ATOM      9  C   LIG    1        2.765   0.297   0.380  0.00  0.00    +0.282 C 
BRANCH   9  10
ATOM     10  O   LIG    1        3.971   0.933  -0.105  0.00  0.00    -0.350 OA
BRANCH  10  11
ATOM     11  N   LIG    1        5.209   0.482   0.242  0.00  0.00    +0.217 N 
ATOM     12  O   LIG    1        5.395  -0.732   0.431  0.00  0.00    -0.090 OA
ATOM     13  O   LIG    1        6.223   1.393   0.374  0.00  0.00    -0.090 OA
ENDBRANCH  10  11
ENDBRANCH   9  10
ENDBRANCH   8   9
ENDBRANCH   1   8
BRANCH   1  14
ATOM     14  C   LIG    1       -0.692   1.285  -0.316  0.00  0.00    +0.128 C 
BRANCH  14  15
ATOM     15  C   LIG    1       -2.035   1.335   0.304  0.00  0.00    +0.282 C 
BRANCH  15  16
ATOM     16  O   LIG    1       -2.904   2.245  -0.415  0.00  0.00    -0.350 OA
BRANCH  16  17
ATOM     17  N   LIG    1       -4.190   2.398   0.048  0.00  0.00    +0.217 N 
ATOM     18  O   LIG    1       -4.401   2.499   1.273  0.00  0.00    -0.090 OA
ATOM     19  O   LIG    1       -5.285   2.450  -0.775  0.00  0.00    -0.090 OA
ENDBRANCH  16  17
ENDBRANCH  15  16
ENDBRANCH  14  15
ENDBRANCH   1  14
TORSDOF 12
