REMARK  Name = molecules/HWXIGFIVGWUZAO-UHFFFAOYSA-N.pdb
REMARK                            x       y       z     vdW  Elec       q    Type
REMARK                         _______ _______ _______ _____ _____    ______ ____
ROOT
ATOM      1  N   LIG    1        0.400   1.362  -0.549  0.00  0.00    -0.320 N 
ATOM      2  C   LIG    1        0.197   2.593  -0.005  0.00  0.00    +0.202 A 
ATOM      3  N   LIG    1       -1.015   2.571   0.546  0.00  0.00    -0.218 NA
ATOM      4  C   LIG    1       -1.604   1.370   0.378  0.00  0.00    +0.168 A 
ATOM      5  N   LIG    1       -2.775   0.850   0.722  0.00  0.00    -0.280 N 
ATOM      6  C   LIG    1       -3.726   1.659   1.458  0.00  0.00    +0.155 C 
ATOM      7  C   LIG    1       -3.079  -0.397   0.400  0.00  0.00    +0.333 A 
ATOM      8  O   LIG    1       -4.186  -0.909   0.718  0.00  0.00    -0.246 OA
ATOM      9  N   LIG    1       -2.219  -1.163  -0.278  0.00  0.00    -0.262 N 
ATOM     10  C   LIG    1       -2.533  -2.546  -0.647  0.00  0.00    +0.157 C 
ATOM     11  C   LIG    1       -1.015  -0.709  -0.662  0.00  0.00    +0.282 A 
ATOM     12  O   LIG    1       -0.220  -1.442  -1.301  0.00  0.00    -0.265 OA
ATOM     13  C   LIG    1       -0.680   0.597  -0.332  0.00  0.00    +0.152 A 
ENDROOT
BRANCH   1  14
ATOM     14  C   LIG    1        1.590   0.911  -1.238  0.00  0.00    +0.184 C 
BRANCH  14  15
ATOM     15  C   LIG    1        2.651   0.363  -0.337  0.00  0.00    +0.270 C 
ATOM     16  O   LIG    1        2.252  -0.775   0.337  0.00  0.00    -0.347 OA
ATOM     17  C   LIG    1        3.442  -1.323   0.838  0.00  0.00    +0.191 C 
ATOM     18  C   LIG    1        4.410  -0.968  -0.278  0.00  0.00    +0.191 C 
ATOM     19  O   LIG    1        3.744  -0.045  -1.075  0.00  0.00    -0.347 OA
ENDBRANCH  14  15
ENDBRANCH   1  14
TORSDOF 2
