REMARK  Name = molecules/HXCILVUBKWANLN-UHFFFAOYSA-N.pdb
REMARK                            x       y       z     vdW  Elec       q    Type
REMARK                         _______ _______ _______ _____ _____    ______ ____
ROOT
ATOM      1  C   LIG    1        0.095   1.266   0.760  0.00  0.00    +0.063 C 
ENDROOT
BRANCH   1   2
ATOM      2  C   LIG    1        0.017   2.504   1.520  0.00  0.00    -0.031 A 
ATOM      3  C   LIG    1       -0.608   2.519   2.767  0.00  0.00    +0.005 A 
ATOM      4  C   LIG    1       -0.698   3.707   3.446  0.00  0.00    +0.000 A 
ATOM      5  C   LIG    1       -0.203   4.908   2.969  0.00  0.00    +0.000 A 
ATOM      6  C   LIG    1        0.410   4.902   1.750  0.00  0.00    +0.000 A 
ATOM      7  C   LIG    1        0.509   3.711   1.051  0.00  0.00    +0.005 A 
ENDBRANCH   1   2
BRANCH   1   8
ATOM      8  C   LIG    1       -1.126   0.543   0.515  0.00  0.00    -0.031 A 
ATOM      9  C   LIG    1       -1.265  -0.800   0.787  0.00  0.00    +0.007 A 
ATOM     10  C   LIG    1       -2.439  -1.493   0.515  0.00  0.00    +0.023 A 
ATOM     11  C   LIG    1       -3.513  -0.837  -0.046  0.00  0.00    +0.030 A 
ATOM     12  C   LIG    1       -3.413   0.505  -0.331  0.00  0.00    +0.023 A 
ATOM     13  C   LIG    1       -2.227   1.172  -0.048  0.00  0.00    +0.007 A 
BRANCH  11  14
ATOM     14  N   LIG    1       -4.710  -1.547  -0.332  0.00  0.00    -0.330 N 
BRANCH  14  15
ATOM     15  C   LIG    1       -5.758  -1.729   0.639  0.00  0.00    +0.102 C 
ATOM     16  C   LIG    1       -7.010  -0.989   0.301  0.00  0.00    +0.024 C 
ENDBRANCH  14  15
BRANCH  14  17
ATOM     17  C   LIG    1       -4.811  -2.095  -1.684  0.00  0.00    +0.102 C 
ATOM     18  C   LIG    1       -5.872  -1.415  -2.505  0.00  0.00    +0.024 C 
ENDBRANCH  14  17
ENDBRANCH  11  14
ENDBRANCH   1   8
BRANCH   1  19
ATOM     19  C   LIG    1        1.240   0.854   0.271  0.00  0.00    -0.031 A 
ATOM     20  C   LIG    1        2.506   1.504   0.568  0.00  0.00    +0.007 A 
ATOM     21  C   LIG    1        3.655   0.999   0.095  0.00  0.00    +0.023 A 
ATOM     22  C   LIG    1        3.723  -0.193  -0.722  0.00  0.00    +0.030 A 
ATOM     23  C   LIG    1        2.455  -0.842  -1.017  0.00  0.00    +0.023 A 
ATOM     24  C   LIG    1        1.294  -0.358  -0.557  0.00  0.00    +0.007 A 
BRANCH  22  25
ATOM     25  N   LIG    1        4.834  -0.686  -1.164  0.00  0.00    -0.330 N 
BRANCH  25  26
ATOM     26  C   LIG    1        6.086  -0.028  -0.862  0.00  0.00    +0.102 C 
ATOM     27  C   LIG    1        6.856  -0.797   0.160  0.00  0.00    +0.024 C 
ENDBRANCH  25  26
BRANCH  25  28
ATOM     28  C   LIG    1        4.900  -1.900  -1.928  0.00  0.00    +0.102 C 
ATOM     29  C   LIG    1        5.447  -3.090  -1.194  0.00  0.00    +0.024 C 
ENDBRANCH  25  28
ENDBRANCH  22  25
ENDBRANCH   1  19
TORSDOF 9
