REMARK  Name = molecules/HXCXASJHZQXCKK-UHFFFAOYSA-N.pdb
REMARK                            x       y       z     vdW  Elec       q    Type
REMARK                         _______ _______ _______ _____ _____    ______ ____
ROOT
ATOM      1  C   LIG    1        1.756   0.263   1.031  0.00  0.00    +0.005 A 
ATOM      2  C   LIG    1        3.015   0.728   0.706  0.00  0.00    +0.000 A 
ATOM      3  C   LIG    1        3.501   0.460  -0.562  0.00  0.00    +0.001 A 
ATOM      4  C   LIG    1        2.716  -0.256  -1.448  0.00  0.00    +0.020 A 
ATOM      5  C   LIG    1        1.458  -0.712  -1.099  0.00  0.00    +0.044 A 
ATOM      6 CL   LIG    1        0.578  -1.619  -2.314  0.00  0.00    -0.083 Cl
ATOM      7  C   LIG    1        0.981  -0.451   0.140  0.00  0.00    -0.027 A 
ENDROOT
BRANCH   7   8
ATOM      8  C   LIG    1       -0.349  -0.895   0.567  0.00  0.00    +0.058 C 
BRANCH   8   9
ATOM      9  C   LIG    1       -1.495  -0.075   0.069  0.00  0.00    +0.015 C 
ATOM     10  C   LIG    1       -2.803  -0.656   0.586  0.00  0.00    +0.027 C 
ATOM     11  C   LIG    1       -1.445   1.350   0.585  0.00  0.00    +0.027 C 
BRANCH   9  12
ATOM     12  N   LIG    1       -1.598  -0.024  -1.372  0.00  0.00    -0.325 NA
ATOM     13  H   LIG    1       -2.115   0.857  -1.634  0.00  0.00    +0.119 HD
ATOM     14  H   LIG    1       -2.236  -0.822  -1.677  0.00  0.00    +0.119 HD
ENDBRANCH   9  12
ENDBRANCH   8   9
ENDBRANCH   7   8
TORSDOF 3
