REMARK  Name = molecules/HXLAFSUPPDYFEO-KRWDZBQOSA-N.pdb
REMARK                            x       y       z     vdW  Elec       q    Type
REMARK                         _______ _______ _______ _____ _____    ______ ____
ROOT
ATOM      1  N   LIG    1        0.524  -0.266   0.264  0.00  0.00    -0.313 NA
ATOM      2  H   LIG    1        1.017   0.617   0.341  0.00  0.00    +0.122 HD
ENDROOT
BRANCH   1   3
ATOM      3  C   LIG    1        0.890  -1.164  -0.772  0.00  0.00    +0.085 C 
BRANCH   3   4
ATOM      4  C   LIG    1        1.722  -0.532  -1.886  0.00  0.00    +0.050 C 
BRANCH   4   8
ATOM      5  C   LIG    1        5.485   0.999  -0.386  0.00  0.00    +0.161 A 
ATOM      6  C   LIG    1        4.370   1.837  -0.495  0.00  0.00    +0.049 A 
ATOM      7  C   LIG    1        3.167   1.323  -0.982  0.00  0.00    +0.007 A 
ATOM      8  C   LIG    1        3.006   0.021  -1.367  0.00  0.00    -0.042 A 
ATOM      9  C   LIG    1        4.132  -0.805  -1.251  0.00  0.00    +0.053 A 
ATOM     10  C   LIG    1        5.324  -0.307  -0.772  0.00  0.00    +0.162 A 
BRANCH   5  11
ATOM     11  O   LIG    1        6.684   1.502   0.098  0.00  0.00    -0.491 OA
ATOM     12  C   LIG    1        6.815   2.856   0.489  0.00  0.00    +0.277 C 
ENDBRANCH   5  11
BRANCH  10  13
ATOM     13  O   LIG    1        6.418  -1.166  -0.675  0.00  0.00    -0.491 OA
ATOM     14  C   LIG    1        6.290  -2.533  -1.065  0.00  0.00    +0.277 C 
ENDBRANCH  10  13
ENDBRANCH   4   8
ENDBRANCH   3   4
ENDBRANCH   1   3
BRANCH   1  15
ATOM     15  C   LIG    1       -0.074  -0.811   1.422  0.00  0.00    +0.115 C 
BRANCH  15  16
ATOM     16  C   LIG    1       -1.424  -1.386   1.188  0.00  0.00    +0.166 C 
BRANCH  16  17
ATOM     17  O   LIG    1       -1.450  -2.403   0.273  0.00  0.00    -0.387 OA
ATOM     18  H   LIG    1       -2.299  -2.455  -0.242  0.00  0.00    +0.210 HD
ENDBRANCH  16  17
BRANCH  16  19
ATOM     19  C   LIG    1       -2.502  -0.320   0.936  0.00  0.00    +0.261 C 
BRANCH  19  20
ATOM     20  O   LIG    1       -3.721  -0.976   1.041  0.00  0.00    -0.489 OA
BRANCH  20  21
ATOM     21  C   LIG    1       -4.987  -0.499   0.914  0.00  0.00    +0.121 A 
ATOM     22  C   LIG    1       -6.060  -1.373   1.073  0.00  0.00    +0.045 A 
ATOM     23  C   LIG    1       -7.376  -0.939   0.954  0.00  0.00    +0.004 A 
ATOM     24  C   LIG    1       -7.650   0.378   0.675  0.00  0.00    +0.003 A 
ATOM     25  C   LIG    1       -6.588   1.252   0.516  0.00  0.00    -0.047 A 
ATOM     26  C   LIG    1       -6.873   2.678   0.218  0.00  0.00    +0.044 C 
ATOM     27  C   LIG    1       -5.291   0.812   0.635  0.00  0.00    +0.049 A 
ENDBRANCH  20  21
ENDBRANCH  19  20
ENDBRANCH  16  19
ENDBRANCH  15  16
ENDBRANCH   1  15
TORSDOF 11
