REMARK  Name = molecules/HXWLAJVUJSVENX-HFIFKADTSA-N.pdb
REMARK                            x       y       z     vdW  Elec       q    Type
REMARK                         _______ _______ _______ _____ _____    ______ ____
ROOT
ATOM      1  C   LIG    1       -0.418   1.159   1.011  0.00  0.00    +0.122 C 
ATOM      2  C   LIG    1       -0.867  -0.238   1.271  0.00  0.00    +0.036 C 
ATOM      3  C   LIG    1        0.227  -1.245   1.397  0.00  0.00    +0.028 C 
ATOM      4  C   LIG    1        1.605  -0.775   1.144  0.00  0.00    +0.058 C 
ATOM      5  C   LIG    1        2.117  -0.019   2.365  0.00  0.00    +0.020 C 
ATOM      6  C   LIG    1        1.827   1.414   2.072  0.00  0.00    +0.021 C 
ATOM      7  N   LIG    1        1.658   0.227   0.082  0.00  0.00    -0.296 NA
ATOM      8  C   LIG    1        1.049   1.348   0.795  0.00  0.00    +0.071 C 
ENDROOT
BRANCH   2   9
ATOM      9  C   LIG    1       -1.841  -0.746   0.275  0.00  0.00    -0.043 A 
ATOM     10  C   LIG    1       -3.096  -1.095   0.715  0.00  0.00    +0.005 A 
ATOM     11  C   LIG    1       -4.095  -1.583  -0.122  0.00  0.00    +0.014 A 
ATOM     12  C   LIG    1       -3.746  -1.698  -1.449  0.00  0.00    +0.013 A 
ATOM     13  C   LIG    1       -2.499  -1.356  -1.917  0.00  0.00    +0.014 A 
ATOM     14  I   LIG    1       -5.171  -2.424  -2.816  0.00  0.00    -0.044 I 
ATOM     15  C   LIG    1       -1.549  -0.881  -1.057  0.00  0.00    +0.005 A 
ENDBRANCH   2   9
BRANCH   1  16
ATOM     16  C   LIG    1       -1.190   1.812  -0.094  0.00  0.00    +0.312 C 
ATOM     17  O   LIG    1       -0.570   2.402  -1.011  0.00  0.00    -0.250 OA
BRANCH  16  18
ATOM     18  O   LIG    1       -2.570   1.809  -0.173  0.00  0.00    -0.468 OA
ATOM     19  C   LIG    1       -3.285   2.431  -1.225  0.00  0.00    +0.280 C 
ENDBRANCH  16  18
ENDBRANCH   1  16
BRANCH   7  20
ATOM     20  C   LIG    1        2.997   0.532  -0.285  0.00  0.00    +0.087 C 
BRANCH  20  21
ATOM     21  C   LIG    1        3.454  -0.153  -1.506  0.00  0.00    +0.049 C 
BRANCH  21  22
ATOM     22  C   LIG    1        3.337  -1.634  -1.483  0.00  0.00    +0.214 C 
ATOM     23  F   LIG    1        2.067  -2.131  -1.409  0.00  0.00    -0.249 F 
ENDBRANCH  21  22
ENDBRANCH  20  21
ENDBRANCH   7  20
TORSDOF 6
