REMARK  Name = molecules/HXYVTAGFYLMHSO-UHFFFAOYSA-N.pdb
REMARK                            x       y       z     vdW  Elec       q    Type
REMARK                         _______ _______ _______ _____ _____    ______ ____
ROOT
ATOM      1  C   LIG    1        0.441  -0.970   0.634  0.00  0.00    +0.000 C 
ENDROOT
BRANCH   1   2
ATOM      2  C   LIG    1        0.258  -2.380   0.169  0.00  0.00    +0.000 C 
BRANCH   2   3
ATOM      3  C   LIG    1        0.126  -2.499  -1.320  0.00  0.00    +0.000 C 
BRANCH   3   4
ATOM      4  C   LIG    1       -1.058  -1.726  -1.855  0.00  0.00    -0.000 C 
BRANCH   4   5
ATOM      5  C   LIG    1       -2.366  -2.216  -1.259  0.00  0.00    -0.000 C 
BRANCH   5   6
ATOM      6  C   LIG    1       -3.464  -1.357  -1.880  0.00  0.00    -0.000 C 
BRANCH   6   7
ATOM      7  C   LIG    1       -4.813  -1.715  -1.395  0.00  0.00    -0.000 C 
BRANCH   7   8
ATOM      8  C   LIG    1       -5.122  -1.656   0.035  0.00  0.00    -0.000 C 
BRANCH   8   9
ATOM      9  C   LIG    1       -5.052  -0.414   0.800  0.00  0.00    -0.000 C 
BRANCH   9  10
ATOM     10  C   LIG    1       -3.788   0.327   0.942  0.00  0.00    -0.000 C 
BRANCH  10  11
ATOM     11  C   LIG    1       -4.118   1.547   1.849  0.00  0.00    -0.003 C 
ATOM     12  C   LIG    1       -2.817   2.313   1.997  0.00  0.00    +0.004 C 
ENDBRANCH  10  11
ENDBRANCH   9  10
ENDBRANCH   8   9
ENDBRANCH   7   8
ENDBRANCH   6   7
ENDBRANCH   5   6
ENDBRANCH   4   5
ENDBRANCH   3   4
ENDBRANCH   2   3
ENDBRANCH   1   2
BRANCH   1  13
ATOM     13  C   LIG    1        1.682  -0.312   0.061  0.00  0.00    +0.000 C 
BRANCH  13  14
ATOM     14  C   LIG    1        2.934  -1.022   0.426  0.00  0.00    +0.009 C 
BRANCH  14  15
ATOM     15  C   LIG    1        4.131  -0.351  -0.161  0.00  0.00    +0.096 C 
BRANCH  15  16
ATOM     16  C   LIG    1        4.359   1.029   0.290  0.00  0.00    +0.213 C 
ATOM     17  O   LIG    1        3.652   1.578   1.155  0.00  0.00    -0.276 OA
ATOM     18  N   LIG    1        5.435   1.778  -0.282  0.00  0.00    -0.313 N 
ATOM     19  H   LIG    1        6.047   1.348  -1.010  0.00  0.00    +0.149 HD
BRANCH  18  20
ATOM     20  C   LIG    1        5.705   3.135   0.122  0.00  0.00    +0.132 C 
BRANCH  20  21
ATOM     21  C   LIG    1        6.886   3.679  -0.638  0.00  0.00    +0.174 C 
BRANCH  21  22
ATOM     22  O   LIG    1        7.146   4.993  -0.244  0.00  0.00    -0.393 OA
ATOM     23  H   LIG    1        8.105   5.162  -0.409  0.00  0.00    +0.209 HD
ENDBRANCH  21  22
ENDBRANCH  20  21
ENDBRANCH  18  20
ENDBRANCH  15  16
ENDBRANCH  14  15
ENDBRANCH  13  14
ENDBRANCH   1  13
TORSDOF 17
