REMARK  Name = molecules/HYAFETHFCAUJAY-KRWDZBQOSA-N.pdb
REMARK                            x       y       z     vdW  Elec       q    Type
REMARK                         _______ _______ _______ _____ _____    ______ ____
ROOT
ATOM      1  C   LIG    1        3.208   0.457  -0.614  0.00  0.00    -0.046 A 
ATOM      2  C   LIG    1        2.584   0.308   0.612  0.00  0.00    +0.007 A 
ATOM      3  C   LIG    1        1.347  -0.246   0.681  0.00  0.00    +0.046 A 
ATOM      4  C   LIG    1        0.662  -0.681  -0.441  0.00  0.00    +0.121 A 
ATOM      5  C   LIG    1        1.304  -0.522  -1.653  0.00  0.00    +0.046 A 
ATOM      6  C   LIG    1        2.563   0.038  -1.764  0.00  0.00    +0.007 A 
ENDROOT
BRANCH   1   7
ATOM      7  C   LIG    1        4.564   1.061  -0.730  0.00  0.00    +0.059 C 
BRANCH   7   8
ATOM      8  C   LIG    1        5.573  -0.032  -0.625  0.00  0.00    +0.146 C 
ATOM      9  S   LIG    1        5.639  -0.589   1.132  0.00  0.00    -0.054 S 
ATOM     10  C   LIG    1        6.990   0.463   1.625  0.00  0.00    +0.279 C 
ATOM     11  O   LIG    1        7.474   0.576   2.757  0.00  0.00    -0.263 OA
ATOM     12  N   LIG    1        7.388   1.139   0.451  0.00  0.00    -0.246 N 
ATOM     13  H   LIG    1        7.966   2.038   0.423  0.00  0.00    +0.158 HD
ATOM     14  C   LIG    1        6.959   0.529  -0.736  0.00  0.00    +0.234 C 
ATOM     15  O   LIG    1        7.637   0.438  -1.819  0.00  0.00    -0.274 OA
ENDBRANCH   7   8
ENDBRANCH   1   7
BRANCH   4  16
ATOM     16  O   LIG    1       -0.612  -1.248  -0.337  0.00  0.00    -0.492 OA
BRANCH  16  17
ATOM     17  C   LIG    1       -1.234  -1.660  -1.516  0.00  0.00    +0.235 C 
BRANCH  17  18
ATOM     18  C   LIG    1       -2.581  -2.238  -1.203  0.00  0.00    +0.096 C 
BRANCH  18  19
ATOM     19  C   LIG    1       -3.385  -1.166  -0.538  0.00  0.00    +0.045 A 
ATOM     20  C   LIG    1       -3.344  -1.045   0.829  0.00  0.00    +0.024 A 
ATOM     21  C   LIG    1       -4.079  -0.061   1.454  0.00  0.00    +0.007 A 
ATOM     22  C   LIG    1       -4.868   0.818   0.740  0.00  0.00    -0.030 A 
ATOM     23  C   LIG    1       -4.864   0.640  -0.630  0.00  0.00    +0.114 A 
ATOM     24  N   LIG    1       -4.148  -0.316  -1.233  0.00  0.00    -0.260 NA
BRANCH  22  25
ATOM     25  C   LIG    1       -5.644   1.862   1.446  0.00  0.00    +0.033 C 
ATOM     26  C   LIG    1       -7.015   1.336   1.808  0.00  0.00    +0.009 C 
ENDBRANCH  22  25
ENDBRANCH  18  19
ENDBRANCH  17  18
ENDBRANCH  16  17
ENDBRANCH   4  16
TORSDOF 7
