REMARK  Name = molecules/HYIMSNHJOBLJNT-UHFFFAOYSA-N.pdb
REMARK                            x       y       z     vdW  Elec       q    Type
REMARK                         _______ _______ _______ _____ _____    ______ ____
ROOT
ATOM      1  C   LIG    1        0.139   1.154  -0.828  0.00  0.00    +0.065 C 
ATOM      2  C   LIG    1       -0.210  -0.232  -0.511  0.00  0.00    +0.098 C 
ATOM      3  C   LIG    1        0.924  -1.140  -0.353  0.00  0.00    +0.065 C 
ATOM      4  C   LIG    1        2.160  -0.752  -0.547  0.00  0.00    +0.016 C 
ATOM      5  C   LIG    1        3.359  -1.669  -0.415  0.00  0.00    +0.061 C 
ATOM      6  N   LIG    1        2.453   0.594  -0.908  0.00  0.00    -0.321 N 
ATOM      7  H   LIG    1        3.435   0.885  -1.070  0.00  0.00    +0.152 HD
ATOM      8  C   LIG    1        1.370   1.517  -1.038  0.00  0.00    +0.016 C 
ATOM      9  C   LIG    1        1.785   2.925  -1.399  0.00  0.00    +0.061 C 
ENDROOT
BRANCH   2  10
ATOM     10  C   LIG    1       -1.333  -0.413   0.424  0.00  0.00    -0.005 A 
ATOM     11  C   LIG    1       -1.454   0.184   1.645  0.00  0.00    +0.130 A 
ATOM     12  C   LIG    1       -2.625  -0.012   2.417  0.00  0.00    +0.033 A 
ATOM     13  C   LIG    1       -3.647  -0.788   1.975  0.00  0.00    +0.002 A 
ATOM     14  C   LIG    1       -3.554  -1.400   0.758  0.00  0.00    +0.000 A 
ATOM     15  C   LIG    1       -2.420  -1.202   0.023  0.00  0.00    +0.007 A 
BRANCH  11  16
ATOM     16  N   LIG    1       -0.449   0.999   2.196  0.00  0.00    +0.057 N 
ATOM     17  O   LIG    1       -0.779   1.913   2.964  0.00  0.00    -0.126 OA
ATOM     18  O   LIG    1        0.852   0.825   1.921  0.00  0.00    -0.126 OA
ENDBRANCH  11  16
ENDBRANCH   2  10
BRANCH   1  19
ATOM     19  C   LIG    1       -0.920   2.167  -0.942  0.00  0.00    +0.337 C 
ATOM     20  O   LIG    1       -2.132   1.878  -0.750  0.00  0.00    -0.245 OA
BRANCH  19  21
ATOM     21  O   LIG    1       -0.622   3.457  -1.260  0.00  0.00    -0.465 OA
ATOM     22  C   LIG    1       -1.588   4.484  -1.386  0.00  0.00    +0.280 C 
ENDBRANCH  19  21
ENDBRANCH   1  19
BRANCH   3  23
ATOM     23  C   LIG    1        0.705  -2.538   0.055  0.00  0.00    +0.337 C 
ATOM     24  O   LIG    1       -0.430  -3.032   0.273  0.00  0.00    -0.245 OA
BRANCH  23  25
ATOM     25  O   LIG    1        1.758  -3.389   0.221  0.00  0.00    -0.465 OA
ATOM     26  C   LIG    1        1.614  -4.742   0.612  0.00  0.00    +0.280 C 
ENDBRANCH  23  25
ENDBRANCH   3  23
TORSDOF 6
