REMARK  Name = molecules/HYPPXZBJBPSRLK-UHFFFAOYSA-N.pdb
REMARK                            x       y       z     vdW  Elec       q    Type
REMARK                         _______ _______ _______ _____ _____    ______ ____
ROOT
ATOM      1  C   LIG    1       -0.909   0.960  -0.621  0.00  0.00    +0.086 C 
ENDROOT
BRANCH   1   2
ATOM      2  N   LIG    1        0.503   0.784  -0.406  0.00  0.00    -0.302 NA
ATOM      3  C   LIG    1        0.759   0.032   0.831  0.00  0.00    +0.086 C 
ATOM      4  C   LIG    1        2.227   0.236   1.109  0.00  0.00    +0.038 C 
ATOM      5  C   LIG    1        3.140  -0.182   0.002  0.00  0.00    +0.095 C 
ATOM      6  C   LIG    1        2.566  -0.131  -1.373  0.00  0.00    +0.038 C 
ATOM      7  C   LIG    1        1.079  -0.045  -1.450  0.00  0.00    +0.086 C 
BRANCH   5   8
ATOM      8  C   LIG    1        3.690  -1.546   0.189  0.00  0.00    -0.031 A 
ATOM      9  C   LIG    1        3.167  -2.470   1.063  0.00  0.00    +0.005 A 
ATOM     10  C   LIG    1        3.702  -3.733   1.186  0.00  0.00    +0.000 A 
ATOM     11  C   LIG    1        4.780  -4.117   0.439  0.00  0.00    +0.000 A 
ATOM     12  C   LIG    1        5.320  -3.205  -0.442  0.00  0.00    +0.000 A 
ATOM     13  C   LIG    1        4.775  -1.920  -0.568  0.00  0.00    +0.005 A 
ENDBRANCH   5   8
BRANCH   5  14
ATOM     14  C   LIG    1        4.326   0.749   0.078  0.00  0.00    +0.318 C 
ATOM     15  O   LIG    1        5.498   0.352   0.278  0.00  0.00    -0.250 OA
BRANCH  14  16
ATOM     16  O   LIG    1        4.145   2.119  -0.075  0.00  0.00    -0.464 OA
BRANCH  16  17
ATOM     17  C   LIG    1        5.259   2.987   0.000  0.00  0.00    +0.229 C 
ATOM     18  C   LIG    1        4.817   4.426  -0.190  0.00  0.00    +0.048 C 
ENDBRANCH  16  17
ENDBRANCH  14  16
ENDBRANCH   5  14
ENDBRANCH   1   2
BRANCH   1  19
ATOM     19  C   LIG    1       -1.717  -0.273  -0.418  0.00  0.00    +0.046 C 
BRANCH  19  20
ATOM     20  C   LIG    1       -3.171   0.040  -0.673  0.00  0.00    +0.108 C 
BRANCH  20  21
ATOM     21  C   LIG    1       -3.692   1.129   0.173  0.00  0.00    -0.023 A 
ATOM     22  C   LIG    1       -3.240   1.434   1.436  0.00  0.00    +0.005 A 
ATOM     23  C   LIG    1       -3.750   2.454   2.190  0.00  0.00    +0.000 A 
ATOM     24  C   LIG    1       -4.768   3.235   1.689  0.00  0.00    +0.000 A 
ATOM     25  C   LIG    1       -5.254   2.966   0.424  0.00  0.00    +0.000 A 
ATOM     26  C   LIG    1       -4.710   1.916  -0.319  0.00  0.00    +0.005 A 
ENDBRANCH  20  21
BRANCH  20  27
ATOM     27  C   LIG    1       -4.048  -1.136  -0.486  0.00  0.00    -0.023 A 
ATOM     28  C   LIG    1       -4.218  -1.664   0.772  0.00  0.00    +0.005 A 
ATOM     29  C   LIG    1       -5.019  -2.756   0.991  0.00  0.00    +0.000 A 
ATOM     30  C   LIG    1       -5.680  -3.358  -0.053  0.00  0.00    +0.000 A 
ATOM     31  C   LIG    1       -5.526  -2.849  -1.320  0.00  0.00    +0.000 A 
ATOM     32  C   LIG    1       -4.705  -1.733  -1.534  0.00  0.00    +0.005 A 
ENDBRANCH  20  27
BRANCH  20  33
ATOM     33  C   LIG    1       -3.308   0.511  -2.077  0.00  0.00    +0.079 C 
ATOM     34  N   LIG    1       -3.395   0.871  -3.160  0.00  0.00    -0.195 NA
ENDBRANCH  20  33
ENDBRANCH  19  20
ENDBRANCH   1  19
TORSDOF 10
