REMARK  Name = molecules/HYYBABOKPJLUIN-UHFFFAOYSA-N.pdb
REMARK                            x       y       z     vdW  Elec       q    Type
REMARK                         _______ _______ _______ _____ _____    ______ ____
ROOT
ATOM      1  N   LIG    1       -0.435   0.065   0.270  0.00  0.00    -0.314 N 
ATOM      2  H   LIG    1       -0.521   0.198   1.337  0.00  0.00    +0.152 HD
ENDROOT
BRANCH   1   3
ATOM      3  C   LIG    1        0.863   0.069  -0.293  0.00  0.00    +0.035 A 
ATOM      4  C   LIG    1        1.973  -0.045   0.546  0.00  0.00    -0.026 A 
ATOM      5  C   LIG    1        1.697  -0.234   2.002  0.00  0.00    +0.046 C 
ATOM      6  C   LIG    1        3.268   0.004   0.109  0.00  0.00    -0.046 A 
ATOM      7  C   LIG    1        4.400  -0.125   1.065  0.00  0.00    +0.044 C 
ATOM      8  C   LIG    1        3.502   0.177  -1.240  0.00  0.00    +0.004 A 
ATOM      9  C   LIG    1        2.451   0.294  -2.093  0.00  0.00    +0.002 A 
ATOM     10  C   LIG    1        1.124   0.240  -1.619  0.00  0.00    +0.023 A 
ENDBRANCH   1   3
BRANCH   1  11
ATOM     11  C   LIG    1       -1.659  -0.140  -0.377  0.00  0.00    +0.045 A 
ATOM     12  C   LIG    1       -2.837   0.338   0.116  0.00  0.00    +0.080 A 
ATOM     13  C   LIG    1       -4.064   0.013  -0.482  0.00  0.00    +0.017 A 
ATOM     14  C   LIG    1       -4.063  -0.799  -1.584  0.00  0.00    +0.001 A 
ATOM     15  C   LIG    1       -2.909  -1.308  -2.125  0.00  0.00    +0.002 A 
ATOM     16  C   LIG    1       -1.708  -0.968  -1.505  0.00  0.00    +0.024 A 
BRANCH  12  17
ATOM     17  C   LIG    1       -2.908   1.238   1.219  0.00  0.00    +0.339 C 
ATOM     18  O   LIG    1       -1.912   1.670   1.810  0.00  0.00    -0.245 OA
BRANCH  17  19
ATOM     19  O   LIG    1       -4.141   1.684   1.695  0.00  0.00    -0.477 OA
ATOM     20  H   LIG    1       -4.732   2.155   1.015  0.00  0.00    +0.295 HD
ENDBRANCH  17  19
ENDBRANCH  12  17
ENDBRANCH   1  11
TORSDOF 4
