REMARK  Name = molecules/HZIYEEMJNBKMJH-UHFFFAOYSA-O.pdb
REMARK                            x       y       z     vdW  Elec       q    Type
REMARK                         _______ _______ _______ _____ _____    ______ ____
ROOT
ATOM      1  C   LIG    1       -0.535  -0.422   0.325  0.00  0.00    +0.062 A 
ATOM      2  C   LIG    1        0.087   0.745   0.297  0.00  0.00    +0.008 A 
ATOM      3  C   LIG    1        1.473   0.718  -0.032  0.00  0.00    +0.054 A 
ATOM      4  C   LIG    1        2.071  -0.482  -0.298  0.00  0.00    +0.122 A 
ATOM      5  N   LIG    1        1.374  -1.649  -0.248  0.00  0.00    -0.238 NA
ATOM      6  C   LIG    1        0.084  -1.652   0.058  0.00  0.00    +0.137 A 
ENDROOT
BRANCH   2   7
ATOM      7  C   LIG    1       -0.478   2.013   0.636  0.00  0.00    -0.013 A 
ATOM      8  C   LIG    1       -0.684   2.412   1.920  0.00  0.00    +0.009 A 
ATOM      9  C   LIG    1       -1.141   3.670   2.248  0.00  0.00    +0.001 A 
ATOM     10  C   LIG    1       -1.410   4.579   1.252  0.00  0.00    +0.000 A 
ATOM     11  C   LIG    1       -1.213   4.206  -0.056  0.00  0.00    +0.004 A 
ATOM     12  C   LIG    1       -0.754   2.940  -0.366  0.00  0.00    -0.043 A 
ATOM     13  C   LIG    1       -0.591   2.537  -1.801  0.00  0.00    +0.044 C 
ENDBRANCH   2   7
BRANCH   4  14
ATOM     14  N   LIG    1        3.438  -0.597  -0.636  0.00  0.00    -0.319 N 
ATOM     15  C   LIG    1        4.408   0.370  -0.156  0.00  0.00    +0.088 C 
ATOM     16  C   LIG    1        5.388  -0.431   0.691  0.00  0.00    -0.053 C 
ATOM     17  N   LIG    1        5.954  -1.511  -0.108  0.00  0.00    +0.396 N 
ATOM     18  C   LIG    1        5.785  -2.786   0.556  0.00  0.00    -0.088 C 
ATOM     19  C   LIG    1        5.454  -1.545  -1.447  0.00  0.00    -0.053 C 
ATOM     20  C   LIG    1        3.944  -1.657  -1.489  0.00  0.00    +0.088 C 
BRANCH  17  21
ATOM     21  C   LIG    1        7.400  -1.266  -0.162  0.00  0.00    +0.102 C 
BRANCH  21  22
ATOM     22  O   LIG    1        7.512   0.135  -0.246  0.00  0.00    -0.305 OA
BRANCH  22  23
ATOM     23  P   LIG    1        9.073   0.687  -0.287  0.00  0.00    +0.471 P 
ATOM     24  O   LIG    1        9.182   1.901   0.643  0.00  0.00    -0.228 OA
BRANCH  23  25
ATOM     25  O   LIG    1       10.199  -0.470   0.185  0.00  0.00    -0.303 OA
ATOM     26  H   LIG    1        9.949  -0.757   1.112  0.00  0.00    +0.222 HD
ENDBRANCH  23  25
BRANCH  23  27
ATOM     27  O   LIG    1        9.426   1.264  -1.843  0.00  0.00    -0.303 OA
ATOM     28  H   LIG    1        9.825   0.549  -2.374  0.00  0.00    +0.222 HD
ENDBRANCH  23  27
ENDBRANCH  22  23
ENDBRANCH  21  22
ENDBRANCH  17  21
ENDBRANCH   4  14
BRANCH   1  30
ATOM     29  C   LIG    1       -2.672  -1.131  -0.597  0.00  0.00    +0.230 C 
ATOM     30  N   LIG    1       -1.960  -0.576   0.491  0.00  0.00    -0.272 N 
ATOM     31  C   LIG    1       -2.594  -0.168   1.694  0.00  0.00    +0.138 C 
ATOM     32  O   LIG    1       -1.930  -1.240  -1.687  0.00  0.00    -0.274 OA
BRANCH  29  33
ATOM     33  C   LIG    1       -4.003  -1.593  -0.802  0.00  0.00    +0.067 C 
ATOM     34  C   LIG    1       -4.131  -2.949  -0.068  0.00  0.00    +0.025 C 
ATOM     35  C   LIG    1       -4.205  -2.034  -2.293  0.00  0.00    +0.025 C 
BRANCH  33  40
ATOM     36  C   LIG    1       -7.370  -0.497   0.421  0.00  0.00    +0.056 A 
ATOM     37  C   LIG    1       -7.334   0.860   0.204  0.00  0.00    +0.024 A 
ATOM     38  C   LIG    1       -6.175   1.393  -0.351  0.00  0.00    +0.056 A 
ATOM     39  C   LIG    1       -5.113   0.591  -0.669  0.00  0.00    +0.017 A 
ATOM     40  C   LIG    1       -5.136  -0.758  -0.460  0.00  0.00    -0.032 A 
ATOM     41  C   LIG    1       -6.297  -1.277   0.094  0.00  0.00    +0.017 A 
BRANCH  36  42
ATOM     42  C   LIG    1       -8.630  -1.080   0.996  0.00  0.00    +0.417 C 
ATOM     43  F   LIG    1       -8.365  -1.948   2.014  0.00  0.00    -0.166 F 
ATOM     44  F   LIG    1       -9.528  -0.109   1.313  0.00  0.00    -0.166 F 
ATOM     45  F   LIG    1       -9.206  -1.825  -0.045  0.00  0.00    -0.166 F 
ENDBRANCH  36  42
BRANCH  38  46
ATOM     46  C   LIG    1       -6.184   2.877  -0.545  0.00  0.00    +0.417 C 
ATOM     47  F   LIG    1       -6.015   3.505   0.670  0.00  0.00    -0.166 F 
ATOM     48  F   LIG    1       -7.387   3.288  -1.062  0.00  0.00    -0.166 F 
ATOM     49  F   LIG    1       -5.160   3.146  -1.440  0.00  0.00    -0.166 F 
ENDBRANCH  38  46
ENDBRANCH  33  40
ENDBRANCH  29  33
ENDBRANCH   1  30
TORSDOF 12
