REMARK  Name = molecules/HZQDCMWJEBCWBR-UUOKFMHZSA-N.pdb
REMARK                            x       y       z     vdW  Elec       q    Type
REMARK                         _______ _______ _______ _____ _____    ______ ____
ROOT
ATOM      1  C2* LIG    1       -0.724   0.305   1.627  0.00  0.00    +0.195 C 
ATOM      2  C3* LIG    1       -2.230   0.011   1.584  0.00  0.00    +0.178 C 
ATOM      3  C4* LIG    1       -2.428  -0.285   0.121  0.00  0.00    +0.177 C 
ATOM      4  O4* LIG    1       -1.200  -0.320  -0.482  0.00  0.00    -0.346 OA
ATOM      5  C1* LIG    1       -0.261  -0.632   0.503  0.00  0.00    +0.255 C 
ENDROOT
BRANCH   5   6
ATOM      6  N   LIG    1        1.078  -0.364   0.092  0.00  0.00    -0.272 N 
ATOM      7  C   LIG    1        2.135  -0.322   0.921  0.00  0.00    +0.205 A 
ATOM      8  N   LIG    1        3.252  -0.047   0.227  0.00  0.00    -0.227 NA
ATOM      9  C   LIG    1        2.930   0.094  -1.069  0.00  0.00    +0.186 A 
ATOM     10  C   LIG    1        1.571  -0.108  -1.132  0.00  0.00    +0.227 A 
BRANCH   9  11
ATOM     11  C   LIG    1        3.857   0.397  -2.157  0.00  0.00    +0.265 C 
ATOM     12  N   LIG    1        5.242   0.579  -1.933  0.00  0.00    -0.324 N 
ATOM     13  H   LIG    1        5.595   1.534  -1.718  0.00  0.00    +0.145 HD
ATOM     14  H   LIG    1        5.941  -0.192  -1.969  0.00  0.00    +0.145 HD
ATOM     15  O   LIG    1        3.394   0.496  -3.316  0.00  0.00    -0.269 OA
ENDBRANCH   9  11
BRANCH  10  16
ATOM     16  O   LIG    1        0.824  -0.052  -2.294  0.00  0.00    -0.492 OA
ATOM     17  H   LIG    1        0.431   0.817  -2.626  0.00  0.00    +0.294 HD
ENDBRANCH  10  16
ENDBRANCH   5   6
BRANCH   1  18
ATOM     18  O2* LIG    1       -0.166  -0.019   2.838  0.00  0.00    -0.385 OA
ATOM     19  H2* LIG    1        0.257   0.795   3.217  0.00  0.00    +0.210 HD
ENDBRANCH   1  18
BRANCH   2  20
ATOM     20  O3* LIG    1       -2.441  -1.172   2.291  0.00  0.00    -0.386 OA
ATOM     21  H3* LIG    1       -2.880  -1.864   1.713  0.00  0.00    +0.210 HD
ENDBRANCH   2  20
BRANCH   3  22
ATOM     22  C5* LIG    1       -3.324   0.809  -0.463  0.00  0.00    +0.190 C 
BRANCH  22  23
ATOM     23  O5* LIG    1       -4.561   0.824   0.164  0.00  0.00    -0.392 OA
ATOM     24  H5* LIG    1       -5.313   0.677  -0.475  0.00  0.00    +0.210 HD
ENDBRANCH  22  23
ENDBRANCH   3  22
TORSDOF 7
