REMARK  Name = molecules/IAIWVQXQOWNYOU-FPYGCLRLSA-N.pdb
REMARK                            x       y       z     vdW  Elec       q    Type
REMARK                         _______ _______ _______ _____ _____    ______ ____
ROOT
ATOM      1  C   LIG    1        0.301  -0.358   0.348  0.00  0.00    +0.176 C 
ATOM      2  N   LIG    1        1.318   0.372  -0.037  0.00  0.00    -0.183 NA
ENDROOT
BRANCH   2   3
ATOM      3  N   LIG    1        2.552   0.294   0.447  0.00  0.00    -0.191 N 
ATOM      4  C   LIG    1        3.808   0.216   0.939  0.00  0.00    +0.317 C 
ATOM      5  N   LIG    1        4.107   0.843   2.221  0.00  0.00    -0.312 N 
ATOM      6  H   LIG    1        4.709   0.362   2.907  0.00  0.00    +0.147 HD
ATOM      7  H   LIG    1        3.715   1.774   2.447  0.00  0.00    +0.147 HD
ATOM      8  O   LIG    1        4.832  -0.351   0.432  0.00  0.00    -0.251 OA
ATOM      9  H   LIG    1        2.899  -0.425  -0.673  0.00  0.00    +0.179 HD
ENDBRANCH   2   3
BRANCH   1  12
ATOM     10  C   LIG    1       -3.104  -0.522  -0.617  0.00  0.00    +0.280 A 
ATOM     11  O   LIG    1       -2.072  -0.867   0.064  0.00  0.00    -0.433 OA
ATOM     12  C   LIG    1       -1.009  -0.177  -0.263  0.00  0.00    +0.150 A 
ATOM     13  C   LIG    1       -1.353   0.726  -1.265  0.00  0.00    +0.053 A 
ATOM     14  C   LIG    1       -2.691   0.495  -1.480  0.00  0.00    +0.076 A 
BRANCH  10  15
ATOM     15  N   LIG    1       -4.431  -1.063  -0.524  0.00  0.00    +0.093 N 
ATOM     16  O   LIG    1       -4.726  -2.058   0.356  0.00  0.00    -0.123 OA
ATOM     17  O   LIG    1       -5.321  -0.609  -1.262  0.00  0.00    -0.123 OA
ENDBRANCH  10  15
ENDBRANCH   1  12
TORSDOF 3
