REMARK  Name = molecules/IAKHMKGGTNLKSZ-INIZCTEOSA-N.pdb
REMARK                            x       y       z     vdW  Elec       q    Type
REMARK                         _______ _______ _______ _____ _____    ______ ____
ROOT
ATOM      1  C   LIG    1        1.623   1.057  -0.212  0.00  0.00    +0.170 A 
ATOM      2  C   LIG    1        0.967  -0.053   0.194  0.00  0.00    +0.017 A 
ATOM      3  C   LIG    1        1.588  -1.280   0.487  0.00  0.00    -0.036 A 
ATOM      4  C   LIG    1        0.851  -2.525   0.881  0.00  0.00    +0.038 C 
ATOM      5  C   LIG    1       -0.210  -2.706  -0.218  0.00  0.00    +0.031 C 
ATOM      6  C   LIG    1       -1.558  -2.136   0.170  0.00  0.00    +0.101 C 
ATOM      7  C   LIG    1       -1.538  -0.659   0.142  0.00  0.00    -0.030 C 
ATOM      8  C   LIG    1       -2.837  -0.304  -0.131  0.00  0.00    +0.052 C 
ATOM      9  C   LIG    1       -3.388   0.958  -0.046  0.00  0.00    +0.195 C 
ATOM     10  C   LIG    1       -2.777   2.178   0.263  0.00  0.00    +0.188 C 
ATOM     11  C   LIG    1       -1.484   2.396   0.742  0.00  0.00    +0.016 C 
ATOM     12  C   LIG    1       -0.438   1.515   0.818  0.00  0.00    -0.010 C 
ATOM     13  O   LIG    1       -4.641   1.053  -0.280  0.00  0.00    -0.289 OA
ATOM     14  C   LIG    1        2.925  -1.366   0.367  0.00  0.00    +0.053 A 
ATOM     15  C   LIG    1        3.653  -0.248  -0.042  0.00  0.00    +0.165 A 
ATOM     16  C   LIG    1       -0.457   0.217   0.360  0.00  0.00    +0.058 C 
ATOM     17  C   LIG    1        2.996   0.954  -0.328  0.00  0.00    +0.204 A 
ENDROOT
BRANCH   6  18
ATOM     18  N   LIG    1       -2.611  -2.694  -0.636  0.00  0.00    -0.309 N 
ATOM     19  C   LIG    1       -3.663  -3.491  -0.118  0.00  0.00    +0.210 C 
ATOM     20  O   LIG    1       -3.675  -3.723   1.121  0.00  0.00    -0.276 OA
ATOM     21  C   LIG    1       -4.738  -4.062  -0.940  0.00  0.00    +0.109 C 
ATOM     22  H   LIG    1       -2.605  -2.506  -1.661  0.00  0.00    +0.149 HD
ENDBRANCH   6  18
BRANCH   1  23
ATOM     23  O   LIG    1        0.966   2.226  -0.509  0.00  0.00    -0.491 OA
ATOM     24  C   LIG    1        0.530   2.563  -1.819  0.00  0.00    +0.277 C 
ENDBRANCH   1  23
BRANCH  10  25
ATOM     25  O   LIG    1       -3.554   3.313   0.068  0.00  0.00    -0.361 OA
ATOM     26  C   LIG    1       -2.999   4.569   0.359  0.00  0.00    +0.196 C 
ENDBRANCH  10  25
BRANCH  15  27
ATOM     27  O   LIG    1        5.010  -0.372  -0.150  0.00  0.00    -0.491 OA
ATOM     28  C   LIG    1        5.748  -1.524   0.113  0.00  0.00    +0.277 C 
ENDBRANCH  15  27
BRANCH  17  29
ATOM     29  O   LIG    1        3.789   2.009  -0.727  0.00  0.00    -0.488 OA
ATOM     30  C   LIG    1        4.371   2.951   0.131  0.00  0.00    +0.277 C 
ENDBRANCH  17  29
TORSDOF 5
