REMARK  Name = molecules/IAXUQWSLRKIRFR-SAABIXHNSA-N.pdb
REMARK                            x       y       z     vdW  Elec       q    Type
REMARK                         _______ _______ _______ _____ _____    ______ ____
ROOT
ATOM      1  O   LIG    1       -0.856  -0.294   1.306  0.00  0.00    -0.425 OA
ENDROOT
BRANCH   1   7
ATOM      2  C   LIG    1       -2.773  -1.649   1.676  0.00  0.00    +0.101 A 
ATOM      3  C   LIG    1       -3.541  -2.532   2.405  0.00  0.00    +0.018 A 
ATOM      4  C   LIG    1       -3.056  -2.964   3.635  0.00  0.00    +0.001 A 
ATOM      5  C   LIG    1       -1.839  -2.516   4.105  0.00  0.00    +0.004 A 
ATOM      6  C   LIG    1       -1.104  -1.628   3.334  0.00  0.00    +0.047 A 
ATOM      7  C   LIG    1       -1.556  -1.180   2.110  0.00  0.00    +0.146 A 
BRANCH   2   8
ATOM      8  C   LIG    1       -3.267  -1.176   0.367  0.00  0.00    +0.343 C 
ATOM      9  O   LIG    1       -2.597  -0.372  -0.323  0.00  0.00    -0.245 OA
BRANCH   8  10
ATOM     10  O   LIG    1       -4.482  -1.605  -0.136  0.00  0.00    -0.456 OA
BRANCH  10  11
ATOM     11  C   LIG    1       -5.041  -1.214  -1.370  0.00  0.00    +0.268 C 
BRANCH  11  12
ATOM     12  C   LIG    1       -5.270   0.250  -1.468  0.00  0.00    -0.010 A 
ATOM     13  C   LIG    1       -6.368   0.855  -0.857  0.00  0.00    +0.007 A 
ATOM     14  C   LIG    1       -6.570   2.215  -0.962  0.00  0.00    +0.000 A 
ATOM     15  C   LIG    1       -5.715   3.037  -1.663  0.00  0.00    +0.000 A 
ATOM     16  C   LIG    1       -4.624   2.454  -2.273  0.00  0.00    +0.000 A 
ATOM     17  C   LIG    1       -4.423   1.082  -2.166  0.00  0.00    +0.007 A 
ENDBRANCH  11  12
ENDBRANCH  10  11
ENDBRANCH   8  10
ENDBRANCH   2   8
ENDBRANCH   1   7
BRANCH   1  18
ATOM     18  C   LIG    1        0.059  -0.714   0.350  0.00  0.00    +0.315 C 
ATOM     19  O   LIG    1        0.220  -1.958   0.252  0.00  0.00    -0.250 OA
BRANCH  18  20
ATOM     20  C   LIG    1        0.814   0.210  -0.515  0.00  0.00    +0.098 C 
ATOM     21  C   LIG    1        1.677   1.165   0.292  0.00  0.00    +0.015 C 
ATOM     22  C   LIG    1        2.834   0.402   0.878  0.00  0.00    +0.007 C 
ATOM     23  C   LIG    1        3.780  -0.108  -0.181  0.00  0.00    +0.023 C 
ATOM     24  C   LIG    1        3.121   0.011  -1.516  0.00  0.00    +0.007 C 
ATOM     25  C   LIG    1        1.734  -0.598  -1.399  0.00  0.00    +0.015 C 
BRANCH  23  26
ATOM     26  C   LIG    1        5.090   0.649  -0.110  0.00  0.00    +0.199 C 
BRANCH  26  27
ATOM     27  N   LIG    1        6.025   0.190  -1.111  0.00  0.00    -0.276 N 
ATOM     28  H   LIG    1        5.802  -0.568  -1.786  0.00  0.00    +0.258 HD
BRANCH  27  29
ATOM     29  C   LIG    1        7.301   0.798  -1.174  0.00  0.00    +0.376 C 
ATOM     30  N   LIG    1        7.425   2.205  -1.298  0.00  0.00    -0.289 N 
ATOM     31  H   LIG    1        6.640   2.849  -1.081  0.00  0.00    +0.255 HD
ATOM     32  H   LIG    1        8.320   2.638  -1.615  0.00  0.00    +0.255 HD
BRANCH  29  33
ATOM     33  N   LIG    1        8.354   0.078  -1.120  0.00  0.00    -0.130 NA
ATOM     34  H   LIG    1        8.358  -0.957  -1.030  0.00  0.00    +0.306 HD
ENDBRANCH  29  33
ENDBRANCH  27  29
ENDBRANCH  26  27
ENDBRANCH  23  26
ENDBRANCH  18  20
ENDBRANCH   1  18
TORSDOF 11
