REMARK  Name = molecules/IBYCYJFUEJQSMK-QGZVFWFLSA-N.pdb
REMARK                            x       y       z     vdW  Elec       q    Type
REMARK                         _______ _______ _______ _____ _____    ______ ____
ROOT
ATOM      1  C   LIG    1        1.725  -0.659  -0.282  0.00  0.00    +0.284 C 
ATOM      2  O   LIG    1        0.593  -0.900   0.459  0.00  0.00    -0.450 OA
ATOM      3  C   LIG    1       -0.519  -0.075   0.625  0.00  0.00    +0.163 C 
ATOM      4  C   LIG    1       -0.719   0.271   2.098  0.00  0.00    +0.066 C 
ATOM      5  C   LIG    1       -0.325   1.220  -0.089  0.00  0.00    +0.027 A 
ATOM      6  C   LIG    1       -1.332   2.202  -0.011  0.00  0.00    +0.030 A 
ATOM      7  C   LIG    1       -1.159   3.390  -0.678  0.00  0.00    +0.041 A 
ATOM      8 CL   LIG    1       -2.362   4.628  -0.618  0.00  0.00    -0.084 Cl
ATOM      9  C   LIG    1       -0.003   3.612  -1.417  0.00  0.00    +0.022 A 
ATOM     10  C   LIG    1        0.979   2.651  -1.491  0.00  0.00    +0.030 A 
ATOM     11  C   LIG    1        0.814   1.429  -0.812  0.00  0.00    +0.076 A 
ATOM     12  N   LIG    1        1.837   0.462  -0.894  0.00  0.00    -0.199 NA
ENDROOT
BRANCH   3  13
ATOM     13  C   LIG    1       -1.689  -0.810   0.095  0.00  0.00    +0.000 A 
ATOM     14  C   LIG    1       -2.727  -1.129   0.922  0.00  0.00    +0.008 A 
ATOM     15  C   LIG    1       -3.832  -1.817   0.427  0.00  0.00    +0.000 A 
ATOM     16  C   LIG    1       -3.846  -2.166  -0.920  0.00  0.00    +0.000 A 
ATOM     17  C   LIG    1       -2.819  -1.856  -1.760  0.00  0.00    +0.000 A 
ATOM     18  C   LIG    1       -1.742  -1.171  -1.220  0.00  0.00    +0.008 A 
ENDBRANCH   3  13
BRANCH   1  19
ATOM     19  N   LIG    1        2.777  -1.649  -0.372  0.00  0.00    -0.299 N 
ATOM     20  H   LIG    1        2.544  -2.622  -0.637  0.00  0.00    +0.150 HD
BRANCH  19  22
ATOM     21  C   LIG    1        4.168  -0.867   1.407  0.00  0.00    +0.024 C 
ATOM     22  C   LIG    1        4.113  -1.194  -0.076  0.00  0.00    +0.102 C 
ENDBRANCH  19  22
ENDBRANCH   1  19
TORSDOF 3
