REMARK  Name = molecules/ICKFFNBDFNZJSX-UHFFFAOYSA-N.pdb
REMARK                            x       y       z     vdW  Elec       q    Type
REMARK                         _______ _______ _______ _____ _____    ______ ____
ROOT
ATOM      1  N   LIG    1        0.019  -1.098   0.580  0.00  0.00    -0.310 N 
ENDROOT
BRANCH   1   2
ATOM      2  C   LIG    1       -0.390  -2.246  -0.143  0.00  0.00    +0.122 A 
ATOM      3  N   LIG    1       -1.705  -2.383  -0.518  0.00  0.00    -0.240 NA
ATOM      4  C   LIG    1       -2.168  -3.437  -1.201  0.00  0.00    +0.113 A 
ATOM      5  C   LIG    1       -1.349  -4.474  -1.583  0.00  0.00    +0.020 A 
ATOM      6  C   LIG    1       -0.024  -4.395  -1.238  0.00  0.00    +0.005 A 
ATOM      7  C   LIG    1        0.414  -3.288  -0.532  0.00  0.00    +0.043 A 
ENDBRANCH   1   2
BRANCH   1   8
ATOM      8  C   LIG    1        1.374  -0.923   0.999  0.00  0.00    +0.141 C 
BRANCH   8   9
ATOM      9  C   LIG    1        2.073   0.239   0.401  0.00  0.00    -0.030 A 
ATOM     10  C   LIG    1        2.664   1.158   1.228  0.00  0.00    +0.006 A 
ATOM     11  C   LIG    1        3.341   2.263   0.765  0.00  0.00    +0.020 A 
ATOM     12  C   LIG    1        3.447   2.485  -0.580  0.00  0.00    +0.041 A 
ATOM     13 CL   LIG    1        4.313   3.901  -1.214  0.00  0.00    -0.084 Cl
ATOM     14  C   LIG    1        2.865   1.583  -1.443  0.00  0.00    +0.020 A 
ATOM     15  C   LIG    1        2.183   0.470  -0.959  0.00  0.00    +0.006 A 
ENDBRANCH   8   9
ENDBRANCH   1   8
BRANCH   1  16
ATOM     16  C   LIG    1       -1.002  -0.105   0.870  0.00  0.00    +0.122 C 
BRANCH  16  17
ATOM     17  C   LIG    1       -0.861   1.183   0.139  0.00  0.00    +0.102 C 
BRANCH  17  18
ATOM     18  N   LIG    1       -2.006   2.022   0.555  0.00  0.00    -0.307 NA
ATOM     19  C   LIG    1       -3.185   1.377  -0.004  0.00  0.00    +0.104 C 
ATOM     20  C   LIG    1       -1.823   3.325  -0.092  0.00  0.00    +0.104 C 
ENDBRANCH  17  18
ENDBRANCH  16  17
ENDBRANCH   1  16
TORSDOF 6
