REMARK  Name = molecules/ICMWWNHDUZJFDW-DHODBPELSA-N.pdb
REMARK                            x       y       z     vdW  Elec       q    Type
REMARK                         _______ _______ _______ _____ _____    ______ ____
ROOT
ATOM      1  C   LIG    1       -1.980   1.222   0.802  0.00  0.00    +0.012 C 
ATOM      2  C   LIG    1       -1.738   0.172  -0.246  0.00  0.00    -0.022 C 
ATOM      3  C   LIG    1       -2.422  -1.149   0.096  0.00  0.00    +0.003 C 
ATOM      4  C   LIG    1       -1.585  -2.039   0.936  0.00  0.00    +0.005 C 
ATOM      5  C   LIG    1       -0.451  -1.393   1.637  0.00  0.00    +0.004 C 
ATOM      6  C   LIG    1        0.360  -0.451   0.838  0.00  0.00    -0.004 C 
ATOM      7  C   LIG    1        1.725  -0.891   0.487  0.00  0.00    +0.001 C 
ATOM      8  C   LIG    1        2.587  -1.369   1.585  0.00  0.00    +0.007 C 
ATOM      9  C   LIG    1        3.969  -1.319   0.913  0.00  0.00    +0.035 C 
ATOM     10  C   LIG    1        3.878  -0.169  -0.086  0.00  0.00    +0.069 C 
ATOM     11  C   LIG    1        4.307  -0.596  -1.461  0.00  0.00    +0.042 C 
ATOM     12  C   LIG    1        2.486   0.347  -0.009  0.00  0.00    -0.000 C 
ATOM     13  C   LIG    1        2.366   1.491   0.963  0.00  0.00    +0.014 C 
ATOM     14  C   LIG    1        1.880   0.735  -1.312  0.00  0.00    +0.010 C 
ATOM     15  C   LIG    1        0.424   1.013  -1.187  0.00  0.00    +0.005 C 
ATOM     16  C   LIG    1       -3.801  -0.907   0.640  0.00  0.00    +0.083 C 
ATOM     17  C   LIG    1       -4.510   0.069  -0.215  0.00  0.00    +0.162 C 
ATOM     18  O   LIG    1       -5.761   0.162  -0.135  0.00  0.00    -0.292 OA
ATOM     19  C   LIG    1       -3.831   0.943  -1.160  0.00  0.00    +0.029 C 
ATOM     20  C   LIG    1       -4.458   1.979  -1.697  0.00  0.00    +0.190 C 
ATOM     21  C   LIG    1       -0.307  -0.101  -0.493  0.00  0.00    -0.001 C 
ATOM     22  C   LIG    1       -2.409   0.668  -1.528  0.00  0.00    +0.049 C 
ENDROOT
BRANCH  10  23
ATOM     23  O   LIG    1        4.763   0.809   0.362  0.00  0.00    -0.388 OA
ATOM     24  H   LIG    1        4.805   0.758   1.366  0.00  0.00    +0.210 HD
ENDBRANCH  10  23
BRANCH  20  25
ATOM     25  O   LIG    1       -5.766   2.278  -1.394  0.00  0.00    -0.514 OA
ATOM     26  H   LIG    1       -6.029   2.529  -0.446  0.00  0.00    +0.291 HD
ENDBRANCH  20  25
TORSDOF 2
