REMARK  Name = molecules/ICTXHFFSOAJUMG-SLHNCBLASA-N.pdb
REMARK                            x       y       z     vdW  Elec       q    Type
REMARK                         _______ _______ _______ _____ _____    ______ ____
ROOT
ATOM      1  C   LIG    1       -1.887  -1.738  -0.277  0.00  0.00    +0.015 C 
ATOM      2  C   LIG    1       -2.018  -0.233  -0.308  0.00  0.00    +0.011 C 
ATOM      3  C   LIG    1       -1.371   0.392   0.936  0.00  0.00    +0.002 C 
ATOM      4  C   LIG    1       -2.292   0.004   2.009  0.00  0.00    +0.008 C 
ATOM      5  C   LIG    1       -3.651   0.351   1.379  0.00  0.00    +0.049 C 
ATOM      6  C   LIG    1       -0.008  -0.169   0.946  0.00  0.00    -0.004 C 
ATOM      7  C   LIG    1        0.759  -0.053   2.210  0.00  0.00    +0.005 C 
ATOM      8  C   LIG    1        2.030  -0.896   2.027  0.00  0.00    +0.009 C 
ATOM      9  C   LIG    1        2.692  -0.542   0.731  0.00  0.00    -0.010 C 
ATOM     10  C   LIG    1        3.976  -1.239   0.463  0.00  0.00    +0.082 C 
ATOM     11  C   LIG    1        4.863  -0.405  -0.391  0.00  0.00    +0.134 C 
ATOM     12  O   LIG    1        6.034  -0.280  -0.129  0.00  0.00    -0.297 OA
ATOM     13  C   LIG    1        4.231   0.250  -1.557  0.00  0.00    +0.075 C 
ATOM     14  C   LIG    1        3.018   1.006  -1.115  0.00  0.00    +0.016 C 
ATOM     15  C   LIG    1        2.179   0.322  -0.118  0.00  0.00    -0.013 C 
ATOM     16  C   LIG    1        0.731   0.662  -0.117  0.00  0.00    -0.000 C 
ATOM     17  C   LIG    1        0.091   0.552  -1.460  0.00  0.00    +0.005 C 
ATOM     18  C   LIG    1       -3.446   0.123  -0.122  0.00  0.00    +0.132 C 
ATOM     19  C   LIG    1       -1.356   0.302  -1.508  0.00  0.00    +0.011 C 
ENDROOT
BRANCH  18  20
ATOM     20  O   LIG    1       -4.307  -0.945  -0.466  0.00  0.00    -0.376 OA
ATOM     21  H   LIG    1       -5.133  -0.516  -0.802  0.00  0.00    +0.211 HD
ENDBRANCH  18  20
BRANCH  18  22
ATOM     22  C   LIG    1       -3.803   1.324  -0.885  0.00  0.00    -0.070 C 
ATOM     23  C   LIG    1       -4.116   2.321  -1.513  0.00  0.00    +0.007 C 
ENDBRANCH  18  22
TORSDOF 2
