REMARK  Name = molecules/IDCHQQSVJAAUQQ-UHFFFAOYSA-N.pdb
REMARK                            x       y       z     vdW  Elec       q    Type
REMARK                         _______ _______ _______ _____ _____    ______ ____
ROOT
ATOM      1  C   LIG    1        0.434  -0.950   0.804  0.00  0.00    +0.229 A 
ATOM      2  O   LIG    1        0.869  -2.172   0.824  0.00  0.00    -0.338 OA
ATOM      3  N   LIG    1        2.162  -2.171   0.552  0.00  0.00    -0.056 NA
ATOM      4  C   LIG    1        2.566  -0.913   0.352  0.00  0.00    +0.202 A 
ATOM      5  N   LIG    1        1.468  -0.158   0.515  0.00  0.00    -0.191 NA
ENDROOT
BRANCH   4   6
ATOM      6  C   LIG    1        3.921  -0.417   0.016  0.00  0.00    +0.022 A 
ATOM      7  C   LIG    1        4.947  -1.310  -0.127  0.00  0.00    +0.012 A 
ATOM      8  C   LIG    1        6.215  -0.869  -0.443  0.00  0.00    +0.001 A 
ATOM      9  C   LIG    1        6.436   0.491  -0.615  0.00  0.00    +0.000 A 
ATOM     10  C   LIG    1        5.403   1.385  -0.471  0.00  0.00    +0.001 A 
ATOM     11  C   LIG    1        4.154   0.924  -0.157  0.00  0.00    +0.012 A 
ENDBRANCH   4   6
BRANCH   1  12
ATOM     12  C   LIG    1       -0.962  -0.423   1.048  0.00  0.00    +0.114 C 
BRANCH  12  13
ATOM     13  C   LIG    1       -1.619  -0.399  -0.311  0.00  0.00    +0.094 C 
BRANCH  13  14
ATOM     14  N   LIG    1       -2.920   0.099  -0.274  0.00  0.00    -0.302 NA
BRANCH  14  15
ATOM     15  C   LIG    1       -3.988  -0.566   0.305  0.00  0.00    +0.081 C 
ATOM     16  C   LIG    1       -3.908  -0.614   1.807  0.00  0.00    +0.020 C 
ENDBRANCH  14  15
BRANCH  14  17
ATOM     17  C   LIG    1       -3.158   1.076  -1.277  0.00  0.00    +0.081 C 
ATOM     18  C   LIG    1       -4.548   1.648  -1.287  0.00  0.00    +0.020 C 
ENDBRANCH  14  17
ENDBRANCH  13  14
ENDBRANCH  12  13
ENDBRANCH   1  12
TORSDOF 6
