REMARK  Name = molecules/IDLFZVILOHSSID-OVLDLUHVSA-N.pdb
REMARK                            x       y       z     vdW  Elec       q    Type
REMARK                         _______ _______ _______ _____ _____    ______ ____
ROOT
ATOM      1  N   GLY A  1       33.272   5.190   0.000  0.00  0.00    -0.136 NA
ATOM      2  CA  GLY A  1       32.157   4.186   0.000  0.00  0.00    +0.144 C 
ENDROOT
BRANCH   2   3
ATOM      3  C   GLY A  1       33.161   3.071   0.000  0.00  0.00    +0.225 C 
ATOM      4  O   GLY A  1       34.164   1.957   0.000  0.00  0.00    -0.233 OA
ENDBRANCH   2   3
TORSDOF 1
REMARK  Name = molecules/IDLFZVILOHSSID-OVLDLUHVSA-N.pdb
REMARK                            x       y       z     vdW  Elec       q    Type
REMARK                         _______ _______ _______ _____ _____    ______ ____
ROOT
ATOM      1  C   LIG    1       30.912   8.111   0.000  0.00  0.00    -0.024 A 
ATOM      2  C   LIG    1       32.338   7.648   0.000  0.00  0.00    +0.012 A 
ATOM      3  C   LIG    1       33.453   8.651   0.000  0.00  0.00    +0.051 A 
ATOM      4  C   LIG    1       33.141  10.118   0.000  0.00  0.00    +0.179 A 
ATOM      5  O   LIG    1       34.256  11.122   0.000  0.00  0.00    -0.288 OA
ATOM      6  C   LIG    1       31.715  10.582   0.000  0.00  0.00    +0.051 A 
ATOM      7  C   LIG    1       30.600   9.578   0.000  0.00  0.00    +0.012 A 
ENDROOT
BRANCH   1  10
ATOM      8  N   LIG    1       29.686   4.989   0.000  0.00  0.00    -0.138 NA
ATOM      9  C   LIG    1       28.682   6.104   0.000  0.00  0.00    +0.118 C 
ATOM     10  C   LIG    1       29.797   7.107   0.000  0.00  0.00    +0.026 C 
ENDBRANCH   1  10
TORSDOF 1
REMARK  Name = molecules/IDLFZVILOHSSID-OVLDLUHVSA-N.pdb
REMARK                            x       y       z     vdW  Elec       q    Type
REMARK                         _______ _______ _______ _____ _____    ______ ____
ROOT
ATOM      1  N   LIG    1       26.141   5.564   0.000  0.00  0.00    -0.279 NA
ATOM      2  C   LIG    1       27.567   5.100   0.000  0.00  0.00    +0.151 C 
ATOM      3  C   LIG    1       25.026   4.560   0.000  0.00  0.00    +0.116 C 
ENDROOT
BRANCH   3   4
ATOM      4  C   LIG    1       26.030   3.445   0.000  0.00  0.00    +0.234 C 
ATOM      5  O   LIG    1       27.034   2.330   0.000  0.00  0.00    -0.222 OA
ENDBRANCH   3   4
TORSDOF 1
REMARK  Name = molecules/IDLFZVILOHSSID-OVLDLUHVSA-N.pdb
REMARK                            x       y       z     vdW  Elec       q    Type
REMARK                         _______ _______ _______ _____ _____    ______ ____
ROOT
ATOM      1  N   LIG    1       22.555   5.363   0.000  0.00  0.00    -0.138 NA
ATOM      2  C   LIG    1       21.552   6.477   0.000  0.00  0.00    +0.114 C 
ATOM      3  C   LIG    1       22.666   7.481   0.000  0.00  0.00    +0.002 C 
ENDROOT
BRANCH   3   4
ATOM      4  C   LIG    1       23.781   8.485   0.000  0.00  0.00    +0.097 C 
BRANCH   4   5
ATOM      5  S   LIG    1       24.896   9.489   0.000  0.00  0.00    -0.160 S 
ATOM      6  C   LIG    1       24.584  10.956   0.000  0.00  0.00    +0.084 C 
ENDBRANCH   4   5
ENDBRANCH   3   4
TORSDOF 2
REMARK  Name = molecules/IDLFZVILOHSSID-OVLDLUHVSA-N.pdb
REMARK                            x       y       z     vdW  Elec       q    Type
REMARK                         _______ _______ _______ _____ _____    ______ ____
ROOT
ATOM      1  C   LIG    1       16.892   6.048   0.000  0.00  0.00    +0.109 C 
ENDROOT
BRANCH   1   2
ATOM      2  N   LIG    1       15.425   5.736   0.000  0.00  0.00    -0.379 N 
ATOM      3  C   LIG    1       14.421   6.851   0.000  0.00  0.00    +0.080 C 
ATOM      4  H   LIG    1       14.526   4.862   0.000  0.00  0.00    +0.160 HD
BRANCH   3   5
ATOM      5  C   LIG    1       15.536   7.855   0.000  0.00  0.00    +0.044 C 
ATOM      6  C   LIG    1       16.650   8.858   0.000  0.00  0.00    +0.079 C 
BRANCH   6   7
ATOM      7  N   LIG    1       16.494  10.350   0.000  0.00  0.00    -0.199 NA
BRANCH   7   8
ATOM      8  C   LIG    1       17.864  10.960   0.000  0.00  0.00    +0.232 C 
ATOM      9  N   LIG    1       18.868   9.846   0.000  0.00  0.00    -0.139 NA
ENDBRANCH   7   8
ENDBRANCH   6   7
ENDBRANCH   3   5
ENDBRANCH   1   2
BRANCH   1  10
ATOM     10  C   LIG    1       17.896   4.934   0.000  0.00  0.00    +0.104 C 
BRANCH  10  11
ATOM     11  N   LIG    1       19.010   5.937   0.000  0.00  0.00    -0.251 NA
ATOM     12  H   LIG    1       18.890   7.261   0.000  0.00  0.00    +0.141 HD
ENDBRANCH  10  11
BRANCH  10  13
ATOM     13  C   LIG    1       18.899   3.819   0.000  0.00  0.00    +0.026 C 
BRANCH  13  14
ATOM     14  C   LIG    1       19.903   2.704   0.000  0.00  0.00    +0.130 C 
BRANCH  14  15
ATOM     15  C   LIG    1       20.907   1.589   0.000  0.00  0.00    +0.356 C 
ATOM     16  O   LIG    1       22.374   1.901   0.000  0.00  0.00    -0.246 OA
ATOM     17  O   LIG    1       20.443   0.163   0.000  0.00  0.00    -0.246 OA
ENDBRANCH  14  15
ENDBRANCH  13  14
ENDBRANCH  10  13
ENDBRANCH   1  10
TORSDOF 9
REMARK  Name = molecules/IDLFZVILOHSSID-OVLDLUHVSA-N.pdb
REMARK                            x       y       z     vdW  Elec       q    Type
REMARK                         _______ _______ _______ _____ _____    ______ ____
ROOT
ATOM      1  N   LIG    1       11.880   6.311   0.000  0.00  0.00    -0.163 NA
ATOM      2  H   LIG    1       12.224   7.107   0.000  0.00  0.00    +0.163 HD
ENDROOT
TORSDOF 0
REMARK  Name = molecules/IDLFZVILOHSSID-OVLDLUHVSA-N.pdb
REMARK                            x       y       z     vdW  Elec       q    Type
REMARK                         _______ _______ _______ _____ _____    ______ ____
ROOT
ATOM      1  N   LIG    1        8.294   6.110   0.000  0.00  0.00    -0.163 NA
ATOM      2  H   LIG    1        7.396   5.752   0.000  0.00  0.00    +0.163 HD
ENDROOT
TORSDOF 0
REMARK  Name = molecules/IDLFZVILOHSSID-OVLDLUHVSA-N.pdb
REMARK                            x       y       z     vdW  Elec       q    Type
REMARK                         _______ _______ _______ _____ _____    ______ ____
ROOT
ATOM      1  N   LIG    1        5.289   4.143   0.000  0.00  0.00    +0.000 NA
ENDROOT
TORSDOF 0
REMARK  Name = molecules/IDLFZVILOHSSID-OVLDLUHVSA-N.pdb
REMARK                            x       y       z     vdW  Elec       q    Type
REMARK                         _______ _______ _______ _____ _____    ______ ____
ROOT
ATOM      1  C   LIG    1        4.326   6.034   0.000  0.00  0.00    +0.139 C 
ATOM      2  C   LIG    1        4.886   5.331   0.000  0.00  0.00    +0.039 C 
ATOM      3  C   LIG    1        4.575   6.798   0.000  0.00  0.00    +0.063 C 
ATOM      4  C   LIG    1        3.645   6.386   0.000  0.00  0.00    +0.142 C 
ATOM      5  C   LIG    1        2.416   6.134   0.000  0.00  0.00    +0.034 C 
ENDROOT
BRANCH   1   7
ATOM      6  N   LIG    1        5.793   6.345   0.000  0.00  0.00    +0.042 NA
ATOM      7  O   LIG    1        5.068   6.203   0.000  0.00  0.00    -0.252 OA
ENDBRANCH   1   7
BRANCH   4   8
ATOM      8  O   LIG    1        3.322   7.148   0.000  0.00  0.00    -0.261 OA
BRANCH   8   9
ATOM      9  N   LIG    1        3.333   7.854   0.000  0.00  0.00    -0.056 NA
BRANCH   9  10
ATOM     10  C   LIG    1        3.218   8.604   0.000  0.00  0.00    +0.127 C 
ATOM     11  C   LIG    1        3.910   8.957   0.000  0.00  0.00    +0.029 C 
ENDBRANCH   9  10
BRANCH   9  12
ATOM     12  O   LIG    1        2.520   7.630   0.000  0.00  0.00    -0.288 OA
ATOM     13  H   LIG    1        1.856   7.593   0.000  0.00  0.00    +0.239 HD
ENDBRANCH   9  12
ENDBRANCH   8   9
ENDBRANCH   4   8
TORSDOF 5
REMARK  Name = molecules/IDLFZVILOHSSID-OVLDLUHVSA-N.pdb
REMARK                            x       y       z     vdW  Elec       q    Type
REMARK                         _______ _______ _______ _____ _____    ______ ____
ROOT
ATOM      1  N   LIG    1        5.717  10.313   0.000  0.00  0.00    +0.000 NA
ENDROOT
TORSDOF 0
REMARK  Name = molecules/IDLFZVILOHSSID-OVLDLUHVSA-N.pdb
REMARK                            x       y       z     vdW  Elec       q    Type
REMARK                         _______ _______ _______ _____ _____    ______ ____
ROOT
ATOM      1  N   LIG    1        8.722  12.280   0.000  0.00  0.00    -0.163 NA
ATOM      2  H   LIG    1        7.955  12.457   0.000  0.00  0.00    +0.163 HD
ENDROOT
TORSDOF 0
REMARK  Name = molecules/IDLFZVILOHSSID-OVLDLUHVSA-N.pdb
REMARK                            x       y       z     vdW  Elec       q    Type
REMARK                         _______ _______ _______ _____ _____    ______ ____
ROOT
ATOM      1  N   LIG    1        6.094  14.575   0.000  0.00  0.00    -0.046 NA
ATOM      2  O   LIG    1        6.539  15.043   0.000  0.00  0.00    -0.095 OA
ATOM      3  H   LIG    1        5.885  13.966   0.000  0.00  0.00    +0.191 HD
ENDROOT
BRANCH   1   4
ATOM      4  O   LIG    1        5.850  15.221   0.000  0.00  0.00    -0.289 OA
ATOM      5  H   LIG    1        6.746  14.893   0.000  0.00  0.00    +0.239 HD
ENDBRANCH   1   4
TORSDOF 1
REMARK  Name = molecules/IDLFZVILOHSSID-OVLDLUHVSA-N.pdb
REMARK                            x       y       z     vdW  Elec       q    Type
REMARK                         _______ _______ _______ _____ _____    ______ ____
ROOT
ATOM      1  C   LIG    1        4.939  12.796   0.000  0.00  0.00    +0.087 C 
ATOM      2  N   LIG    1        4.485  13.429   0.000  0.00  0.00    -0.241 NA
ENDROOT
BRANCH   1   3
ATOM      3  C   LIG    1        4.797  11.962   0.000  0.00  0.00    +0.116 C 
BRANCH   3   4
ATOM      4  N   LIG    1        3.824  11.792   0.000  0.00  0.00    -0.291 NA
ATOM      5  C   LIG    1        3.327  12.667   0.000  0.00  0.00    +0.086 C 
ATOM      6  H   LIG    1        4.120  10.844   0.000  0.00  0.00    +0.124 HD
ENDBRANCH   3   4
ENDBRANCH   1   3
BRANCH   2   7
ATOM      7  C   LIG    1        4.627  14.263   0.000  0.00  0.00    +0.272 C 
BRANCH   7   8
ATOM      8  O   LIG    1        4.491  14.894   0.000  0.00  0.00    -0.328 OA
ATOM      9  C   LIG    1        4.388  15.558   0.000  0.00  0.00    +0.176 C 
ENDBRANCH   7   8
ENDBRANCH   2   7
TORSDOF 4
REMARK  Name = molecules/IDLFZVILOHSSID-OVLDLUHVSA-N.pdb
REMARK                            x       y       z     vdW  Elec       q    Type
REMARK                         _______ _______ _______ _____ _____    ______ ____
ROOT
ATOM      1  N   LIG    1        1.714   4.648   0.000  0.00  0.00    -0.163 NA
ATOM      2  H   LIG    1        2.365   4.528   0.000  0.00  0.00    +0.163 HD
ENDROOT
TORSDOF 0
REMARK  Name = molecules/IDLFZVILOHSSID-OVLDLUHVSA-N.pdb
REMARK                            x       y       z     vdW  Elec       q    Type
REMARK                         _______ _______ _______ _____ _____    ______ ____
ROOT
ATOM      1  N   LIG    1       -1.492   6.267   0.000  0.00  0.00    -0.163 NA
ATOM      2  H   LIG    1       -2.286   5.098   0.000  0.00  0.00    +0.163 HD
ENDROOT
TORSDOF 0
REMARK  Name = molecules/IDLFZVILOHSSID-OVLDLUHVSA-N.pdb
REMARK                            x       y       z     vdW  Elec       q    Type
REMARK                         _______ _______ _______ _____ _____    ______ ____
ROOT
ATOM      1  N   LIG    1        0.127   9.473   0.000  0.00  0.00    -0.244 NA
ATOM      2  C   LIG    1        1.439   9.760   0.000  0.00  0.00    +0.103 C 
ATOM      3  H   LIG    1       -0.754   9.123   0.000  0.00  0.00    +0.141 HD
ENDROOT
TORSDOF 0
REMARK  Name = molecules/IDLFZVILOHSSID-OVLDLUHVSA-N.pdb
REMARK                            x       y       z     vdW  Elec       q    Type
REMARK                         _______ _______ _______ _____ _____    ______ ____
ROOT
ATOM      1  C   LIG    1       -0.065   5.803   0.000  0.00  0.00    +0.159 C 
ENDROOT
BRANCH   1   2
ATOM      2  C   LIG    1       -0.422   5.212   0.000  0.00  0.00    +0.029 C 
ATOM      3  C   LIG    1        0.247   4.336   0.000  0.00  0.00    +0.008 C 
ENDBRANCH   1   2
BRANCH   1   4
ATOM      4  C   LIG    1        0.948   5.822   0.000  0.00  0.00    +0.198 C 
BRANCH   4   5
ATOM      5  O   LIG    1        1.164   6.664   0.000  0.00  0.00    -0.267 OA
BRANCH   5   6
ATOM      6  N   LIG    1        0.791   7.314   0.000  0.00  0.00    -0.111 NA
ATOM      7  H   LIG    1        0.284   7.981   0.000  0.00  0.00    +0.176 HD
ENDBRANCH   5   6
ENDBRANCH   4   5
ENDBRANCH   1   4
BRANCH   1   8
ATOM      8  O   LIG    1        0.201   6.646   0.000  0.00  0.00    -0.226 OA
BRANCH   8   9
ATOM      9  O   LIG    1        0.841   6.755   0.000  0.00  0.00    -0.249 OA
ATOM     10  H   LIG    1        0.682   7.412   0.000  0.00  0.00    +0.253 HD
ENDBRANCH   8   9
ENDBRANCH   1   8
BRANCH   1  11
ATOM     11  C   LIG    1       -1.426   6.326   0.000  0.00  0.00    +0.051 C 
BRANCH  11  12
ATOM     12  C   LIG    1       -1.804   7.734   0.000  0.00  0.00    -0.006 C 
ATOM     13  C   LIG    1       -0.676   7.625   0.000  0.00  0.00    -0.013 C 
ENDBRANCH  11  12
ENDBRANCH   1  11
TORSDOF 8
REMARK  Name = molecules/IDLFZVILOHSSID-OVLDLUHVSA-N.pdb
REMARK                            x       y       z     vdW  Elec       q    Type
REMARK                         _______ _______ _______ _____ _____    ______ ____
ROOT
ATOM      1  N   LIG    1        3.419   5.019   0.000  0.00  0.00    -0.163 NA
ATOM      2  H   LIG    1        2.634   4.574   0.000  0.00  0.00    +0.163 HD
ENDROOT
TORSDOF 0
REMARK  Name = molecules/IDLFZVILOHSSID-OVLDLUHVSA-N.pdb
REMARK                            x       y       z     vdW  Elec       q    Type
REMARK                         _______ _______ _______ _____ _____    ______ ____
ROOT
ATOM      1  N   LIG    1        5.689   7.802   0.000  0.00  0.00    -0.163 NA
ATOM      2  H   LIG    1        4.981   8.193   0.000  0.00  0.00    +0.163 HD
ENDROOT
TORSDOF 0
REMARK  Name = molecules/IDLFZVILOHSSID-OVLDLUHVSA-N.pdb
REMARK                            x       y       z     vdW  Elec       q    Type
REMARK                         _______ _______ _______ _____ _____    ______ ____
ROOT
ATOM      1  N   LIG    1        2.906  10.072   0.000  0.00  0.00    -0.273 NA
ATOM      2  H   LIG    1        3.865   9.893   0.000  0.00  0.00    +0.137 HD
ATOM      3  H   LIG    1        2.694  10.738   0.000  0.00  0.00    +0.137 HD
ENDROOT
TORSDOF 0
REMARK  Name = molecules/IDLFZVILOHSSID-OVLDLUHVSA-N.pdb
REMARK                            x       y       z     vdW  Elec       q    Type
REMARK                         _______ _______ _______ _____ _____    ______ ____
ROOT
ATOM      1  N   LIG    1       -0.299  11.691   0.000  0.00  0.00    -0.163 NA
ATOM      2  H   LIG    1       -0.136  10.763   0.000  0.00  0.00    +0.163 HD
ENDROOT
TORSDOF 0
REMARK  Name = molecules/IDLFZVILOHSSID-OVLDLUHVSA-N.pdb
REMARK                            x       y       z     vdW  Elec       q    Type
REMARK                         _______ _______ _______ _____ _____    ______ ____
ROOT
ATOM      1  N   LIG    1        1.320  14.896   0.000  0.00  0.00    -0.129 NA
ATOM      2  C   LIG    1        0.659  14.186   0.000  0.00  0.00    +0.176 C 
ATOM      3  C   LIG    1        0.856  13.470   0.000  0.00  0.00    -0.016 C 
ATOM      4  C   LIG    1        0.971  12.719   0.000  0.00  0.00    +0.329 C 
ENDROOT
BRANCH   4   5
ATOM      5  O   LIG    1        1.944  12.889   0.000  0.00  0.00    -0.474 OA
ATOM      6  H   LIG    1        2.351  12.133   0.000  0.00  0.00    +0.296 HD
ENDBRANCH   4   5
BRANCH   4   7
ATOM      7  O   LIG    1        0.673  11.981   0.000  0.00  0.00    -0.443 OA
BRANCH   7   8
ATOM      8  C   LIG    1        1.127  11.227   0.000  0.00  0.00    +0.205 C 
ATOM      9  C   LIG    1        1.862  11.338   0.000  0.00  0.00    +0.056 C 
ENDBRANCH   7   8
ENDBRANCH   4   7
TORSDOF 3
REMARK  Name = molecules/IDLFZVILOHSSID-OVLDLUHVSA-N.pdb
REMARK                            x       y       z     vdW  Elec       q    Type
REMARK                         _______ _______ _______ _____ _____    ______ ____
ROOT
ATOM      1  N   LIG    1        7.268  11.159   0.000  0.00  0.00    -0.087 NA
ATOM      2  H   LIG    1        6.533  11.048   0.000  0.00  0.00    +0.178 HD
ENDROOT
BRANCH   1   3
ATOM      3  O   LIG    1        7.176  11.962   0.000  0.00  0.00    -0.155 OA
ATOM      4  N   LIG    1        6.438  12.160   0.000  0.00  0.00    +0.064 NA
ENDBRANCH   1   3
TORSDOF 1
REMARK  Name = molecules/IDLFZVILOHSSID-OVLDLUHVSA-N.pdb
REMARK                            x       y       z     vdW  Elec       q    Type
REMARK                         _______ _______ _______ _____ _____    ______ ____
ROOT
ATOM      1  N   LIG    1       11.206  10.668   0.000  0.00  0.00    -0.273 NA
ATOM      2  H   LIG    1       10.821  11.283   0.000  0.00  0.00    +0.137 HD
ATOM      3  H   LIG    1       11.577  11.348   0.000  0.00  0.00    +0.137 HD
ENDROOT
TORSDOF 0
REMARK  Name = molecules/IDLFZVILOHSSID-OVLDLUHVSA-N.pdb
REMARK                            x       y       z     vdW  Elec       q    Type
REMARK                         _______ _______ _______ _____ _____    ______ ____
ROOT
ATOM      1  N   LIG    1       13.476  13.451   0.000  0.00  0.00    -0.163 NA
ATOM      2  H   LIG    1       13.177  12.255   0.000  0.00  0.00    +0.163 HD
ENDROOT
TORSDOF 0
REMARK  Name = molecules/IDLFZVILOHSSID-OVLDLUHVSA-N.pdb
REMARK                            x       y       z     vdW  Elec       q    Type
REMARK                         _______ _______ _______ _____ _____    ______ ____
ROOT
ATOM      1  N   LIG    1       11.233  13.180   0.000  0.00  0.00    -0.163 NA
ATOM      2  H   LIG    1       12.330  12.705   0.000  0.00  0.00    +0.163 HD
ENDROOT
TORSDOF 0
REMARK  Name = molecules/IDLFZVILOHSSID-OVLDLUHVSA-N.pdb
REMARK                            x       y       z     vdW  Elec       q    Type
REMARK                         _______ _______ _______ _____ _____    ______ ____
ROOT
ATOM      1  N   LIG    1       10.569  15.339   0.000  0.00  0.00    -0.320 NA
ATOM      2  C   LIG    1        9.935  14.382   0.000  0.00  0.00    +0.082 C 
ATOM      3  H   LIG    1        9.524  15.678   0.000  0.00  0.00    +0.119 HD
ATOM      4  H   LIG    1       11.255  14.699   0.000  0.00  0.00    +0.119 HD
ENDROOT
TORSDOF 0
REMARK  Name = molecules/IDLFZVILOHSSID-OVLDLUHVSA-N.pdb
REMARK                            x       y       z     vdW  Elec       q    Type
REMARK                         _______ _______ _______ _____ _____    ______ ____
ROOT
ATOM      1  N   LIG    1        7.786  17.609   0.000  0.00  0.00    -0.163 NA
ATOM      2  H   LIG    1        8.576  16.692   0.000  0.00  0.00    +0.163 HD
ENDROOT
TORSDOF 0
REMARK  Name = molecules/IDLFZVILOHSSID-OVLDLUHVSA-N.pdb
REMARK                            x       y       z     vdW  Elec       q    Type
REMARK                         _______ _______ _______ _____ _____    ______ ____
ROOT
ATOM      1  N   LIG    1        8.057  15.366   0.000  0.00  0.00    -0.163 NA
ATOM      2  H   LIG    1        7.393  15.324   0.000  0.00  0.00    +0.163 HD
ENDROOT
TORSDOF 0
REMARK  Name = molecules/IDLFZVILOHSSID-OVLDLUHVSA-N.pdb
REMARK                            x       y       z     vdW  Elec       q    Type
REMARK                         _______ _______ _______ _____ _____    ______ ____
ROOT
ATOM      1  N   LIG    1        3.233  13.779   0.000  0.00  0.00    -0.163 NA
ATOM      2  H   LIG    1        2.696  14.402   0.000  0.00  0.00    +0.163 HD
ENDROOT
TORSDOF 0
REMARK  Name = molecules/IDLFZVILOHSSID-OVLDLUHVSA-N.pdb
REMARK                            x       y       z     vdW  Elec       q    Type
REMARK                         _______ _______ _______ _____ _____    ______ ____
ROOT
ATOM      1  N   LIG    1        4.851  16.985   0.000  0.00  0.00    +0.000 NA
ENDROOT
TORSDOF 0
REMARK  Name = molecules/IDLFZVILOHSSID-OVLDLUHVSA-N.pdb
REMARK                            x       y       z     vdW  Elec       q    Type
REMARK                         _______ _______ _______ _____ _____    ______ ____
ROOT
ATOM      1  N   LIG    1        1.306  17.559   0.000  0.00  0.00    +0.000 NA
ENDROOT
TORSDOF 0
REMARK  Name = molecules/IDLFZVILOHSSID-OVLDLUHVSA-N.pdb
REMARK                            x       y       z     vdW  Elec       q    Type
REMARK                         _______ _______ _______ _____ _____    ______ ____
ROOT
ATOM      1  N   LIG    1        2.774  20.724   0.000  0.00  0.00    +0.000 NA
ENDROOT
TORSDOF 0
REMARK  Name = molecules/IDLFZVILOHSSID-OVLDLUHVSA-N.pdb
REMARK                            x       y       z     vdW  Elec       q    Type
REMARK                         _______ _______ _______ _____ _____    ______ ____
ROOT
ATOM      1  O   LIG    1        4.287  18.727   0.000  0.00  0.00    -0.338 OA
ENDROOT
BRANCH   1   2
ATOM      2  C   LIG    1        4.963  19.103   0.000  0.00  0.00    +0.265 C 
BRANCH   2   3
ATOM      3  N   LIG    1        5.979  19.106   0.000  0.00  0.00    -0.207 NA
ATOM      4  C   LIG    1        6.077  20.107   0.000  0.00  0.00    +0.116 C 
ENDBRANCH   2   3
ENDBRANCH   1   2
BRANCH   1   5
ATOM      5  C   LIG    1        3.848  18.100   0.000  0.00  0.00    +0.321 C 
BRANCH   5   6
ATOM      6  O   LIG    1        3.720  18.785   0.000  0.00  0.00    -0.370 OA
ATOM      7  H   LIG    1        3.485  19.555   0.000  0.00  0.00    +0.212 HD
ENDBRANCH   5   6
ENDBRANCH   1   5
TORSDOF 4
REMARK  Name = molecules/IDLFZVILOHSSID-OVLDLUHVSA-N.pdb
REMARK                            x       y       z     vdW  Elec       q    Type
REMARK                         _______ _______ _______ _____ _____    ______ ____
ROOT
ATOM      1  N   LIG    1        4.361  15.900   0.000  0.00  0.00    +0.000 NA
ENDROOT
TORSDOF 0
REMARK  Name = molecules/IDLFZVILOHSSID-OVLDLUHVSA-N.pdb
REMARK                            x       y       z     vdW  Elec       q    Type
REMARK                         _______ _______ _______ _____ _____    ______ ____
ROOT
ATOM      1  O   HOH    1        2.091  13.117   0.000  0.00  0.00    -0.253 OA
ATOM      2  H   HOH    0        2.394  12.536   0.000  0.00  0.00    +0.253 HD
ENDROOT
TORSDOF 0
REMARK  Name = molecules/IDLFZVILOHSSID-OVLDLUHVSA-N.pdb
REMARK                            x       y       z     vdW  Elec       q    Type
REMARK                         _______ _______ _______ _____ _____    ______ ____
ROOT
ATOM      1  C   LIG    1       31.153   5.301   0.000  0.00  0.00    +0.000 C 
ENDROOT
TORSDOF 0
REMARK  Name = molecules/IDLFZVILOHSSID-OVLDLUHVSA-N.pdb
REMARK                            x       y       z     vdW  Elec       q    Type
REMARK                         _______ _______ _______ _____ _____    ______ ____
ROOT
ATOM      1  O   HOH    1       31.617   6.727   0.000  0.00  0.00    -0.410 OA
ATOM      2  H   HOH    0       32.469   6.153   0.000  0.00  0.00    +0.205 HD
ATOM      3  H   HOH    0       31.041   6.269   0.000  0.00  0.00    +0.205 HD
ENDROOT
TORSDOF 0
REMARK  Name = molecules/IDLFZVILOHSSID-OVLDLUHVSA-N.pdb
REMARK                            x       y       z     vdW  Elec       q    Type
REMARK                         _______ _______ _______ _____ _____    ______ ____
ROOT
ATOM      1  O   HOH    1       27.879   3.633   0.000  0.00  0.00    -0.410 OA
ATOM      2  H   HOH    0       28.501   2.642   0.000  0.00  0.00    +0.205 HD
ATOM      3  H   HOH    0       27.354   4.149   0.000  0.00  0.00    +0.205 HD
ENDROOT
TORSDOF 0
REMARK  Name = molecules/IDLFZVILOHSSID-OVLDLUHVSA-N.pdb
REMARK                            x       y       z     vdW  Elec       q    Type
REMARK                         _______ _______ _______ _____ _____    ______ ____
ROOT
ATOM      1  C   LIG    1       24.023   5.675   0.000  0.00  0.00    +0.000 C 
ENDROOT
TORSDOF 0
REMARK  Name = molecules/IDLFZVILOHSSID-OVLDLUHVSA-N.pdb
REMARK                            x       y       z     vdW  Elec       q    Type
REMARK                         _______ _______ _______ _____ _____    ______ ____
ROOT
ATOM      1  O   HOH    1       24.657   7.034   0.000  0.00  0.00    -0.410 OA
ATOM      2  H   HOH    0       23.910   6.642   0.000  0.00  0.00    +0.205 HD
ATOM      3  H   HOH    0       25.829   7.031   0.000  0.00  0.00    +0.205 HD
ENDROOT
TORSDOF 0
REMARK  Name = molecules/IDLFZVILOHSSID-OVLDLUHVSA-N.pdb
REMARK                            x       y       z     vdW  Elec       q    Type
REMARK                         _______ _______ _______ _____ _____    ______ ____
ROOT
ATOM      1  C   LIG    1       20.437   5.474   0.000  0.00  0.00    +0.000 C 
ENDROOT
TORSDOF 0
REMARK  Name = molecules/IDLFZVILOHSSID-OVLDLUHVSA-N.pdb
REMARK                            x       y       z     vdW  Elec       q    Type
REMARK                         _______ _______ _______ _____ _____    ______ ____
ROOT
ATOM      1  O   HOH    1       20.925   4.056   0.000  0.00  0.00    -0.410 OA
ATOM      2  H   HOH    0       20.224   4.523   0.000  0.00  0.00    +0.205 HD
ATOM      3  H   HOH    0       22.092   3.936   0.000  0.00  0.00    +0.205 HD
ENDROOT
TORSDOF 0
REMARK  Name = molecules/IDLFZVILOHSSID-OVLDLUHVSA-N.pdb
REMARK                            x       y       z     vdW  Elec       q    Type
REMARK                         _______ _______ _______ _____ _____    ______ ____
ROOT
ATOM      1  O   LIG    1       17.355   7.475   0.000  0.00  0.00    -0.386 OA
ATOM      2  C   LIG    1       18.118   8.547   0.000  0.00  0.00    +0.176 C 
ATOM      3  H   LIG    1       16.779   7.016   0.000  0.00  0.00    +0.210 HD
ENDROOT
TORSDOF 0
REMARK  Name = molecules/IDLFZVILOHSSID-OVLDLUHVSA-N.pdb
REMARK                            x       y       z     vdW  Elec       q    Type
REMARK                         _______ _______ _______ _____ _____    ______ ____
ROOT
ATOM      1  C   LIG    1       13.306   5.847   0.000  0.00  0.00    +0.000 C 
ENDROOT
TORSDOF 0
REMARK  Name = molecules/IDLFZVILOHSSID-OVLDLUHVSA-N.pdb
REMARK                            x       y       z     vdW  Elec       q    Type
REMARK                         _______ _______ _______ _____ _____    ______ ____
ROOT
ATOM      1  O   HOH    1       13.618   4.380   0.000  0.00  0.00    -0.253 OA
ATOM      2  H   HOH    0       12.744   4.652   0.000  0.00  0.00    +0.253 HD
ENDROOT
TORSDOF 0
REMARK  Name = molecules/IDLFZVILOHSSID-OVLDLUHVSA-N.pdb
REMARK                            x       y       z     vdW  Elec       q    Type
REMARK                         _______ _______ _______ _____ _____    ______ ____
ROOT
ATOM      1  C   LIG    1        9.761   6.422   0.000  0.00  0.00    +0.000 C 
ATOM      2  C   LIG    1        9.514   7.634   0.000  0.00  0.00    +0.000 C 
ENDROOT
TORSDOF 0
REMARK  Name = molecules/IDLFZVILOHSSID-OVLDLUHVSA-N.pdb
REMARK                            x       y       z     vdW  Elec       q    Type
REMARK                         _______ _______ _______ _____ _____    ______ ____
ROOT
ATOM      1  C   LIG    1       12.110   3.293   0.000  0.00  0.00    +0.026 C 
ENDROOT
BRANCH   1   2
ATOM      2  C   LIG    1       11.769   4.192   0.000  0.00  0.00    -0.002 C 
ATOM      3  C   LIG    1       10.684   3.756   0.000  0.00  0.00    +0.005 C 
ENDBRANCH   1   2
BRANCH   1   4
ATOM      4  C   LIG    1       12.772   3.078   0.000  0.00  0.00    +0.124 C 
BRANCH   4   5
ATOM      5  N   LIG    1       13.537   2.829   0.000  0.00  0.00    -0.287 NA
ATOM      6  C   LIG    1       14.240   3.390   0.000  0.00  0.00    +0.135 C 
ENDBRANCH   4   5
ENDBRANCH   1   4
TORSDOF 3
REMARK  Name = molecules/IDLFZVILOHSSID-OVLDLUHVSA-N.pdb
REMARK                            x       y       z     vdW  Elec       q    Type
REMARK                         _______ _______ _______ _____ _____    ______ ____
ROOT
ATOM      1  C   LIG    1       12.309   1.651   0.000  0.00  0.00    +0.115 C 
ATOM      2  N   LIG    1       12.734   0.358   0.000  0.00  0.00    -0.255 NA
ATOM      3  H   LIG    1       13.026  -0.936   0.000  0.00  0.00    +0.141 HD
ENDROOT
TORSDOF 0
REMARK  Name = molecules/IDLFZVILOHSSID-OVLDLUHVSA-N.pdb
REMARK                            x       y       z     vdW  Elec       q    Type
REMARK                         _______ _______ _______ _____ _____    ______ ____
ROOT
ATOM      1  C   LIG    1       13.312   0.536   0.000  0.00  0.00    +0.000 C 
ATOM      2  C   LIG    1       13.849   1.362   0.000  0.00  0.00    +0.000 C 
ATOM      3  C   LIG    1       14.780   0.848   0.000  0.00  0.00    +0.000 C 
ENDROOT
TORSDOF 0
REMARK  Name = molecules/IDLFZVILOHSSID-OVLDLUHVSA-N.pdb
REMARK                            x       y       z     vdW  Elec       q    Type
REMARK                         _______ _______ _______ _____ _____    ______ ____
ROOT
ATOM      1  C   LIG    1       15.243   2.275   0.000  0.00  0.00    +0.103 C 
ATOM      2  N   LIG    1       15.275   0.899   0.000  0.00  0.00    -0.244 NA
ATOM      3  H   LIG    1       15.640  -0.380   0.000  0.00  0.00    +0.141 HD
ENDROOT
TORSDOF 0
REMARK  Name = molecules/IDLFZVILOHSSID-OVLDLUHVSA-N.pdb
REMARK                            x       y       z     vdW  Elec       q    Type
REMARK                         _______ _______ _______ _____ _____    ______ ____
ROOT
ATOM      1  C   LIG    1       10.765   5.307   0.000  0.00  0.00    +0.000 C 
ENDROOT
TORSDOF 0
REMARK  Name = molecules/IDLFZVILOHSSID-OVLDLUHVSA-N.pdb
REMARK                            x       y       z     vdW  Elec       q    Type
REMARK                         _______ _______ _______ _____ _____    ______ ____
ROOT
ATOM      1  N   LIG    1       10.981   7.946   0.000  0.00  0.00    +0.400 N 
ATOM      2  H   LIG    1       10.092   7.672   0.000  0.00  0.00    -0.045 HD
ATOM      3  H   LIG    1       11.637   8.855   0.000  0.00  0.00    -0.045 HD
ATOM      4  H   LIG    1       11.932   7.810   0.000  0.00  0.00    -0.045 HD
ENDROOT
BRANCH   1   5
ATOM      5  O   LIG    1       11.060   7.172   0.000  0.00  0.00    -0.450 OA
ATOM      6  H   LIG    1       10.331   6.376   0.000  0.00  0.00    +0.184 HD
ENDBRANCH   1   5
TORSDOF 1
REMARK  Name = molecules/IDLFZVILOHSSID-OVLDLUHVSA-N.pdb
REMARK                            x       y       z     vdW  Elec       q    Type
REMARK                         _______ _______ _______ _____ _____    ______ ____
ROOT
ATOM      1  C   LIG    1        6.404   5.147   0.000  0.00  0.00    -0.000 C 
ENDROOT
TORSDOF 0
REMARK  Name = molecules/IDLFZVILOHSSID-OVLDLUHVSA-N.pdb
REMARK                            x       y       z     vdW  Elec       q    Type
REMARK                         _______ _______ _______ _____ _____    ______ ____
ROOT
ATOM      1  C   LIG    1        9.257   4.220   0.000  0.00  0.00    -0.000 C 
ENDROOT
TORSDOF 0
REMARK  Name = molecules/IDLFZVILOHSSID-OVLDLUHVSA-N.pdb
REMARK                            x       y       z     vdW  Elec       q    Type
REMARK                         _______ _______ _______ _____ _____    ______ ____
ROOT
ATOM      1  C   LIG    1        7.830   4.684   0.000  0.00  0.00    +0.000 C 
ENDROOT
TORSDOF 0
REMARK  Name = molecules/IDLFZVILOHSSID-OVLDLUHVSA-N.pdb
REMARK                            x       y       z     vdW  Elec       q    Type
REMARK                         _______ _______ _______ _____ _____    ______ ____
ROOT
ATOM      1  O   LIG    1        6.818   6.589   0.000  0.00  0.00    +0.000 OA
ATOM      2  O   LIG    1        7.333   6.983   0.000  0.00  0.00    +0.000 OA
ENDROOT
TORSDOF 0
REMARK  Name = molecules/IDLFZVILOHSSID-OVLDLUHVSA-N.pdb
REMARK                            x       y       z     vdW  Elec       q    Type
REMARK                         _______ _______ _______ _____ _____    ______ ____
ROOT
ATOM      1  C   LIG    1        3.399   3.180   0.000  0.00  0.00    +0.000 C 
ENDROOT
TORSDOF 0
REMARK  Name = molecules/IDLFZVILOHSSID-OVLDLUHVSA-N.pdb
REMARK                            x       y       z     vdW  Elec       q    Type
REMARK                         _______ _______ _______ _____ _____    ______ ____
ROOT
ATOM      1  C   LIG    1        2.936   1.754   0.000  0.00  0.00    -0.000 C 
ENDROOT
TORSDOF 0
REMARK  Name = molecules/IDLFZVILOHSSID-OVLDLUHVSA-N.pdb
REMARK                            x       y       z     vdW  Elec       q    Type
REMARK                         _______ _______ _______ _____ _____    ______ ____
ROOT
ATOM      1  C   LIG    1        3.817   0.540   0.000  0.00  0.00    +0.000 C 
ENDROOT
TORSDOF 0
REMARK  Name = molecules/IDLFZVILOHSSID-OVLDLUHVSA-N.pdb
REMARK                            x       y       z     vdW  Elec       q    Type
REMARK                         _______ _______ _______ _____ _____    ______ ____
ROOT
ATOM      1  N   LIG    1        2.936  -0.673   0.000  0.00  0.00    -0.273 NA
ATOM      2  H   LIG    1        2.993  -1.585   0.000  0.00  0.00    +0.137 HD
ATOM      3  H   LIG    1        2.650   0.246   0.000  0.00  0.00    +0.137 HD
ENDROOT
TORSDOF 0
REMARK  Name = molecules/IDLFZVILOHSSID-OVLDLUHVSA-N.pdb
REMARK                            x       y       z     vdW  Elec       q    Type
REMARK                         _______ _______ _______ _____ _____    ______ ____
ROOT
ATOM      1  C   LIG    1        1.182  -0.066   0.000  0.00  0.00    +0.014 C 
ENDROOT
BRANCH   1   2
ATOM      2  C   LIG    1        1.509   1.290   0.000  0.00  0.00    -0.010 C 
ATOM      3  C   LIG    1        0.871   1.402   0.000  0.00  0.00    -0.021 C 
BRANCH   3   4
ATOM      4  C   LIG    1        0.210   2.040   0.000  0.00  0.00    +0.008 C 
ATOM      5  C   LIG    1        0.559   2.869   0.000  0.00  0.00    +0.001 C 
ENDBRANCH   3   4
ENDBRANCH   1   2
BRANCH   1   6
ATOM      6  C   LIG    1        0.210  -0.960   0.000  0.00  0.00    +0.013 C 
BRANCH   6   8
ATOM      7  C   LIG    1        1.509  -0.210   0.000  0.00  0.00    -0.000 C 
ATOM      8  C   LIG    1        1.494  -1.533   0.000  0.00  0.00    -0.004 C 
ENDBRANCH   6   8
ENDBRANCH   1   6
TORSDOF 4
REMARK  Name = molecules/IDLFZVILOHSSID-OVLDLUHVSA-N.pdb
REMARK                            x       y       z     vdW  Elec       q    Type
REMARK                         _______ _______ _______ _____ _____    ______ ____
ROOT
ATOM      1  C   LIG    1       -1.089   1.290   0.000  0.00  0.00    -0.000 C 
ENDROOT
TORSDOF 0
REMARK  Name = molecules/IDLFZVILOHSSID-OVLDLUHVSA-N.pdb
REMARK                            x       y       z     vdW  Elec       q    Type
REMARK                         _______ _______ _______ _____ _____    ______ ____
ROOT
ATOM      1  C   LIG    1       -1.089  -0.210   0.000  0.00  0.00    +0.000 C 
ENDROOT
TORSDOF 0
REMARK  Name = molecules/IDLFZVILOHSSID-OVLDLUHVSA-N.pdb
REMARK                            x       y       z     vdW  Elec       q    Type
REMARK                         _______ _______ _______ _____ _____    ______ ____
ROOT
ATOM      1  C   LIG    1        3.863   4.607   0.000  0.00  0.00    +0.000 C 
ATOM      2  C   LIG    1        3.731   3.552   0.000  0.00  0.00    +0.000 C 
ENDROOT
TORSDOF 0
REMARK  Name = molecules/IDLFZVILOHSSID-OVLDLUHVSA-N.pdb
REMARK                            x       y       z     vdW  Elec       q    Type
REMARK                         _______ _______ _______ _____ _____    ______ ____
ROOT
ATOM      1  C   LIG    1        6.720   9.198   0.000  0.00  0.00    +0.000 C 
ENDROOT
TORSDOF 0
REMARK  Name = molecules/IDLFZVILOHSSID-OVLDLUHVSA-N.pdb
REMARK                            x       y       z     vdW  Elec       q    Type
REMARK                         _______ _______ _______ _____ _____    ______ ____
ROOT
ATOM      1  C   LIG    1        6.257   7.772   0.000  0.00  0.00    +0.176 C 
ATOM      2  O   LIG    1        5.807   8.223   0.000  0.00  0.00    -0.386 OA
ATOM      3  H   LIG    1        6.448   8.505   0.000  0.00  0.00    +0.210 HD
ENDROOT
TORSDOF 0
REMARK  Name = molecules/IDLFZVILOHSSID-OVLDLUHVSA-N.pdb
REMARK                            x       y       z     vdW  Elec       q    Type
REMARK                         _______ _______ _______ _____ _____    ______ ____
ROOT
ATOM      1  O   LIG    1        8.220   9.146   0.000  0.00  0.00    -0.379 OA
ATOM      2  C   LIG    1        8.312   9.893   0.000  0.00  0.00    +0.169 C 
ATOM      3  H   LIG    1        8.077   8.411   0.000  0.00  0.00    +0.211 HD
ENDROOT
TORSDOF 0
REMARK  Name = molecules/IDLFZVILOHSSID-OVLDLUHVSA-N.pdb
REMARK                            x       y       z     vdW  Elec       q    Type
REMARK                         _______ _______ _______ _____ _____    ______ ____
ROOT
ATOM      1  C   LIG    1        7.607  11.276   0.000  0.00  0.00    -0.000 C 
ENDROOT
TORSDOF 0
REMARK  Name = molecules/IDLFZVILOHSSID-OVLDLUHVSA-N.pdb
REMARK                            x       y       z     vdW  Elec       q    Type
REMARK                         _______ _______ _______ _____ _____    ______ ____
ROOT
ATOM      1  C   LIG    1        1.901  13.130   0.000  0.00  0.00    +0.000 C 
ENDROOT
TORSDOF 0
REMARK  Name = molecules/IDLFZVILOHSSID-OVLDLUHVSA-N.pdb
REMARK                            x       y       z     vdW  Elec       q    Type
REMARK                         _______ _______ _______ _____ _____    ______ ____
ROOT
ATOM      1  C   LIG    1        4.754  12.203   0.000  0.00  0.00    -0.010 C 
ATOM      2  C   LIG    1        4.659  13.316   0.000  0.00  0.00    +0.010 C 
ENDROOT
TORSDOF 0
REMARK  Name = molecules/IDLFZVILOHSSID-OVLDLUHVSA-N.pdb
REMARK                            x       y       z     vdW  Elec       q    Type
REMARK                         _______ _______ _______ _____ _____    ______ ____
ROOT
ATOM      1  C   LIG    1        6.180  11.740   0.000  0.00  0.00    +0.000 C 
ATOM      2  C   LIG    1        4.971  11.848   0.000  0.00  0.00    +0.000 C 
ENDROOT
TORSDOF 0
REMARK  Name = molecules/IDLFZVILOHSSID-OVLDLUHVSA-N.pdb
REMARK                            x       y       z     vdW  Elec       q    Type
REMARK                         _______ _______ _______ _____ _____    ______ ____
ROOT
ATOM      1  N   LIG    1       -0.953  14.057   0.000  0.00  0.00    -0.325 NA
ATOM      2  C   LIG    1       -0.611  13.158   0.000  0.00  0.00    +0.088 C 
ATOM      3  H   LIG    1       -1.708  14.181   0.000  0.00  0.00    +0.119 HD
ATOM      4  H   LIG    1       -0.722  14.772   0.000  0.00  0.00    +0.119 HD
ENDROOT
TORSDOF 0
REMARK  Name = molecules/IDLFZVILOHSSID-OVLDLUHVSA-N.pdb
REMARK                            x       y       z     vdW  Elec       q    Type
REMARK                         _______ _______ _______ _____ _____    ______ ____
ROOT
ATOM      1  C   LIG    1        0.474  13.594   0.000  0.00  0.00    +0.000 C 
ENDROOT
TORSDOF 0
REMARK  Name = molecules/IDLFZVILOHSSID-OVLDLUHVSA-N.pdb
REMARK                            x       y       z     vdW  Elec       q    Type
REMARK                         _______ _______ _______ _____ _____    ______ ____
ROOT
ATOM      1  O   HOH    1        8.424  10.018   0.000  0.00  0.00    -0.410 OA
ATOM      2  H   HOH    0        8.659  10.912   0.000  0.00  0.00    +0.205 HD
ATOM      3  H   HOH    0        7.706   9.725   0.000  0.00  0.00    +0.205 HD
ENDROOT
TORSDOF 0
REMARK  Name = molecules/IDLFZVILOHSSID-OVLDLUHVSA-N.pdb
REMARK                            x       y       z     vdW  Elec       q    Type
REMARK                         _______ _______ _______ _____ _____    ______ ____
ROOT
ATOM      1  C   LIG    1        7.098  13.460   0.000  0.00  0.00    +0.000 C 
ENDROOT
TORSDOF 0
REMARK  Name = molecules/IDLFZVILOHSSID-OVLDLUHVSA-N.pdb
REMARK                            x       y       z     vdW  Elec       q    Type
REMARK                         _______ _______ _______ _____ _____    ______ ____
ROOT
ATOM      1  C   LIG    1        8.565  13.772   0.000  0.00  0.00    +0.000 C 
ATOM      2  C   LIG    1        9.454  14.335   0.000  0.00  0.00    +0.000 C 
ENDROOT
TORSDOF 0
REMARK  Name = molecules/IDLFZVILOHSSID-OVLDLUHVSA-N.pdb
REMARK                            x       y       z     vdW  Elec       q    Type
REMARK                         _______ _______ _______ _____ _____    ______ ____
ROOT
ATOM      1  C   LIG    1       10.939  13.267   0.000  0.00  0.00    +0.000 C 
ENDROOT
TORSDOF 0
REMARK  Name = molecules/IDLFZVILOHSSID-OVLDLUHVSA-N.pdb
REMARK                            x       y       z     vdW  Elec       q    Type
REMARK                         _______ _______ _______ _____ _____    ______ ____
ROOT
ATOM      1  C   LIG    1       10.189  11.968   0.000  0.00  0.00    +0.217 C 
ATOM      2  O   LIG    1       10.884  12.187   0.000  0.00  0.00    -0.217 OA
ENDROOT
BRANCH   1   3
ATOM      3  C   LIG    1        9.766  12.868   0.000  0.00  0.00    +0.217 C 
ATOM      4  O   LIG    1       10.665  13.209   0.000  0.00  0.00    -0.217 OA
ENDBRANCH   1   3
TORSDOF 1
REMARK  Name = molecules/IDLFZVILOHSSID-OVLDLUHVSA-N.pdb
REMARK                            x       y       z     vdW  Elec       q    Type
REMARK                         _______ _______ _______ _____ _____    ______ ____
ROOT
ATOM      1  C   LIG    1        4.003  17.197   0.000  0.00  0.00    +0.000 C 
ENDROOT
TORSDOF 0
REMARK  Name = molecules/IDLFZVILOHSSID-OVLDLUHVSA-N.pdb
REMARK                            x       y       z     vdW  Elec       q    Type
REMARK                         _______ _______ _______ _____ _____    ______ ____
ROOT
ATOM      1  C   LIG    1        5.782  16.042   0.000  0.00  0.00    +0.000 C 
ENDROOT
TORSDOF 0
REMARK  Name = molecules/IDLFZVILOHSSID-OVLDLUHVSA-N.pdb
REMARK                            x       y       z     vdW  Elec       q    Type
REMARK                         _______ _______ _______ _____ _____    ______ ____
ROOT
ATOM      1  C   LIG    1        4.315  15.730   0.000  0.00  0.00    +0.000 C 
ENDROOT
TORSDOF 0
REMARK  Name = molecules/IDLFZVILOHSSID-OVLDLUHVSA-N.pdb
REMARK                            x       y       z     vdW  Elec       q    Type
REMARK                         _______ _______ _______ _____ _____    ______ ____
ROOT
ATOM      1  O   HOH    1        6.210  12.001   0.000  0.00  0.00    +0.000 OA
ENDROOT
TORSDOF 0
REMARK  Name = molecules/IDLFZVILOHSSID-OVLDLUHVSA-N.pdb
REMARK                            x       y       z     vdW  Elec       q    Type
REMARK                         _______ _______ _______ _____ _____    ______ ____
ROOT
ATOM      1  C   LIG    1        4.447   8.857   0.000  0.00  0.00    +0.000 C 
ENDROOT
TORSDOF 0
REMARK  Name = molecules/IDLFZVILOHSSID-OVLDLUHVSA-N.pdb
REMARK                            x       y       z     vdW  Elec       q    Type
REMARK                         _______ _______ _______ _____ _____    ______ ____
ROOT
ATOM      1  C   LIG    1        4.136  10.325   0.000  0.00  0.00    +0.000 C 
ENDROOT
TORSDOF 0
REMARK  Name = molecules/IDLFZVILOHSSID-OVLDLUHVSA-N.pdb
REMARK                            x       y       z     vdW  Elec       q    Type
REMARK                         _______ _______ _______ _____ _____    ______ ____
ROOT
ATOM      1  C   LIG    1        2.178   6.075   0.000  0.00  0.00    +0.018 C 
ATOM      2  C   LIG    1        2.063   6.825   0.000  0.00  0.00    -0.018 C 
ENDROOT
TORSDOF 0
REMARK  Name = molecules/IDLFZVILOHSSID-OVLDLUHVSA-N.pdb
REMARK                            x       y       z     vdW  Elec       q    Type
REMARK                         _______ _______ _______ _____ _____    ______ ____
ROOT
ATOM      1  C   LIG    1        8.046   7.322   0.000  0.00  0.00    +0.000 C 
ENDROOT
TORSDOF 0
REMARK  Name = molecules/IDLFZVILOHSSID-OVLDLUHVSA-N.pdb
REMARK                            x       y       z     vdW  Elec       q    Type
REMARK                         _______ _______ _______ _____ _____    ______ ____
ROOT
ATOM      1  C   LIG    1        6.579   7.010   0.000  0.00  0.00    -0.000 C 
ATOM      2  C   LIG    1        5.907   7.447   0.000  0.00  0.00    -0.005 C 
ATOM      3  C   LIG    1        5.112   6.698   0.000  0.00  0.00    +0.005 C 
ENDROOT
TORSDOF 0
REMARK  Name = molecules/IDLFZVILOHSSID-OVLDLUHVSA-N.pdb
REMARK                            x       y       z     vdW  Elec       q    Type
REMARK                         _______ _______ _______ _____ _____    ______ ____
ROOT
ATOM      1  N   LIG    1        1.806  -3.000   0.000  0.00  0.00    +0.000 NA
ENDROOT
TORSDOF 0
REMARK  Name = molecules/IDLFZVILOHSSID-OVLDLUHVSA-N.pdb
REMARK                            x       y       z     vdW  Elec       q    Type
REMARK                         _______ _______ _______ _____ _____    ______ ____
ROOT
ATOM      1  C   LIG    1       -0.336   8.046   0.000  0.00  0.00    +0.000 C 
ENDROOT
TORSDOF 0
REMARK  Name = molecules/IDLFZVILOHSSID-OVLDLUHVSA-N.pdb
REMARK                            x       y       z     vdW  Elec       q    Type
REMARK                         _______ _______ _______ _____ _____    ______ ____
ROOT
ATOM      1  C   LIG    1       -3.271   7.422   0.000  0.00  0.00    -0.000 C 
ENDROOT
TORSDOF 0
REMARK  Name = molecules/IDLFZVILOHSSID-OVLDLUHVSA-N.pdb
REMARK                            x       y       z     vdW  Elec       q    Type
REMARK                         _______ _______ _______ _____ _____    ______ ____
ROOT
ATOM      1  C   LIG    1       -8.676   7.601   0.000  0.00  0.00    +0.491 C 
ATOM      2  N   LIG    1      -10.143   7.290   0.000  0.00  0.00    +0.131 NA
ENDROOT
BRANCH   1   3
ATOM      3  N   LIG    1       -8.213   9.028   0.000  0.00  0.00    -0.121 NA
ATOM      4  H   LIG    1       -8.581  10.239   0.000  0.00  0.00    +0.307 HD
ENDBRANCH   1   3
BRANCH   1   5
ATOM      5  N   LIG    1       -7.673   6.487   0.000  0.00  0.00    -0.105 NA
BRANCH   5   7
ATOM      6  C   LIG    1       -4.738   7.110   0.000  0.00  0.00    +0.044 C 
ATOM      7  C   LIG    1       -6.205   6.798   0.000  0.00  0.00    +0.244 C 
ENDBRANCH   5   7
ENDBRANCH   1   5
TORSDOF 3
REMARK  Name = molecules/IDLFZVILOHSSID-OVLDLUHVSA-N.pdb
REMARK                            x       y       z     vdW  Elec       q    Type
REMARK                         _______ _______ _______ _____ _____    ______ ____
ROOT
ATOM      1  C   LIG    1        1.906   8.317   0.000  0.00  0.00    +0.000 C 
ENDROOT
TORSDOF 0
REMARK  Name = molecules/IDLFZVILOHSSID-OVLDLUHVSA-N.pdb
REMARK                            x       y       z     vdW  Elec       q    Type
REMARK                         _______ _______ _______ _____ _____    ______ ____
ROOT
ATOM      1  C   LIG    1        1.282  11.252   0.000  0.00  0.00    +0.000 C 
ENDROOT
TORSDOF 0
REMARK  Name = molecules/IDLFZVILOHSSID-OVLDLUHVSA-N.pdb
REMARK                            x       y       z     vdW  Elec       q    Type
REMARK                         _______ _______ _______ _____ _____    ______ ____
ROOT
ATOM      1  N   LIG    1        0.347  15.653   0.000  0.00  0.00    -0.273 NA
ATOM      2  H   LIG    1        0.953  15.449   0.000  0.00  0.00    +0.137 HD
ATOM      3  H   LIG    1       -0.136  14.964   0.000  0.00  0.00    +0.137 HD
ENDROOT
TORSDOF 0
REMARK  Name = molecules/IDLFZVILOHSSID-OVLDLUHVSA-N.pdb
REMARK                            x       y       z     vdW  Elec       q    Type
REMARK                         _______ _______ _______ _____ _____    ______ ____
ROOT
ATOM      1  C   LIG    1        1.462  16.657   0.000  0.00  0.00    +0.122 C 
ATOM      2  C   LIG    1        1.320  17.323   0.000  0.00  0.00    +0.074 C 
ATOM      3  N   LIG    1        1.150  18.124   0.000  0.00  0.00    -0.196 NA
ENDROOT
TORSDOF 0
REMARK  Name = molecules/IDLFZVILOHSSID-OVLDLUHVSA-N.pdb
REMARK                            x       y       z     vdW  Elec       q    Type
REMARK                         _______ _______ _______ _____ _____    ______ ____
ROOT
ATOM      1  N   LIG    1        2.888  16.194   0.000  0.00  0.00    -0.221 NA
ATOM      2  C   LIG    1        2.746  16.860   0.000  0.00  0.00    +0.107 C 
ATOM      3  C   LIG    1        2.746  15.360   0.000  0.00  0.00    +0.114 C 
ENDROOT
TORSDOF 0
REMARK  Name = molecules/IDLFZVILOHSSID-OVLDLUHVSA-N.pdb
REMARK                            x       y       z     vdW  Elec       q    Type
REMARK                         _______ _______ _______ _____ _____    ______ ____
ROOT
ATOM      1  C   LIG    1        1.594   9.784   0.000  0.00  0.00    +0.000 C 
ENDROOT
TORSDOF 0
REMARK  Name = molecules/IDLFZVILOHSSID-OVLDLUHVSA-N.pdb
REMARK                            x       y       z     vdW  Elec       q    Type
REMARK                         _______ _______ _______ _____ _____    ______ ____
ROOT
ATOM      1  O   LIG    1        3.403   8.213   0.000  0.00  0.00    +0.000 OA
ATOM      2  O   LIG    1        2.831   7.915   0.000  0.00  0.00    +0.000 OA
ENDROOT
TORSDOF 0
REMARK  Name = molecules/IDLFZVILOHSSID-OVLDLUHVSA-N.pdb
REMARK                            x       y       z     vdW  Elec       q    Type
REMARK                         _______ _______ _______ _____ _____    ______ ____
ROOT
ATOM      1  C   LIG    1        5.510   2.396   0.000  0.00  0.00    -0.000 C 
ENDROOT
TORSDOF 0
REMARK  Name = molecules/IDLFZVILOHSSID-OVLDLUHVSA-N.pdb
REMARK                            x       y       z     vdW  Elec       q    Type
REMARK                         _______ _______ _______ _____ _____    ______ ____
ROOT
ATOM      1  C   LIG    1        5.198   3.864   0.000  0.00  0.00    +0.000 C 
ENDROOT
TORSDOF 0
REMARK  Name = molecules/IDLFZVILOHSSID-OVLDLUHVSA-N.pdb
REMARK                            x       y       z     vdW  Elec       q    Type
REMARK                         _______ _______ _______ _____ _____    ______ ____
ROOT
ATOM      1  O   HOH    1        3.825   8.097   0.000  0.00  0.00    -0.253 OA
ATOM      2  H   HOH    0        4.609   8.043   0.000  0.00  0.00    +0.253 HD
ENDROOT
TORSDOF 0
REMARK  Name = molecules/IDLFZVILOHSSID-OVLDLUHVSA-N.pdb
REMARK                            x       y       z     vdW  Elec       q    Type
REMARK                         _______ _______ _______ _____ _____    ______ ____
ROOT
ATOM      1  C   LIG    1        9.779  10.204   0.000  0.00  0.00    +0.000 C 
ATOM      2  C   LIG    1       10.390   9.933   0.000  0.00  0.00    +0.000 C 
ENDROOT
TORSDOF 0
REMARK  Name = molecules/IDLFZVILOHSSID-OVLDLUHVSA-N.pdb
REMARK                            x       y       z     vdW  Elec       q    Type
REMARK                         _______ _______ _______ _____ _____    ______ ____
ROOT
ATOM      1  C   LIG    1        6.845   9.581   0.000  0.00  0.00    +0.000 C 
ENDROOT
TORSDOF 0
REMARK  Name = molecules/IDLFZVILOHSSID-OVLDLUHVSA-N.pdb
REMARK                            x       y       z     vdW  Elec       q    Type
REMARK                         _______ _______ _______ _____ _____    ______ ____
ROOT
ATOM      1  C   LIG    1        5.377   9.269   0.000  0.00  0.00    -0.000 C 
ENDROOT
TORSDOF 0
REMARK  Name = molecules/IDLFZVILOHSSID-OVLDLUHVSA-N.pdb
REMARK                            x       y       z     vdW  Elec       q    Type
REMARK                         _______ _______ _______ _____ _____    ______ ____
ROOT
ATOM      1  N   LIG    1       12.713  10.828   0.000  0.00  0.00    +0.000 NA
ENDROOT
TORSDOF 0
REMARK  Name = molecules/IDLFZVILOHSSID-OVLDLUHVSA-N.pdb
REMARK                            x       y       z     vdW  Elec       q    Type
REMARK                         _______ _______ _______ _____ _____    ______ ____
ROOT
ATOM      1  C   LIG    1       11.246  10.516   0.000  0.00  0.00    +0.000 C 
ENDROOT
TORSDOF 0
REMARK  Name = molecules/IDLFZVILOHSSID-OVLDLUHVSA-N.pdb
REMARK                            x       y       z     vdW  Elec       q    Type
REMARK                         _______ _______ _______ _____ _____    ______ ____
ROOT
ATOM      1  C   LIG    1        1.751   8.293   0.000  0.00  0.00    +0.000 C 
ENDROOT
TORSDOF 0
REMARK  Name = molecules/IDLFZVILOHSSID-OVLDLUHVSA-N.pdb
REMARK                            x       y       z     vdW  Elec       q    Type
REMARK                         _______ _______ _______ _____ _____    ______ ____
ROOT
ATOM      1  O   HOH    1        2.356  12.087   0.000  0.00  0.00    +0.000 OA
ENDROOT
TORSDOF 0
REMARK  Name = molecules/IDLFZVILOHSSID-OVLDLUHVSA-N.pdb
REMARK                            x       y       z     vdW  Elec       q    Type
REMARK                         _______ _______ _______ _____ _____    ______ ____
ROOT
ATOM      1  C   LIG    1       -2.078  12.846   0.000  0.00  0.00    -0.000 C 
ENDROOT
TORSDOF 0
REMARK  Name = molecules/IDLFZVILOHSSID-OVLDLUHVSA-N.pdb
REMARK                            x       y       z     vdW  Elec       q    Type
REMARK                         _______ _______ _______ _____ _____    ______ ____
ROOT
ATOM      1  C   LIG    1       -3.546  12.534   0.000  0.00  0.00    +0.000 A 
ATOM      2  C   LIG    1       -4.549  13.649   0.000  0.00  0.00    +0.004 A 
ATOM      3  C   LIG    1       -6.016  13.337   0.000  0.00  0.00    +0.051 A 
ATOM      4  C   LIG    1       -6.480  11.910   0.000  0.00  0.00    +0.179 A 
ATOM      5  O   LIG    1       -7.947  11.598   0.000  0.00  0.00    -0.288 OA
ATOM      6  C   LIG    1       -5.476  10.796   0.000  0.00  0.00    +0.051 A 
ATOM      7  C   LIG    1       -4.009  11.107   0.000  0.00  0.00    +0.004 A 
ENDROOT
TORSDOF 0
REMARK  Name = molecules/IDLFZVILOHSSID-OVLDLUHVSA-N.pdb
REMARK                            x       y       z     vdW  Elec       q    Type
REMARK                         _______ _______ _______ _____ _____    ______ ____
ROOT
ATOM      1  C   LIG    1        3.058  13.893   0.000  0.00  0.00    +0.000 C 
ENDROOT
TORSDOF 0
REMARK  Name = molecules/IDLFZVILOHSSID-OVLDLUHVSA-N.pdb
REMARK                            x       y       z     vdW  Elec       q    Type
REMARK                         _______ _______ _______ _____ _____    ______ ____
ROOT
ATOM      1  C   LIG    1        0.438  16.110   0.000  0.00  0.00    +0.005 C 
ATOM      2  C   LIG    1        0.093  16.678   0.000  0.00  0.00    -0.005 C 
ENDROOT
TORSDOF 0
REMARK  Name = molecules/IDLFZVILOHSSID-OVLDLUHVSA-N.pdb
REMARK                            x       y       z     vdW  Elec       q    Type
REMARK                         _______ _______ _______ _____ _____    ______ ____
ROOT
ATOM      1  C   LIG    1        6.264  12.274   0.000  0.00  0.00    +0.000 C 
ENDROOT
TORSDOF 0
REMARK  Name = molecules/IDLFZVILOHSSID-OVLDLUHVSA-N.pdb
REMARK                            x       y       z     vdW  Elec       q    Type
REMARK                         _______ _______ _______ _____ _____    ______ ____
ROOT
ATOM      1  C   LIG    1        3.329  11.650   0.000  0.00  0.00    +0.000 C 
ENDROOT
TORSDOF 0
REMARK  Name = molecules/IDLFZVILOHSSID-OVLDLUHVSA-N.pdb
REMARK                            x       y       z     vdW  Elec       q    Type
REMARK                         _______ _______ _______ _____ _____    ______ ____
ROOT
ATOM      1  N   LIG    1        0.859  12.453   0.000  0.00  0.00    +0.000 NA
ENDROOT
TORSDOF 0
REMARK  Name = molecules/IDLFZVILOHSSID-OVLDLUHVSA-N.pdb
REMARK                            x       y       z     vdW  Elec       q    Type
REMARK                         _______ _______ _______ _____ _____    ______ ____
ROOT
ATOM      1  O   HOH    1        1.399   9.912   0.000  0.00  0.00    +0.000 OA
ENDROOT
TORSDOF 0
REMARK  Name = molecules/IDLFZVILOHSSID-OVLDLUHVSA-N.pdb
REMARK                            x       y       z     vdW  Elec       q    Type
REMARK                         _______ _______ _______ _____ _____    ______ ____
ROOT
ATOM      1  O   HOH    1        6.550  13.746   0.000  0.00  0.00    -0.253 OA
ATOM      2  H   HOH    0        5.833  13.245   0.000  0.00  0.00    +0.253 HD
ENDROOT
TORSDOF 0
REMARK  Name = molecules/IDLFZVILOHSSID-OVLDLUHVSA-N.pdb
REMARK                            x       y       z     vdW  Elec       q    Type
REMARK                         _______ _______ _______ _____ _____    ______ ____
ROOT
ATOM      1  C   LIG    1       10.202  11.783   0.000  0.00  0.00    +0.000 C 
ENDROOT
TORSDOF 0
REMARK  Name = molecules/IDLFZVILOHSSID-OVLDLUHVSA-N.pdb
REMARK                            x       y       z     vdW  Elec       q    Type
REMARK                         _______ _______ _______ _____ _____    ______ ____
ROOT
ATOM      1  C   LIG    1        8.735  11.471   0.000  0.00  0.00    +0.000 C 
ENDROOT
TORSDOF 0
REMARK  Name = molecules/IDLFZVILOHSSID-OVLDLUHVSA-N.pdb
REMARK                            x       y       z     vdW  Elec       q    Type
REMARK                         _______ _______ _______ _____ _____    ______ ____
ROOT
ATOM      1  C   LIG    1       12.361  12.447   0.000  0.00  0.00    +0.000 C 
ENDROOT
TORSDOF 0
REMARK  Name = molecules/IDLFZVILOHSSID-OVLDLUHVSA-N.pdb
REMARK                            x       y       z     vdW  Elec       q    Type
REMARK                         _______ _______ _______ _____ _____    ______ ____
ROOT
ATOM      1  C   LIG    1       12.985   9.513   0.000  0.00  0.00    +0.000 C 
ENDROOT
TORSDOF 0
REMARK  Name = molecules/IDLFZVILOHSSID-OVLDLUHVSA-N.pdb
REMARK                            x       y       z     vdW  Elec       q    Type
REMARK                         _______ _______ _______ _____ _____    ______ ____
ROOT
ATOM      1  C   LIG    1       12.673  10.980   0.000  0.00  0.00    +0.000 C 
ENDROOT
TORSDOF 0
REMARK  Name = molecules/IDLFZVILOHSSID-OVLDLUHVSA-N.pdb
REMARK                            x       y       z     vdW  Elec       q    Type
REMARK                         _______ _______ _______ _____ _____    ______ ____
ROOT
ATOM      1  C   LIG    1       11.697  14.606   0.000  0.00  0.00    +0.000 C 
ENDROOT
TORSDOF 0
REMARK  Name = molecules/IDLFZVILOHSSID-OVLDLUHVSA-N.pdb
REMARK                            x       y       z     vdW  Elec       q    Type
REMARK                         _______ _______ _______ _____ _____    ______ ____
ROOT
ATOM      1  C   LIG    1       14.631  15.230   0.000  0.00  0.00    +0.027 C 
ATOM      2  C   LIG    1       16.098  15.542   0.000  0.00  0.00    +0.152 C 
ENDROOT
BRANCH   2   3
ATOM      3  O   LIG    1       15.662  16.627   0.000  0.00  0.00    -0.389 OA
ATOM      4  H   LIG    1       16.151  17.041   0.000  0.00  0.00    +0.210 HD
ENDBRANCH   2   3
TORSDOF 1
REMARK  Name = molecules/IDLFZVILOHSSID-OVLDLUHVSA-N.pdb
REMARK                            x       y       z     vdW  Elec       q    Type
REMARK                         _______ _______ _______ _____ _____    ______ ____
ROOT
ATOM      1  C   LIG    1       17.566  15.854   0.000  0.00  0.00    +0.000 C 
ENDROOT
TORSDOF 0
REMARK  Name = molecules/IDLFZVILOHSSID-OVLDLUHVSA-N.pdb
REMARK                            x       y       z     vdW  Elec       q    Type
REMARK                         _______ _______ _______ _____ _____    ______ ____
ROOT
ATOM      1  O   HOH    1       18.029  17.280   0.000  0.00  0.00    -0.253 OA
ATOM      2  H   HOH    0       17.130  16.939   0.000  0.00  0.00    +0.253 HD
ENDROOT
TORSDOF 0
REMARK  Name = molecules/IDLFZVILOHSSID-OVLDLUHVSA-N.pdb
REMARK                            x       y       z     vdW  Elec       q    Type
REMARK                         _______ _______ _______ _____ _____    ______ ____
ROOT
ATOM      1  O   HOH    1       18.569  14.739   0.000  0.00  0.00    +0.000 OA
ENDROOT
TORSDOF 0
REMARK  Name = molecules/IDLFZVILOHSSID-OVLDLUHVSA-N.pdb
REMARK                            x       y       z     vdW  Elec       q    Type
REMARK                         _______ _______ _______ _____ _____    ______ ____
ROOT
ATOM      1  C   LIG    1       13.164  14.918   0.000  0.00  0.00    +0.000 C 
ENDROOT
TORSDOF 0
REMARK  Name = molecules/IDLFZVILOHSSID-OVLDLUHVSA-N.pdb
REMARK                            x       y       z     vdW  Elec       q    Type
REMARK                         _______ _______ _______ _____ _____    ______ ____
ROOT
ATOM      1  O   HOH    1       11.159  16.007   0.000  0.00  0.00    -0.253 OA
ATOM      2  H   HOH    0       11.149  15.264   0.000  0.00  0.00    +0.253 HD
ENDROOT
TORSDOF 0
REMARK  Name = molecules/IDLFZVILOHSSID-OVLDLUHVSA-N.pdb
REMARK                            x       y       z     vdW  Elec       q    Type
REMARK                         _______ _______ _______ _____ _____    ______ ____
ROOT
ATOM      1  C   LIG    1       10.078  11.400   0.000  0.00  0.00    +0.000 C 
ENDROOT
TORSDOF 0
REMARK  Name = molecules/IDLFZVILOHSSID-OVLDLUHVSA-N.pdb
REMARK                            x       y       z     vdW  Elec       q    Type
REMARK                         _______ _______ _______ _____ _____    ______ ____
ROOT
ATOM      1  O   HOH    1        9.275   8.930   0.000  0.00  0.00    -0.253 OA
ATOM      2  H   HOH    0        9.552  10.213   0.000  0.00  0.00    +0.253 HD
ENDROOT
TORSDOF 0
REMARK  Name = molecules/IDLFZVILOHSSID-OVLDLUHVSA-N.pdb
REMARK                            x       y       z     vdW  Elec       q    Type
REMARK                         _______ _______ _______ _____ _____    ______ ____
ROOT
ATOM      1  O   HOH    1       11.749   9.299   0.000  0.00  0.00    +0.000 OA
ENDROOT
TORSDOF 0
REMARK  Name = molecules/IDLFZVILOHSSID-OVLDLUHVSA-N.pdb
REMARK                            x       y       z     vdW  Elec       q    Type
REMARK                         _______ _______ _______ _____ _____    ______ ____
ROOT
ATOM      1  O   LIG    1        7.958  14.440   0.000  0.00  0.00    -0.186 OA
ATOM      2  C   LIG    1        8.369  13.899   0.000  0.00  0.00    +0.221 C 
ATOM      3  O   LIG    1        8.326  15.067   0.000  0.00  0.00    -0.035 OA
ENDROOT
TORSDOF 0
REMARK  Name = molecules/IDLFZVILOHSSID-OVLDLUHVSA-N.pdb
REMARK                            x       y       z     vdW  Elec       q    Type
REMARK                         _______ _______ _______ _____ _____    ______ ____
ROOT
ATOM      1  C   LIG    1        8.790  16.494   0.000  0.00  0.00    +0.000 C 
ENDROOT
TORSDOF 0
REMARK  Name = molecules/IDLFZVILOHSSID-OVLDLUHVSA-N.pdb
REMARK                            x       y       z     vdW  Elec       q    Type
REMARK                         _______ _______ _______ _____ _____    ______ ____
ROOT
ATOM      1  C   LIG    1       11.724  17.118   0.000  0.00  0.00    +0.169 C 
ATOM      2  O   LIG    1       11.937  17.735   0.000  0.00  0.00    -0.379 OA
ATOM      3  H   LIG    1       11.777  18.617   0.000  0.00  0.00    +0.211 HD
ENDROOT
TORSDOF 0
REMARK  Name = molecules/IDLFZVILOHSSID-OVLDLUHVSA-N.pdb
REMARK                            x       y       z     vdW  Elec       q    Type
REMARK                         _______ _______ _______ _____ _____    ______ ____
ROOT
ATOM      1  C   LIG    1       13.191  17.430   0.000  0.00  0.00    -0.000 C 
ENDROOT
TORSDOF 0
REMARK  Name = molecules/IDLFZVILOHSSID-OVLDLUHVSA-N.pdb
REMARK                            x       y       z     vdW  Elec       q    Type
REMARK                         _______ _______ _______ _____ _____    ______ ____
ROOT
ATOM      1  C   LIG    1       14.659  17.741   0.000  0.00  0.00    +0.225 C 
ATOM      2  O   LIG    1       15.122  19.168   0.000  0.00  0.00    -0.225 OA
ENDROOT
TORSDOF 0
REMARK  Name = molecules/IDLFZVILOHSSID-OVLDLUHVSA-N.pdb
REMARK                            x       y       z     vdW  Elec       q    Type
REMARK                         _______ _______ _______ _____ _____    ______ ____
ROOT
ATOM      1  C   LIG    1       10.257  16.806   0.000  0.00  0.00    +0.000 C 
ENDROOT
TORSDOF 0
REMARK  Name = molecules/IDLFZVILOHSSID-OVLDLUHVSA-N.pdb
REMARK                            x       y       z     vdW  Elec       q    Type
REMARK                         _______ _______ _______ _____ _____    ______ ____
ROOT
ATOM      1  C   LIG    1        6.631  15.830   0.000  0.00  0.00    +0.000 C 
ENDROOT
TORSDOF 0
REMARK  Name = molecules/IDLFZVILOHSSID-OVLDLUHVSA-N.pdb
REMARK                            x       y       z     vdW  Elec       q    Type
REMARK                         _______ _______ _______ _____ _____    ______ ____
ROOT
ATOM      1  C   LIG    1        6.007  18.764   0.000  0.00  0.00    +0.000 C 
ENDROOT
TORSDOF 0
REMARK  Name = molecules/IDLFZVILOHSSID-OVLDLUHVSA-N.pdb
REMARK                            x       y       z     vdW  Elec       q    Type
REMARK                         _______ _______ _______ _____ _____    ______ ____
ROOT
ATOM      1  O   HOH    1        5.695  20.231   0.000  0.00  0.00    +0.000 OA
ENDROOT
TORSDOF 0
REMARK  Name = molecules/IDLFZVILOHSSID-OVLDLUHVSA-N.pdb
REMARK                            x       y       z     vdW  Elec       q    Type
REMARK                         _______ _______ _______ _____ _____    ______ ____
ROOT
ATOM      1  C   LIG    1        6.319  17.297   0.000  0.00  0.00    +0.000 C 
ENDROOT
TORSDOF 0
REMARK  Name = molecules/IDLFZVILOHSSID-OVLDLUHVSA-N.pdb
REMARK                            x       y       z     vdW  Elec       q    Type
REMARK                         _______ _______ _______ _____ _____    ______ ____
ROOT
ATOM      1  O   HOH    1        6.474  14.338   0.000  0.00  0.00    +0.000 OA
ENDROOT
TORSDOF 0
REMARK  Name = molecules/IDLFZVILOHSSID-OVLDLUHVSA-N.pdb
REMARK                            x       y       z     vdW  Elec       q    Type
REMARK                         _______ _______ _______ _____ _____    ______ ____
ROOT
ATOM      1  C   LIG    1        6.902  13.587   0.000  0.00  0.00    +0.000 C 
ENDROOT
TORSDOF 0
REMARK  Name = molecules/IDLFZVILOHSSID-OVLDLUHVSA-N.pdb
REMARK                            x       y       z     vdW  Elec       q    Type
REMARK                         _______ _______ _______ _____ _____    ______ ____
ROOT
ATOM      1  C   LIG    1        9.836  14.211   0.000  0.00  0.00    +0.000 C 
ENDROOT
TORSDOF 0
REMARK  Name = molecules/IDLFZVILOHSSID-OVLDLUHVSA-N.pdb
REMARK                            x       y       z     vdW  Elec       q    Type
REMARK                         _______ _______ _______ _____ _____    ______ ____
ROOT
ATOM      1  C   LIG    1        5.283  10.381   0.000  0.00  0.00    +0.000 C 
ENDROOT
TORSDOF 0
REMARK  Name = molecules/IDLFZVILOHSSID-OVLDLUHVSA-N.pdb
REMARK                            x       y       z     vdW  Elec       q    Type
REMARK                         _______ _______ _______ _____ _____    ______ ____
ROOT
ATOM      1  C   LIG    1        5.595   8.914   0.000  0.00  0.00    +0.000 C 
ENDROOT
TORSDOF 0
REMARK  Name = molecules/IDLFZVILOHSSID-OVLDLUHVSA-N.pdb
REMARK                            x       y       z     vdW  Elec       q    Type
REMARK                         _______ _______ _______ _____ _____    ______ ____
ROOT
ATOM      1  O   HOH    1        6.148  13.498   0.000  0.00  0.00    +0.000 OA
ENDROOT
TORSDOF 0
REMARK  Name = molecules/IDLFZVILOHSSID-OVLDLUHVSA-N.pdb
REMARK                            x       y       z     vdW  Elec       q    Type
REMARK                         _______ _______ _______ _____ _____    ______ ____
ROOT
ATOM      1  C   LIG    1        1.454  14.935   0.000  0.00  0.00    +0.000 C 
ENDROOT
TORSDOF 0
REMARK  Name = molecules/IDLFZVILOHSSID-OVLDLUHVSA-N.pdb
REMARK                            x       y       z     vdW  Elec       q    Type
REMARK                         _______ _______ _______ _____ _____    ______ ____
ROOT
ATOM      1  C   LIG    1        2.921  15.246   0.000  0.00  0.00    +0.000 C 
ENDROOT
TORSDOF 0
REMARK  Name = molecules/IDLFZVILOHSSID-OVLDLUHVSA-N.pdb
REMARK                            x       y       z     vdW  Elec       q    Type
REMARK                         _______ _______ _______ _____ _____    ______ ____
ROOT
ATOM      1  C   LIG    1        2.733  17.096   0.000  0.00  0.00    +0.000 C 
ENDROOT
TORSDOF 0
REMARK  Name = molecules/IDLFZVILOHSSID-OVLDLUHVSA-N.pdb
REMARK                            x       y       z     vdW  Elec       q    Type
REMARK                         _______ _______ _______ _____ _____    ______ ____
ROOT
ATOM      1  C   LIG    1        5.765  21.574   0.000  0.00  0.00    -0.000 C 
ENDROOT
TORSDOF 0
REMARK  Name = molecules/IDLFZVILOHSSID-OVLDLUHVSA-N.pdb
REMARK                            x       y       z     vdW  Elec       q    Type
REMARK                         _______ _______ _______ _____ _____    ______ ____
ROOT
ATOM      1  C   LIG    1        6.880  22.578   0.000  0.00  0.00    +0.026 C 
ATOM      2  C   LIG    1        8.307  22.114   0.000  0.00  0.00    -0.030 C 
ATOM      3  C   LIG    1        8.619  20.647   0.000  0.00  0.00    +0.004 C 
ENDROOT
TORSDOF 0
REMARK  Name = molecules/IDLFZVILOHSSID-OVLDLUHVSA-N.pdb
REMARK                            x       y       z     vdW  Elec       q    Type
REMARK                         _______ _______ _______ _____ _____    ______ ____
ROOT
ATOM      1  C   LIG    1        7.504  19.643   0.000  0.00  0.00    +0.000 C 
ENDROOT
TORSDOF 0
REMARK  Name = molecules/IDLFZVILOHSSID-OVLDLUHVSA-N.pdb
REMARK                            x       y       z     vdW  Elec       q    Type
REMARK                         _______ _______ _______ _____ _____    ______ ____
ROOT
ATOM      1  O   HOH    1        2.864  15.602   0.000  0.00  0.00    +0.000 OA
ENDROOT
TORSDOF 0
REMARK  Name = molecules/IDLFZVILOHSSID-OVLDLUHVSA-N.pdb
REMARK                            x       y       z     vdW  Elec       q    Type
REMARK                         _______ _______ _______ _____ _____    ______ ____
ROOT
ATOM      1  C   LIG    1        2.310  19.298   0.000  0.00  0.00    +0.225 C 
ATOM      2  O   LIG    1        3.064  19.387   0.000  0.00  0.00    -0.225 OA
ENDROOT
TORSDOF 0
REMARK  Name = molecules/IDLFZVILOHSSID-OVLDLUHVSA-N.pdb
REMARK                            x       y       z     vdW  Elec       q    Type
REMARK                         _______ _______ _______ _____ _____    ______ ____
ROOT
ATOM      1  C   LIG    1        0.843  18.986   0.000  0.00  0.00    +0.000 C 
ENDROOT
TORSDOF 0
REMARK  Name = molecules/IDLFZVILOHSSID-OVLDLUHVSA-N.pdb
REMARK                            x       y       z     vdW  Elec       q    Type
REMARK                         _______ _______ _______ _____ _____    ______ ____
ROOT
ATOM      1  C   LIG    1       -0.657  18.986   0.000  0.00  0.00    +0.000 C 
ENDROOT
TORSDOF 0
REMARK  Name = molecules/IDLFZVILOHSSID-OVLDLUHVSA-N.pdb
REMARK                            x       y       z     vdW  Elec       q    Type
REMARK                         _______ _______ _______ _____ _____    ______ ____
ROOT
ATOM      1  C   LIG    1       -1.121  17.559   0.000  0.00  0.00    +0.000 C 
ENDROOT
TORSDOF 0
REMARK  Name = molecules/IDLFZVILOHSSID-OVLDLUHVSA-N.pdb
REMARK                            x       y       z     vdW  Elec       q    Type
REMARK                         _______ _______ _______ _____ _____    ______ ____
ROOT
ATOM      1  C   LIG    1        4.553  19.569   0.000  0.00  0.00    +0.000 C 
ENDROOT
TORSDOF 0
REMARK  Name = molecules/IDLFZVILOHSSID-OVLDLUHVSA-N.pdb
REMARK                            x       y       z     vdW  Elec       q    Type
REMARK                         _______ _______ _______ _____ _____    ______ ____
ROOT
ATOM      1  C   LIG    1        3.305  25.438   0.000  0.00  0.00    +0.008 C 
ATOM      2  C   LIG    1        3.617  23.971   0.000  0.00  0.00    -0.007 C 
ATOM      3  C   LIG    1        3.929  22.504   0.000  0.00  0.00    -0.001 C 
ENDROOT
TORSDOF 0
REMARK  Name = molecules/IDLFZVILOHSSID-OVLDLUHVSA-N.pdb
REMARK                            x       y       z     vdW  Elec       q    Type
REMARK                         _______ _______ _______ _____ _____    ______ ____
ROOT
ATOM      1  C   LIG    1        4.241  21.036   0.000  0.00  0.00    +0.009 C 
ATOM      2  C   LIG    1        3.072  20.994   0.000  0.00  0.00    -0.009 C 
ENDROOT
TORSDOF 0
REMARK  Name = molecules/IDLFZVILOHSSID-OVLDLUHVSA-N.pdb
REMARK                            x       y       z     vdW  Elec       q    Type
REMARK                         _______ _______ _______ _____ _____    ______ ____
ROOT
ATOM      1  C   LIG    1        2.150  23.659   0.000  0.00  0.00    -0.000 C 
ENDROOT
TORSDOF 0
REMARK  Name = molecules/IDLFZVILOHSSID-OVLDLUHVSA-N.pdb
REMARK                            x       y       z     vdW  Elec       q    Type
REMARK                         _______ _______ _______ _____ _____    ______ ____
ROOT
ATOM      1  C   LIG    1        4.824  17.327   0.000  0.00  0.00    +0.000 C 
ENDROOT
TORSDOF 0
REMARK  Name = molecules/IDLFZVILOHSSID-OVLDLUHVSA-N.pdb
REMARK                            x       y       z     vdW  Elec       q    Type
REMARK                         _______ _______ _______ _____ _____    ______ ____
ROOT
ATOM      1  C   LIG    1        7.758  17.950   0.000  0.00  0.00    +0.000 C 
ENDROOT
TORSDOF 0
REMARK  Name = molecules/IDLFZVILOHSSID-OVLDLUHVSA-N.pdb
REMARK                            x       y       z     vdW  Elec       q    Type
REMARK                         _______ _______ _______ _____ _____    ______ ____
ROOT
ATOM      1  C   LIG    1        9.226  18.262   0.000  0.00  0.00    +0.000 C 
ENDROOT
TORSDOF 0
REMARK  Name = molecules/IDLFZVILOHSSID-OVLDLUHVSA-N.pdb
REMARK                            x       y       z     vdW  Elec       q    Type
REMARK                         _______ _______ _______ _____ _____    ______ ____
ROOT
ATOM      1  C   LIG    1       10.693  18.574   0.000  0.00  0.00    +0.169 C 
ATOM      2  O   LIG    1       11.156  20.001   0.000  0.00  0.00    -0.379 OA
ATOM      3  H   LIG    1       10.045  20.184   0.000  0.00  0.00    +0.211 HD
ENDROOT
TORSDOF 0
REMARK  Name = molecules/IDLFZVILOHSSID-OVLDLUHVSA-N.pdb
REMARK                            x       y       z     vdW  Elec       q    Type
REMARK                         _______ _______ _______ _____ _____    ______ ____
ROOT
ATOM      1  C   LIG    1        6.291  17.638   0.000  0.00  0.00    +0.000 C 
ENDROOT
TORSDOF 0
REMARK  Name = molecules/IDLFZVILOHSSID-OVLDLUHVSA-N.pdb
REMARK                            x       y       z     vdW  Elec       q    Type
REMARK                         _______ _______ _______ _____ _____    ______ ____
ROOT
ATOM      1  C   LIG    1        3.205  14.121   0.000  0.00  0.00    +0.000 C 
ENDROOT
TORSDOF 0
REMARK  Name = molecules/IDLFZVILOHSSID-OVLDLUHVSA-N.pdb
REMARK                            x       y       z     vdW  Elec       q    Type
REMARK                         _______ _______ _______ _____ _____    ______ ____
ROOT
ATOM      1  C   LIG    1        2.582  17.055   0.000  0.00  0.00    -0.000 C 
ENDROOT
TORSDOF 0
REMARK  Name = molecules/IDLFZVILOHSSID-OVLDLUHVSA-N.pdb
REMARK                            x       y       z     vdW  Elec       q    Type
REMARK                         _______ _______ _______ _____ _____    ______ ____
ROOT
ATOM      1  C   LIG    1        2.270  18.523   0.000  0.00  0.00    -0.000 C 
ENDROOT
TORSDOF 0
REMARK  Name = molecules/IDLFZVILOHSSID-OVLDLUHVSA-N.pdb
REMARK                            x       y       z     vdW  Elec       q    Type
REMARK                         _______ _______ _______ _____ _____    ______ ____
ROOT
ATOM      1  C   LIG    1        3.384  19.526   0.000  0.00  0.00    +0.000 C 
ENDROOT
TORSDOF 0
REMARK  Name = molecules/IDLFZVILOHSSID-OVLDLUHVSA-N.pdb
REMARK                            x       y       z     vdW  Elec       q    Type
REMARK                         _______ _______ _______ _____ _____    ______ ____
ROOT
ATOM      1  C   LIG    1        1.646  21.457   0.000  0.00  0.00    +0.000 C 
ENDROOT
TORSDOF 0
REMARK  Name = molecules/IDLFZVILOHSSID-OVLDLUHVSA-N.pdb
REMARK                            x       y       z     vdW  Elec       q    Type
REMARK                         _______ _______ _______ _____ _____    ______ ____
ROOT
ATOM      1  C   LIG    1        0.531  20.453   0.000  0.00  0.00    -0.000 C 
ENDROOT
TORSDOF 0
REMARK  Name = molecules/IDLFZVILOHSSID-OVLDLUHVSA-N.pdb
REMARK                            x       y       z     vdW  Elec       q    Type
REMARK                         _______ _______ _______ _____ _____    ______ ____
ROOT
ATOM      1  C   LIG    1        0.843  18.986   0.000  0.00  0.00    +0.000 C 
ENDROOT
TORSDOF 0
REMARK  Name = molecules/IDLFZVILOHSSID-OVLDLUHVSA-N.pdb
REMARK                            x       y       z     vdW  Elec       q    Type
REMARK                         _______ _______ _______ _____ _____    ______ ____
ROOT
ATOM      1  C   LIG    1        2.893  15.588   0.000  0.00  0.00    +0.000 C 
ENDROOT
TORSDOF 0
REMARK  Name = molecules/IDLFZVILOHSSID-OVLDLUHVSA-N.pdb
REMARK                            x       y       z     vdW  Elec       q    Type
REMARK                         _______ _______ _______ _____ _____    ______ ____
ROOT
ATOM      1  H   UNK    1       34.744   4.904   0.000  0.00  0.00    +0.000 HD
ENDROOT
TORSDOF 0
REMARK  Name = molecules/IDLFZVILOHSSID-OVLDLUHVSA-N.pdb
REMARK                            x       y       z     vdW  Elec       q    Type
REMARK                         _______ _______ _______ _____ _____    ______ ____
ROOT
ATOM      1  H   UNK    1       29.222   3.562   0.000  0.00  0.00    +0.000 HD
ENDROOT
TORSDOF 0
REMARK  Name = molecules/IDLFZVILOHSSID-OVLDLUHVSA-N.pdb
REMARK                            x       y       z     vdW  Elec       q    Type
REMARK                         _______ _______ _______ _____ _____    ______ ____
ROOT
ATOM      1  H   UNK    1        6.926   5.361   0.000  0.00  0.00    +0.000 HD
ENDROOT
TORSDOF 0
REMARK  Name = molecules/IDLFZVILOHSSID-OVLDLUHVSA-N.pdb
REMARK                            x       y       z     vdW  Elec       q    Type
REMARK                         _______ _______ _______ _____ _____    ______ ____
ROOT
ATOM      1  H   UNK    1        2.389  11.353   0.000  0.00  0.00    +0.000 HD
ENDROOT
TORSDOF 0
REMARK  Name = molecules/IDLFZVILOHSSID-OVLDLUHVSA-N.pdb
REMARK                            x       y       z     vdW  Elec       q    Type
REMARK                         _______ _______ _______ _____ _____    ______ ____
ROOT
ATOM      1  H   UNK    1        2.077   3.192   0.000  0.00  0.00    +0.000 HD
ENDROOT
TORSDOF 0
REMARK  Name = molecules/IDLFZVILOHSSID-OVLDLUHVSA-N.pdb
REMARK                            x       y       z     vdW  Elec       q    Type
REMARK                         _______ _______ _______ _____ _____    ______ ____
ROOT
ATOM      1  H   UNK    1       -2.607   5.263   0.000  0.00  0.00    +0.000 HD
ENDROOT
TORSDOF 0
REMARK  Name = molecules/IDLFZVILOHSSID-OVLDLUHVSA-N.pdb
REMARK                            x       y       z     vdW  Elec       q    Type
REMARK                         _______ _______ _______ _____ _____    ______ ____
ROOT
ATOM      1  H   UNK    1       -1.117  10.311   0.000  0.00  0.00    +0.000 HD
ENDROOT
TORSDOF 0
REMARK  Name = molecules/IDLFZVILOHSSID-OVLDLUHVSA-N.pdb
REMARK                            x       y       z     vdW  Elec       q    Type
REMARK                         _______ _______ _______ _____ _____    ______ ____
ROOT
ATOM      1  H   UNK    1        2.340   3.977   0.000  0.00  0.00    +0.000 HD
ENDROOT
TORSDOF 0
REMARK  Name = molecules/IDLFZVILOHSSID-OVLDLUHVSA-N.pdb
REMARK                            x       y       z     vdW  Elec       q    Type
REMARK                         _______ _______ _______ _____ _____    ______ ____
ROOT
ATOM      1  H   UNK    1        7.124   8.240   0.000  0.00  0.00    +0.000 HD
ENDROOT
TORSDOF 0
REMARK  Name = molecules/IDLFZVILOHSSID-OVLDLUHVSA-N.pdb
REMARK                            x       y       z     vdW  Elec       q    Type
REMARK                         _______ _______ _______ _____ _____    ______ ____
ROOT
ATOM      1  H   UNK    1        2.468  11.506   0.000  0.00  0.00    +0.000 HD
ENDROOT
TORSDOF 0
REMARK  Name = molecules/IDLFZVILOHSSID-OVLDLUHVSA-N.pdb
REMARK                            x       y       z     vdW  Elec       q    Type
REMARK                         _______ _______ _______ _____ _____    ______ ____
ROOT
ATOM      1  H   UNK    1       -1.414  10.687   0.000  0.00  0.00    +0.000 HD
ENDROOT
TORSDOF 0
REMARK  Name = molecules/IDLFZVILOHSSID-OVLDLUHVSA-N.pdb
REMARK                            x       y       z     vdW  Elec       q    Type
REMARK                         _______ _______ _______ _____ _____    ______ ____
ROOT
ATOM      1  H   UNK    1       11.466   9.191   0.000  0.00  0.00    +0.000 HD
ENDROOT
TORSDOF 0
REMARK  Name = molecules/IDLFZVILOHSSID-OVLDLUHVSA-N.pdb
REMARK                            x       y       z     vdW  Elec       q    Type
REMARK                         _______ _______ _______ _____ _____    ______ ____
ROOT
ATOM      1  H   UNK    1       14.835  12.817   0.000  0.00  0.00    +0.000 HD
ENDROOT
TORSDOF 0
REMARK  Name = molecules/IDLFZVILOHSSID-OVLDLUHVSA-N.pdb
REMARK                            x       y       z     vdW  Elec       q    Type
REMARK                         _______ _______ _______ _____ _____    ______ ____
ROOT
ATOM      1  H   UNK    1       12.237  12.065   0.000  0.00  0.00    +0.000 HD
ENDROOT
TORSDOF 0
REMARK  Name = molecules/IDLFZVILOHSSID-OVLDLUHVSA-N.pdb
REMARK                            x       y       z     vdW  Elec       q    Type
REMARK                         _______ _______ _______ _____ _____    ______ ____
ROOT
ATOM      1  H   UNK    1        6.346  17.116   0.000  0.00  0.00    +0.000 HD
ENDROOT
TORSDOF 0
REMARK  Name = molecules/IDLFZVILOHSSID-OVLDLUHVSA-N.pdb
REMARK                            x       y       z     vdW  Elec       q    Type
REMARK                         _______ _______ _______ _____ _____    ______ ____
ROOT
ATOM      1  H   UNK    1       35.632   2.269   0.000  0.00  0.00    +0.000 HD
ENDROOT
TORSDOF 0
REMARK  Name = molecules/IDLFZVILOHSSID-OVLDLUHVSA-N.pdb
REMARK                            x       y       z     vdW  Elec       q    Type
REMARK                         _______ _______ _______ _____ _____    ______ ____
ROOT
ATOM      1  H   UNK    1       35.682  10.659   0.000  0.00  0.00    +0.000 HD
ENDROOT
TORSDOF 0
REMARK  Name = molecules/IDLFZVILOHSSID-OVLDLUHVSA-N.pdb
REMARK                            x       y       z     vdW  Elec       q    Type
REMARK                         _______ _______ _______ _____ _____    ______ ____
ROOT
ATOM      1  H   UNK    1       21.447  -0.952   0.000  0.00  0.00    +0.000 HD
ENDROOT
TORSDOF 0
REMARK  Name = molecules/IDLFZVILOHSSID-OVLDLUHVSA-N.pdb
REMARK                            x       y       z     vdW  Elec       q    Type
REMARK                         _______ _______ _______ _____ _____    ______ ____
ROOT
ATOM      1  H   UNK    1       20.359  10.002   0.000  0.00  0.00    +0.000 HD
ENDROOT
TORSDOF 0
REMARK  Name = molecules/IDLFZVILOHSSID-OVLDLUHVSA-N.pdb
REMARK                            x       y       z     vdW  Elec       q    Type
REMARK                         _______ _______ _______ _____ _____    ______ ____
ROOT
ATOM      1  H   UNK    1       10.815   1.520   0.000  0.00  0.00    +0.000 HD
ENDROOT
TORSDOF 0
REMARK  Name = molecules/IDLFZVILOHSSID-OVLDLUHVSA-N.pdb
REMARK                            x       y       z     vdW  Elec       q    Type
REMARK                         _______ _______ _______ _____ _____    ______ ____
ROOT
ATOM      1  H   UNK    1       16.710   2.587   0.000  0.00  0.00    +0.000 HD
ENDROOT
TORSDOF 0
REMARK  Name = molecules/IDLFZVILOHSSID-OVLDLUHVSA-N.pdb
REMARK                            x       y       z     vdW  Elec       q    Type
REMARK                         _______ _______ _______ _____ _____    ______ ____
ROOT
ATOM      1  H   UNK    1       10.220   2.330   0.000  0.00  0.00    +0.000 HD
ENDROOT
TORSDOF 0
REMARK  Name = molecules/IDLFZVILOHSSID-OVLDLUHVSA-N.pdb
REMARK                            x       y       z     vdW  Elec       q    Type
REMARK                         _______ _______ _______ _____ _____    ______ ____
ROOT
ATOM      1  H   UNK    1       12.865  -1.136   0.000  0.00  0.00    +0.000 HD
ENDROOT
TORSDOF 0
REMARK  Name = molecules/IDLFZVILOHSSID-OVLDLUHVSA-N.pdb
REMARK                            x       y       z     vdW  Elec       q    Type
REMARK                         _______ _______ _______ _____ _____    ______ ____
ROOT
ATOM      1  H   UNK    1       15.764  -0.520   0.000  0.00  0.00    +0.000 HD
ENDROOT
TORSDOF 0
REMARK  Name = molecules/IDLFZVILOHSSID-OVLDLUHVSA-N.pdb
REMARK                            x       y       z     vdW  Elec       q    Type
REMARK                         _______ _______ _______ _____ _____    ______ ____
ROOT
ATOM      1  H   UNK    1        7.544   3.211   0.000  0.00  0.00    +0.000 HD
ENDROOT
TORSDOF 0
REMARK  Name = molecules/IDLFZVILOHSSID-OVLDLUHVSA-N.pdb
REMARK                            x       y       z     vdW  Elec       q    Type
REMARK                         _______ _______ _______ _____ _____    ______ ____
ROOT
ATOM      1  H   UNK    1        1.901   3.102   0.000  0.00  0.00    +0.000 HD
ENDROOT
TORSDOF 0
REMARK  Name = molecules/IDLFZVILOHSSID-OVLDLUHVSA-N.pdb
REMARK                            x       y       z     vdW  Elec       q    Type
REMARK                         _______ _______ _______ _____ _____    ______ ____
ROOT
ATOM      1  H   UNK    1        5.306   0.357   0.000  0.00  0.00    +0.000 HD
ENDROOT
TORSDOF 0
REMARK  Name = molecules/IDLFZVILOHSSID-OVLDLUHVSA-N.pdb
REMARK                            x       y       z     vdW  Elec       q    Type
REMARK                         _______ _______ _______ _____ _____    ______ ____
ROOT
ATOM      1  H   UNK    1        3.399  -2.100   0.000  0.00  0.00    +0.000 HD
ENDROOT
TORSDOF 0
REMARK  Name = molecules/IDLFZVILOHSSID-OVLDLUHVSA-N.pdb
REMARK                            x       y       z     vdW  Elec       q    Type
REMARK                         _______ _______ _______ _____ _____    ______ ____
ROOT
ATOM      1  H   UNK    1       -2.388  -0.960   0.000  0.00  0.00    +0.000 HD
ENDROOT
TORSDOF 0
REMARK  Name = molecules/IDLFZVILOHSSID-OVLDLUHVSA-N.pdb
REMARK                            x       y       z     vdW  Elec       q    Type
REMARK                         _______ _______ _______ _____ _____    ______ ____
ROOT
ATOM      1  H   UNK    1        0.027  -2.449   0.000  0.00  0.00    +0.000 HD
ENDROOT
TORSDOF 0
REMARK  Name = molecules/IDLFZVILOHSSID-OVLDLUHVSA-N.pdb
REMARK                            x       y       z     vdW  Elec       q    Type
REMARK                         _______ _______ _______ _____ _____    ______ ____
ROOT
ATOM      1  H   UNK    1        0.702  12.228   0.000  0.00  0.00    +0.000 HD
ENDROOT
TORSDOF 0
REMARK  Name = molecules/IDLFZVILOHSSID-OVLDLUHVSA-N.pdb
REMARK                            x       y       z     vdW  Elec       q    Type
REMARK                         _______ _______ _______ _____ _____    ______ ____
ROOT
ATOM      1  H   UNK    1       -1.770  15.315   0.000  0.00  0.00    +0.000 HD
ENDROOT
TORSDOF 0
REMARK  Name = molecules/IDLFZVILOHSSID-OVLDLUHVSA-N.pdb
REMARK                            x       y       z     vdW  Elec       q    Type
REMARK                         _______ _______ _______ _____ _____    ______ ____
ROOT
ATOM      1  H   UNK    1        8.101  15.198   0.000  0.00  0.00    +0.000 HD
ENDROOT
TORSDOF 0
REMARK  Name = molecules/IDLFZVILOHSSID-OVLDLUHVSA-N.pdb
REMARK                            x       y       z     vdW  Elec       q    Type
REMARK                         _______ _______ _______ _____ _____    ______ ____
ROOT
ATOM      1  H   UNK    1       11.943  14.382   0.000  0.00  0.00    +0.000 HD
ENDROOT
TORSDOF 0
REMARK  Name = molecules/IDLFZVILOHSSID-OVLDLUHVSA-N.pdb
REMARK                            x       y       z     vdW  Elec       q    Type
REMARK                         _______ _______ _______ _____ _____    ______ ____
ROOT
ATOM      1  H   UNK    1       11.685  12.073   0.000  0.00  0.00    +0.000 HD
ENDROOT
TORSDOF 0
REMARK  Name = molecules/IDLFZVILOHSSID-OVLDLUHVSA-N.pdb
REMARK                            x       y       z     vdW  Elec       q    Type
REMARK                         _______ _______ _______ _____ _____    ______ ____
ROOT
ATOM      1  H   UNK    1        3.132  14.132   0.000  0.00  0.00    +0.000 HD
ENDROOT
TORSDOF 0
REMARK  Name = molecules/IDLFZVILOHSSID-OVLDLUHVSA-N.pdb
REMARK                            x       y       z     vdW  Elec       q    Type
REMARK                         _______ _______ _______ _____ _____    ______ ____
ROOT
ATOM      1  H   UNK    1        5.834  17.541   0.000  0.00  0.00    +0.000 HD
ENDROOT
TORSDOF 0
REMARK  Name = molecules/IDLFZVILOHSSID-OVLDLUHVSA-N.pdb
REMARK                            x       y       z     vdW  Elec       q    Type
REMARK                         _______ _______ _______ _____ _____    ______ ____
ROOT
ATOM      1  H   UNK    1        7.916   8.816   0.000  0.00  0.00    +0.000 HD
ENDROOT
TORSDOF 0
REMARK  Name = molecules/IDLFZVILOHSSID-OVLDLUHVSA-N.pdb
REMARK                            x       y       z     vdW  Elec       q    Type
REMARK                         _______ _______ _______ _____ _____    ______ ____
ROOT
ATOM      1  H   UNK    1        8.697   8.892   0.000  0.00  0.00    +0.000 HD
ENDROOT
TORSDOF 0
REMARK  Name = molecules/IDLFZVILOHSSID-OVLDLUHVSA-N.pdb
REMARK                            x       y       z     vdW  Elec       q    Type
REMARK                         _______ _______ _______ _____ _____    ______ ____
ROOT
ATOM      1  H   UNK    1       -1.171   3.848   0.000  0.00  0.00    +0.000 HD
ENDROOT
TORSDOF 0
REMARK  Name = molecules/IDLFZVILOHSSID-OVLDLUHVSA-N.pdb
REMARK                            x       y       z     vdW  Elec       q    Type
REMARK                         _______ _______ _______ _____ _____    ______ ____
ROOT
ATOM      1  H   UNK    1        0.691  -4.004   0.000  0.00  0.00    +0.000 HD
ENDROOT
TORSDOF 0
REMARK  Name = molecules/IDLFZVILOHSSID-OVLDLUHVSA-N.pdb
REMARK                            x       y       z     vdW  Elec       q    Type
REMARK                         _______ _______ _______ _____ _____    ______ ____
ROOT
ATOM      1  H   UNK    1        3.233  -3.463   0.000  0.00  0.00    +0.000 HD
ENDROOT
TORSDOF 0
REMARK  Name = molecules/IDLFZVILOHSSID-OVLDLUHVSA-N.pdb
REMARK                            x       y       z     vdW  Elec       q    Type
REMARK                         _______ _______ _______ _____ _____    ______ ____
ROOT
ATOM      1  H   UNK    1       -3.140   5.928   0.000  0.00  0.00    +0.000 HD
ENDROOT
TORSDOF 0
REMARK  Name = molecules/IDLFZVILOHSSID-OVLDLUHVSA-N.pdb
REMARK                            x       y       z     vdW  Elec       q    Type
REMARK                         _______ _______ _______ _____ _____    ______ ____
ROOT
ATOM      1  H   UNK    1       -3.583   8.889   0.000  0.00  0.00    +0.000 HD
ENDROOT
TORSDOF 0
REMARK  Name = molecules/IDLFZVILOHSSID-OVLDLUHVSA-N.pdb
REMARK                            x       y       z     vdW  Elec       q    Type
REMARK                         _______ _______ _______ _____ _____    ______ ____
ROOT
ATOM      1  H   UNK    1       -8.136   5.060   0.000  0.00  0.00    +0.000 HD
ENDROOT
TORSDOF 0
REMARK  Name = molecules/IDLFZVILOHSSID-OVLDLUHVSA-N.pdb
REMARK                            x       y       z     vdW  Elec       q    Type
REMARK                         _______ _______ _______ _____ _____    ______ ____
ROOT
ATOM      1  H   UNK    1       -9.345  10.012   0.000  0.00  0.00    +0.000 HD
ENDROOT
TORSDOF 0
REMARK  Name = molecules/IDLFZVILOHSSID-OVLDLUHVSA-N.pdb
REMARK                            x       y       z     vdW  Elec       q    Type
REMARK                         _______ _______ _______ _____ _____    ______ ____
ROOT
ATOM      1  H   UNK    1       -6.718   9.159   0.000  0.00  0.00    +0.000 HD
ENDROOT
TORSDOF 0
REMARK  Name = molecules/IDLFZVILOHSSID-OVLDLUHVSA-N.pdb
REMARK                            x       y       z     vdW  Elec       q    Type
REMARK                         _______ _______ _______ _____ _____    ______ ____
ROOT
ATOM      1  H   UNK    1      -11.147   8.404   0.000  0.00  0.00    +0.000 HD
ENDROOT
TORSDOF 0
REMARK  Name = molecules/IDLFZVILOHSSID-OVLDLUHVSA-N.pdb
REMARK                            x       y       z     vdW  Elec       q    Type
REMARK                         _______ _______ _______ _____ _____    ______ ____
ROOT
ATOM      1  H   UNK    1       -1.126  15.940   0.000  0.00  0.00    +0.000 HD
ENDROOT
TORSDOF 0
REMARK  Name = molecules/IDLFZVILOHSSID-OVLDLUHVSA-N.pdb
REMARK                            x       y       z     vdW  Elec       q    Type
REMARK                         _______ _______ _______ _____ _____    ______ ____
ROOT
ATOM      1  H   UNK    1        4.374  15.985   0.000  0.00  0.00    +0.000 HD
ENDROOT
TORSDOF 0
REMARK  Name = molecules/IDLFZVILOHSSID-OVLDLUHVSA-N.pdb
REMARK                            x       y       z     vdW  Elec       q    Type
REMARK                         _______ _______ _______ _____ _____    ______ ____
ROOT
ATOM      1  H   UNK    1        2.942  10.442   0.000  0.00  0.00    +0.000 HD
ENDROOT
TORSDOF 0
REMARK  Name = molecules/IDLFZVILOHSSID-OVLDLUHVSA-N.pdb
REMARK                            x       y       z     vdW  Elec       q    Type
REMARK                         _______ _______ _______ _____ _____    ______ ____
ROOT
ATOM      1  H   UNK    1        1.743   4.550   0.000  0.00  0.00    +0.000 HD
ENDROOT
TORSDOF 0
REMARK  Name = molecules/IDLFZVILOHSSID-OVLDLUHVSA-N.pdb
REMARK                            x       y       z     vdW  Elec       q    Type
REMARK                         _______ _______ _______ _____ _____    ______ ____
ROOT
ATOM      1  H   UNK    1       -1.734   4.484   0.000  0.00  0.00    +0.000 HD
ENDROOT
TORSDOF 0
REMARK  Name = molecules/IDLFZVILOHSSID-OVLDLUHVSA-N.pdb
REMARK                            x       y       z     vdW  Elec       q    Type
REMARK                         _______ _______ _______ _____ _____    ______ ____
ROOT
ATOM      1  H   UNK    1        5.999   0.978   0.000  0.00  0.00    +0.000 HD
ENDROOT
TORSDOF 0
REMARK  Name = molecules/IDLFZVILOHSSID-OVLDLUHVSA-N.pdb
REMARK                            x       y       z     vdW  Elec       q    Type
REMARK                         _______ _______ _______ _____ _____    ______ ____
ROOT
ATOM      1  H   UNK    1        7.005   2.527   0.000  0.00  0.00    +0.000 HD
ENDROOT
TORSDOF 0
REMARK  Name = molecules/IDLFZVILOHSSID-OVLDLUHVSA-N.pdb
REMARK                            x       y       z     vdW  Elec       q    Type
REMARK                         _______ _______ _______ _____ _____    ______ ____
ROOT
ATOM      1  H   UNK    1        6.386   5.278   0.000  0.00  0.00    +0.000 HD
ENDROOT
TORSDOF 0
REMARK  Name = molecules/IDLFZVILOHSSID-OVLDLUHVSA-N.pdb
REMARK                            x       y       z     vdW  Elec       q    Type
REMARK                         _______ _______ _______ _____ _____    ______ ____
ROOT
ATOM      1  H   UNK    1        4.280  10.292   0.000  0.00  0.00    +0.000 HD
ENDROOT
TORSDOF 0
REMARK  Name = molecules/IDLFZVILOHSSID-OVLDLUHVSA-N.pdb
REMARK                            x       y       z     vdW  Elec       q    Type
REMARK                         _______ _______ _______ _____ _____    ______ ____
ROOT
ATOM      1  H   UNK    1       13.574   9.600   0.000  0.00  0.00    +0.000 HD
ENDROOT
TORSDOF 0
REMARK  Name = molecules/IDLFZVILOHSSID-OVLDLUHVSA-N.pdb
REMARK                            x       y       z     vdW  Elec       q    Type
REMARK                         _______ _______ _______ _____ _____    ______ ____
ROOT
ATOM      1  H   UNK    1       11.558   9.049   0.000  0.00  0.00    +0.000 HD
ENDROOT
TORSDOF 0
REMARK  Name = molecules/IDLFZVILOHSSID-OVLDLUHVSA-N.pdb
REMARK                            x       y       z     vdW  Elec       q    Type
REMARK                         _______ _______ _______ _____ _____    ______ ____
ROOT
ATOM      1  H   UNK    1       -0.042   9.995   0.000  0.00  0.00    +0.000 HD
ENDROOT
TORSDOF 0
REMARK  Name = molecules/IDLFZVILOHSSID-OVLDLUHVSA-N.pdb
REMARK                            x       y       z     vdW  Elec       q    Type
REMARK                         _______ _______ _______ _____ _____    ______ ____
ROOT
ATOM      1  H   UNK    1       -2.390  14.313   0.000  0.00  0.00    +0.000 HD
ENDROOT
TORSDOF 0
REMARK  Name = molecules/IDLFZVILOHSSID-OVLDLUHVSA-N.pdb
REMARK                            x       y       z     vdW  Elec       q    Type
REMARK                         _______ _______ _______ _____ _____    ______ ____
ROOT
ATOM      1  H   UNK    1        4.156  15.873   0.000  0.00  0.00    +0.000 HD
ENDROOT
TORSDOF 0
REMARK  Name = molecules/IDLFZVILOHSSID-OVLDLUHVSA-N.pdb
REMARK                            x       y       z     vdW  Elec       q    Type
REMARK                         _______ _______ _______ _____ _____    ______ ____
ROOT
ATOM      1  H   UNK    1       -0.061  17.909   0.000  0.00  0.00    +0.000 HD
ENDROOT
TORSDOF 0
REMARK  Name = molecules/IDLFZVILOHSSID-OVLDLUHVSA-N.pdb
REMARK                            x       y       z     vdW  Elec       q    Type
REMARK                         _______ _______ _______ _____ _____    ______ ____
ROOT
ATOM      1  H   UNK    1       -0.886  15.406   0.000  0.00  0.00    +0.000 HD
ENDROOT
TORSDOF 0
REMARK  Name = molecules/IDLFZVILOHSSID-OVLDLUHVSA-N.pdb
REMARK                            x       y       z     vdW  Elec       q    Type
REMARK                         _______ _______ _______ _____ _____    ______ ____
ROOT
ATOM      1  H   UNK    1        4.146  10.392   0.000  0.00  0.00    +0.000 HD
ENDROOT
TORSDOF 0
REMARK  Name = molecules/IDLFZVILOHSSID-OVLDLUHVSA-N.pdb
REMARK                            x       y       z     vdW  Elec       q    Type
REMARK                         _______ _______ _______ _____ _____    ______ ____
ROOT
ATOM      1  H   UNK    1       -0.290  11.489   0.000  0.00  0.00    +0.000 HD
ENDROOT
TORSDOF 0
REMARK  Name = molecules/IDLFZVILOHSSID-OVLDLUHVSA-N.pdb
REMARK                            x       y       z     vdW  Elec       q    Type
REMARK                         _______ _______ _______ _____ _____    ______ ____
ROOT
ATOM      1  H   UNK    1        7.771  12.620   0.000  0.00  0.00    +0.000 HD
ENDROOT
TORSDOF 0
REMARK  Name = molecules/IDLFZVILOHSSID-OVLDLUHVSA-N.pdb
REMARK                            x       y       z     vdW  Elec       q    Type
REMARK                         _______ _______ _______ _____ _____    ______ ____
ROOT
ATOM      1  H   UNK    1       13.116   8.018   0.000  0.00  0.00    +0.000 HD
ENDROOT
TORSDOF 0
REMARK  Name = molecules/IDLFZVILOHSSID-OVLDLUHVSA-N.pdb
REMARK                            x       y       z     vdW  Elec       q    Type
REMARK                         _______ _______ _______ _____ _____    ______ ____
ROOT
ATOM      1  H   UNK    1       14.452   9.825   0.000  0.00  0.00    +0.000 HD
ENDROOT
TORSDOF 0
REMARK  Name = molecules/IDLFZVILOHSSID-OVLDLUHVSA-N.pdb
REMARK                            x       y       z     vdW  Elec       q    Type
REMARK                         _______ _______ _______ _____ _____    ______ ____
ROOT
ATOM      1  H   UNK    1       14.140  11.292   0.000  0.00  0.00    +0.000 HD
ENDROOT
TORSDOF 0
REMARK  Name = molecules/IDLFZVILOHSSID-OVLDLUHVSA-N.pdb
REMARK                            x       y       z     vdW  Elec       q    Type
REMARK                         _______ _______ _______ _____ _____    ______ ____
ROOT
ATOM      1  H   UNK    1       15.120  13.812   0.000  0.00  0.00    +0.000 HD
ENDROOT
TORSDOF 0
REMARK  Name = molecules/IDLFZVILOHSSID-OVLDLUHVSA-N.pdb
REMARK                            x       y       z     vdW  Elec       q    Type
REMARK                         _______ _______ _______ _____ _____    ______ ____
ROOT
ATOM      1  H   UNK    1       19.496  17.592   0.000  0.00  0.00    +0.000 HD
ENDROOT
TORSDOF 0
REMARK  Name = molecules/IDLFZVILOHSSID-OVLDLUHVSA-N.pdb
REMARK                            x       y       z     vdW  Elec       q    Type
REMARK                         _______ _______ _______ _____ _____    ______ ____
ROOT
ATOM      1  H   UNK    1       12.213  15.699   0.000  0.00  0.00    +0.000 HD
ENDROOT
TORSDOF 0
REMARK  Name = molecules/IDLFZVILOHSSID-OVLDLUHVSA-N.pdb
REMARK                            x       y       z     vdW  Elec       q    Type
REMARK                         _______ _______ _______ _____ _____    ______ ____
ROOT
ATOM      1  H   UNK    1       10.309  18.305   0.000  0.00  0.00    +0.000 HD
ENDROOT
TORSDOF 0
REMARK  Name = molecules/IDLFZVILOHSSID-OVLDLUHVSA-N.pdb
REMARK                            x       y       z     vdW  Elec       q    Type
REMARK                         _______ _______ _______ _____ _____    ______ ____
ROOT
ATOM      1  H   UNK    1        4.809  19.667   0.000  0.00  0.00    +0.000 HD
ENDROOT
TORSDOF 0
REMARK  Name = molecules/IDLFZVILOHSSID-OVLDLUHVSA-N.pdb
REMARK                            x       y       z     vdW  Elec       q    Type
REMARK                         _______ _______ _______ _____ _____    ______ ____
ROOT
ATOM      1  H   UNK    1        4.837  17.532   0.000  0.00  0.00    +0.000 HD
ENDROOT
TORSDOF 0
REMARK  Name = molecules/IDLFZVILOHSSID-OVLDLUHVSA-N.pdb
REMARK                            x       y       z     vdW  Elec       q    Type
REMARK                         _______ _______ _______ _____ _____    ______ ____
ROOT
ATOM      1  H   UNK    1        0.330  20.396   0.000  0.00  0.00    +0.000 HD
ENDROOT
TORSDOF 0
REMARK  Name = molecules/IDLFZVILOHSSID-OVLDLUHVSA-N.pdb
REMARK                            x       y       z     vdW  Elec       q    Type
REMARK                         _______ _______ _______ _____ _____    ______ ____
ROOT
ATOM      1  H   UNK    1       -2.124  19.298   0.000  0.00  0.00    +0.000 HD
ENDROOT
TORSDOF 0
REMARK  Name = molecules/IDLFZVILOHSSID-OVLDLUHVSA-N.pdb
REMARK                            x       y       z     vdW  Elec       q    Type
REMARK                         _______ _______ _______ _____ _____    ______ ____
ROOT
ATOM      1  H   UNK    1       -2.491  18.170   0.000  0.00  0.00    +0.000 HD
ENDROOT
TORSDOF 0
REMARK  Name = molecules/IDLFZVILOHSSID-OVLDLUHVSA-N.pdb
REMARK                            x       y       z     vdW  Elec       q    Type
REMARK                         _______ _______ _______ _____ _____    ______ ____
ROOT
ATOM      1  H   UNK    1       -2.023  16.362   0.000  0.00  0.00    +0.000 HD
ENDROOT
TORSDOF 0
REMARK  Name = molecules/IDLFZVILOHSSID-OVLDLUHVSA-N.pdb
REMARK                            x       y       z     vdW  Elec       q    Type
REMARK                         _______ _______ _______ _____ _____    ______ ____
ROOT
ATOM      1  H   UNK    1       -1.244  15.997   0.000  0.00  0.00    +0.000 HD
ENDROOT
TORSDOF 0
REMARK  Name = molecules/IDLFZVILOHSSID-OVLDLUHVSA-N.pdb
REMARK                            x       y       z     vdW  Elec       q    Type
REMARK                         _______ _______ _______ _____ _____    ______ ____
ROOT
ATOM      1  H   UNK    1        2.462  22.192   0.000  0.00  0.00    +0.000 HD
ENDROOT
TORSDOF 0
REMARK  Name = molecules/IDLFZVILOHSSID-OVLDLUHVSA-N.pdb
REMARK                            x       y       z     vdW  Elec       q    Type
REMARK                         _______ _______ _______ _____ _____    ______ ____
ROOT
ATOM      1  H   UNK    1        5.589  21.694   0.000  0.00  0.00    +0.000 HD
ENDROOT
TORSDOF 0
REMARK  Name = molecules/IDLFZVILOHSSID-OVLDLUHVSA-N.pdb
REMARK                            x       y       z     vdW  Elec       q    Type
REMARK                         _______ _______ _______ _____ _____    ______ ____
ROOT
ATOM      1  H   UNK    1        0.656  23.528   0.000  0.00  0.00    +0.000 HD
ENDROOT
TORSDOF 0
REMARK  Name = molecules/IDLFZVILOHSSID-OVLDLUHVSA-N.pdb
REMARK                            x       y       z     vdW  Elec       q    Type
REMARK                         _______ _______ _______ _____ _____    ______ ____
ROOT
ATOM      1  H   UNK    1       10.043  17.004   0.000  0.00  0.00    +0.000 HD
ENDROOT
TORSDOF 0
REMARK  Name = molecules/IDLFZVILOHSSID-OVLDLUHVSA-N.pdb
REMARK                            x       y       z     vdW  Elec       q    Type
REMARK                         _______ _______ _______ _____ _____    ______ ____
ROOT
ATOM      1  H   UNK    1       12.624  20.312   0.000  0.00  0.00    +0.000 HD
ENDROOT
TORSDOF 0
REMARK  Name = molecules/IDLFZVILOHSSID-OVLDLUHVSA-N.pdb
REMARK                            x       y       z     vdW  Elec       q    Type
REMARK                         _______ _______ _______ _____ _____    ______ ____
ROOT
ATOM      1  H   UNK    1        1.100  17.290   0.000  0.00  0.00    +0.000 HD
ENDROOT
TORSDOF 0
REMARK  Name = molecules/IDLFZVILOHSSID-OVLDLUHVSA-N.pdb
REMARK                            x       y       z     vdW  Elec       q    Type
REMARK                         _______ _______ _______ _____ _____    ______ ____
ROOT
ATOM      1  H   UNK    1       -0.828  21.087   0.000  0.00  0.00    +0.000 HD
ENDROOT
TORSDOF 0
