REMARK  Name = molecules/IDYZIJYBMGIQMJ-UHFFFAOYSA-N.pdb
REMARK                            x       y       z     vdW  Elec       q    Type
REMARK                         _______ _______ _______ _____ _____    ______ ____
ROOT
ATOM      1  N   LIG    1       -2.391   0.001   0.903  0.00  0.00    -0.331 N 
ATOM      2  C   LIG    1       -3.578   0.631   0.669  0.00  0.00    +0.106 A 
ATOM      3  C   LIG    1       -3.635   1.774  -0.107  0.00  0.00    +0.122 A 
ATOM      4  C   LIG    1       -2.440   2.228  -0.622  0.00  0.00    +0.205 A 
ATOM      5  C   LIG    1       -1.240   1.590  -0.385  0.00  0.00    +0.068 A 
ATOM      6  C   LIG    1       -0.040   2.028  -0.889  0.00  0.00    +0.057 A 
ATOM      7  C   LIG    1        1.105   1.313  -0.590  0.00  0.00    +0.164 A 
ATOM      8  C   LIG    1        1.104   0.177   0.193  0.00  0.00    +0.159 A 
ATOM      9  N   LIG    1       -0.101  -0.228   0.674  0.00  0.00    -0.211 NA
ATOM     10  F   LIG    1        2.294   1.762  -1.099  0.00  0.00    -0.202 F 
ATOM     11  O   LIG    1       -2.421   3.277  -1.347  0.00  0.00    -0.286 OA
ATOM     12  C   LIG    1       -1.230   0.453   0.396  0.00  0.00    +0.147 A 
ENDROOT
BRANCH   8  13
ATOM     13  N   LIG    1        2.299  -0.539   0.484  0.00  0.00    -0.310 N 
ATOM     14  C   LIG    1        3.367   0.147   1.182  0.00  0.00    +0.121 C 
ATOM     15  C   LIG    1        4.709  -0.448   0.843  0.00  0.00    +0.100 C 
ATOM     16  N   LIG    1        4.761  -1.081  -0.433  0.00  0.00    -0.313 NA
ATOM     17  C   LIG    1        3.776  -2.079  -0.666  0.00  0.00    +0.100 C 
ATOM     18  H   LIG    1        4.960  -0.448  -1.223  0.00  0.00    +0.122 HD
ATOM     19  C   LIG    1        2.515  -1.919   0.125  0.00  0.00    +0.121 C 
ENDBRANCH   8  13
BRANCH   1  20
ATOM     20  C   LIG    1       -2.384  -1.185   1.719  0.00  0.00    +0.120 C 
ATOM     21  C   LIG    1       -2.582  -2.370   0.792  0.00  0.00    +0.027 C 
ENDBRANCH   1  20
BRANCH   3  22
ATOM     22  C   LIG    1       -4.871   2.475  -0.382  0.00  0.00    +0.342 C 
ATOM     23  O   LIG    1       -5.990   2.107   0.061  0.00  0.00    -0.245 OA
BRANCH  22  24
ATOM     24  O   LIG    1       -4.852   3.608  -1.165  0.00  0.00    -0.477 OA
ATOM     25  H   LIG    1       -5.178   3.519  -2.122  0.00  0.00    +0.295 HD
ENDBRANCH  22  24
ENDBRANCH   3  22
TORSDOF 4
