REMARK  Name = molecules/IECPWNUMDGFDKC-MZJAQBGESA-N.pdb
REMARK                            x       y       z     vdW  Elec       q    Type
REMARK                         _______ _______ _______ _____ _____    ______ ____
ROOT
ATOM      1  C   LIG    1       -0.762   1.198  -1.170  0.00  0.00    +0.012 C 
ATOM      2  C   LIG    1       -1.268  -0.210  -1.079  0.00  0.00    -0.020 C 
ATOM      3  C   LIG    1       -1.820  -0.580   0.280  0.00  0.00    +0.030 C 
ATOM      4  C   LIG    1       -0.818  -0.596   1.403  0.00  0.00    +0.119 C 
ATOM      5  C   LIG    1        0.393  -1.484   0.990  0.00  0.00    +0.040 C 
ATOM      6  C   LIG    1        0.850  -0.913  -0.277  0.00  0.00    +0.028 C 
ATOM      7  C   LIG    1        2.163  -1.139  -0.827  0.00  0.00    -0.016 C 
ATOM      8  C   LIG    1        3.295  -0.773  -0.286  0.00  0.00    +0.040 C 
ATOM      9  C   LIG    1        1.916  -1.766  -2.179  0.00  0.00    +0.204 C 
ATOM     10  C   LIG    1        0.620  -1.021  -2.618  0.00  0.00    +0.057 C 
ATOM     11  C   LIG    1       -3.140  -0.023   0.611  0.00  0.00    -0.023 C 
ATOM     12  C   LIG    1       -3.341   0.458   2.021  0.00  0.00    +0.010 C 
ATOM     13  C   LIG    1       -3.989   1.842   2.090  0.00  0.00    +0.032 C 
ATOM     14  C   LIG    1       -5.269   1.896   1.330  0.00  0.00    +0.118 C 
ATOM     15  C   LIG    1       -5.025   1.474  -0.085  0.00  0.00    +0.018 C 
ATOM     16  C   LIG    1       -5.270   2.715  -0.958  0.00  0.00    +0.010 C 
ATOM     17  C   LIG    1       -4.271  -1.048   0.377  0.00  0.00    +0.012 C 
ATOM     18  C   LIG    1       -3.547   1.128  -0.319  0.00  0.00    +0.001 C 
ATOM     19  C   LIG    1       -3.451   0.732  -1.763  0.00  0.00    +0.005 C 
ATOM     20  C   LIG    1       -0.184  -1.196  -1.388  0.00  0.00    -0.016 C 
ATOM     21  C   LIG    1       -0.642  -2.614  -1.411  0.00  0.00    +0.012 C 
ATOM     22  C   LIG    1       -2.420  -0.290  -2.070  0.00  0.00    +0.008 C 
ENDROOT
BRANCH   4  23
ATOM     23  O   LIG    1       -0.303   0.590   1.802  0.00  0.00    -0.391 OA
ATOM     24  H   LIG    1       -0.052   0.548   2.759  0.00  0.00    +0.210 HD
ENDBRANCH   4  23
BRANCH   8  25
ATOM     25  C   LIG    1        4.555  -1.136  -0.919  0.00  0.00    +0.333 C 
ATOM     26  O   LIG    1        4.544  -1.792  -1.985  0.00  0.00    -0.245 OA
BRANCH  25  27
ATOM     27  O   LIG    1        5.808  -0.783  -0.383  0.00  0.00    -0.477 OA
ATOM     28  H   LIG    1        6.296  -1.565   0.069  0.00  0.00    +0.295 HD
ENDBRANCH  25  27
ENDBRANCH   8  25
BRANCH  14  29
ATOM     29  O   LIG    1       -5.798   3.171   1.433  0.00  0.00    -0.392 OA
ATOM     30  H   LIG    1       -5.968   3.354   2.385  0.00  0.00    +0.210 HD
ENDBRANCH  14  29
BRANCH   8  31
ATOM     31  C   LIG    1        3.406  -0.029   1.020  0.00  0.00    +0.046 C 
BRANCH  31  32
ATOM     32  C   LIG    1        4.083   1.301   0.642  0.00  0.00    +0.032 C 
BRANCH  32  33
ATOM     33  C   LIG    1        4.248   2.134   1.864  0.00  0.00    -0.028 C 
ATOM     34  C   LIG    1        5.441   2.533   2.289  0.00  0.00    -0.080 C 
ATOM     35  C   LIG    1        5.538   3.365   3.519  0.00  0.00    +0.038 C 
ATOM     36  C   LIG    1        6.673   2.174   1.576  0.00  0.00    +0.038 C 
ENDBRANCH  32  33
ENDBRANCH  31  32
ENDBRANCH   8  31
BRANCH   9  37
ATOM     37  O   LIG    1        1.752  -3.113  -2.012  0.00  0.00    -0.457 OA
BRANCH  37  38
ATOM     38  C   LIG    1        2.301  -4.155  -2.695  0.00  0.00    +0.305 C 
ATOM     39  C   LIG    1        1.944  -5.539  -2.290  0.00  0.00    +0.136 C 
ATOM     40  O   LIG    1        3.079  -3.912  -3.631  0.00  0.00    -0.251 OA
ENDBRANCH  37  38
ENDBRANCH   9  37
TORSDOF 9
