REMARK  Name = molecules/IEDVJHCEMCRBQM-UHFFFAOYSA-N.pdb
REMARK                            x       y       z     vdW  Elec       q    Type
REMARK                         _______ _______ _______ _____ _____    ______ ____
ROOT
ATOM      1  C   LIG    1       -1.117  -0.735   1.313  0.00  0.00    +0.075 C 
ENDROOT
BRANCH   1   2
ATOM      2  C   LIG    1        0.156  -0.290   0.746  0.00  0.00    -0.036 A 
ATOM      3  C   LIG    1        0.786   0.898   1.044  0.00  0.00    +0.053 A 
ATOM      4  C   LIG    1        1.986   1.286   0.491  0.00  0.00    +0.165 A 
ATOM      5  C   LIG    1        2.569   0.419  -0.408  0.00  0.00    +0.204 A 
ATOM      6  C   LIG    1        1.974  -0.779  -0.736  0.00  0.00    +0.165 A 
ATOM      7  C   LIG    1        0.780  -1.142  -0.172  0.00  0.00    +0.053 A 
BRANCH   4   8
ATOM      8  O   LIG    1        2.542   2.492   0.849  0.00  0.00    -0.491 OA
ATOM      9  C   LIG    1        1.992   3.397   1.750  0.00  0.00    +0.277 C 
ENDBRANCH   4   8
BRANCH   6  10
ATOM     10  O   LIG    1        2.586  -1.627  -1.643  0.00  0.00    -0.491 OA
ATOM     11  C   LIG    1        2.060  -2.862  -2.037  0.00  0.00    +0.277 C 
ENDBRANCH   6  10
BRANCH   5  12
ATOM     12  O   LIG    1        3.767   0.744  -0.997  0.00  0.00    -0.488 OA
ATOM     13  C   LIG    1        4.991   0.351  -0.363  0.00  0.00    +0.277 C 
ENDBRANCH   5  12
ENDBRANCH   1   2
BRANCH   1  14
ATOM     14  C   LIG    1       -2.297  -0.310   0.530  0.00  0.00    +0.015 A 
ATOM     15  C   LIG    1       -3.540  -0.682   0.985  0.00  0.00    +0.125 A 
ATOM     16  N   LIG    1       -4.622  -0.315   0.302  0.00  0.00    -0.200 NA
ATOM     17  C   LIG    1       -4.499   0.413  -0.822  0.00  0.00    +0.214 A 
ATOM     18  N   LIG    1       -3.278   0.783  -1.277  0.00  0.00    -0.223 NA
ATOM     19  C   LIG    1       -2.162   0.433  -0.617  0.00  0.00    +0.121 A 
BRANCH  15  20
ATOM     20  N   LIG    1       -3.689  -1.465   2.192  0.00  0.00    -0.343 N 
ATOM     21  H   LIG    1       -3.713  -1.007   3.130  0.00  0.00    +0.144 HD
ATOM     22  H   LIG    1       -3.768  -2.498   2.051  0.00  0.00    +0.144 HD
ENDBRANCH  15  20
BRANCH  17  23
ATOM     23  N   LIG    1       -5.701   0.766  -1.495  0.00  0.00    -0.327 N 
ATOM     24  H   LIG    1       -6.243   1.624  -1.252  0.00  0.00    +0.145 HD
ATOM     25  H   LIG    1       -6.032   0.120  -2.264  0.00  0.00    +0.145 HD
ENDBRANCH  17  23
ENDBRANCH   1  14
TORSDOF 7
