REMARK  Name = molecules/IEJXVRYNEISIKR-UHFFFAOYSA-N.pdb
REMARK                            x       y       z     vdW  Elec       q    Type
REMARK                         _______ _______ _______ _____ _____    ______ ____
ROOT
ATOM      1  C   LIG    1        0.689  -0.005  -0.727  0.00  0.00    +0.067 A 
ATOM      2  C   LIG    1        1.448   0.881   0.015  0.00  0.00    +0.065 A 
ATOM      3  C   LIG    1        2.725   0.569   0.451  0.00  0.00    +0.044 A 
ATOM      4  C   LIG    1        3.288  -0.656   0.154  0.00  0.00    +0.027 A 
ATOM      5  C   LIG    1        2.529  -1.539  -0.586  0.00  0.00    +0.044 A 
ATOM      6 CL   LIG    1        0.746   2.431   0.394  0.00  0.00    -0.082 Cl
ATOM      7  C   LIG    1        1.258  -1.228  -1.020  0.00  0.00    +0.065 A 
ATOM      8 CL   LIG    1        0.300  -2.352  -1.959  0.00  0.00    -0.082 Cl
ENDROOT
BRANCH   4   9
ATOM      9  N   LIG    1        4.605  -0.970   0.608  0.00  0.00    -0.358 N 
ATOM     10  H   LIG    1        4.822  -1.930   0.902  0.00  0.00    +0.142 HD
ATOM     11  H   LIG    1        5.375  -0.262   0.658  0.00  0.00    +0.142 HD
ENDBRANCH   4   9
BRANCH   1  12
ATOM     12  N   LIG    1       -0.619   0.347  -1.160  0.00  0.00    -0.307 N 
ATOM     13  H   LIG    1       -0.685   0.822  -2.102  0.00  0.00    +0.149 HD
BRANCH  12  14
ATOM     14  C   LIG    1       -1.781   0.081  -0.381  0.00  0.00    +0.206 C 
ATOM     15  N   LIG    1       -2.664   1.117   0.074  0.00  0.00    -0.277 NA
ATOM     16  C   LIG    1       -3.938   0.458   0.402  0.00  0.00    +0.101 C 
ATOM     17  C   LIG    1       -3.428  -0.925   0.795  0.00  0.00    +0.121 C 
ATOM     18  H   LIG    1       -2.479   2.135   0.167  0.00  0.00    +0.125 HD
ATOM     19  N   LIG    1       -2.208  -1.065   0.023  0.00  0.00    -0.196 NA
ENDBRANCH  12  14
ENDBRANCH   1  12
TORSDOF 3
