REMARK  Name = molecules/IELOKBJPULMYRW-NJQVLOCASA-N.pdb
REMARK                            x       y       z     vdW  Elec       q    Type
REMARK                         _______ _______ _______ _____ _____    ______ ____
ROOT
ATOM      1  C   LIG    1       -4.496  -3.311   0.449  0.00  0.00    +0.048 C 
ATOM      2  C   LIG    1       -4.981  -1.931   0.704  0.00  0.00    -0.002 A 
ATOM      3  C   LIG    1       -4.031  -0.929   0.958  0.00  0.00    +0.128 A 
ATOM      4  C   LIG    1       -4.512   0.352   1.194  0.00  0.00    +0.001 A 
ATOM      5  C   LIG    1       -3.531   1.462   1.474  0.00  0.00    +0.043 C 
ATOM      6  C   LIG    1       -2.189   0.913   1.770  0.00  0.00    +0.052 C 
ATOM      7  C   LIG    1       -1.736  -0.191   0.791  0.00  0.00    +0.108 C 
ATOM      8  C   LIG    1       -1.904   0.325  -0.571  0.00  0.00    +0.055 C 
ATOM      9  C   LIG    1       -5.857   0.608   1.177  0.00  0.00    -0.001 A 
ATOM     10  C   LIG    1       -6.386   1.964   1.418  0.00  0.00    +0.048 C 
ATOM     11  C   LIG    1       -6.808  -0.390   0.925  0.00  0.00    +0.138 A 
ATOM     12  O   LIG    1       -2.692  -1.255   0.962  0.00  0.00    -0.485 OA
ATOM     13  C   LIG    1       -6.332  -1.662   0.690  0.00  0.00    -0.001 A 
ATOM     14  C   LIG    1       -7.341  -2.741   0.419  0.00  0.00    +0.048 C 
ENDROOT
BRANCH  11  15
ATOM     15  O   LIG    1       -8.152  -0.066   0.923  0.00  0.00    -0.425 OA
BRANCH  15  16
ATOM     16  C   LIG    1       -8.773   0.479  -0.193  0.00  0.00    +0.313 C 
ATOM     17  O   LIG    1       -8.058   0.668  -1.208  0.00  0.00    -0.250 OA
BRANCH  16  18
ATOM     18  C   LIG    1      -10.229   0.805  -0.123  0.00  0.00    +0.132 C 
BRANCH  18  19
ATOM     19  C   LIG    1      -10.729   1.428  -1.408  0.00  0.00    +0.131 C 
BRANCH  19  20
ATOM     20  C   LIG    1      -12.171   1.748  -1.329  0.00  0.00    +0.305 C 
ATOM     21  O   LIG    1      -12.809   1.488  -0.296  0.00  0.00    -0.251 OA
BRANCH  20  22
ATOM     22  O   LIG    1      -12.795   2.336  -2.404  0.00  0.00    -0.481 OA
ATOM     23  H   LIG    1      -13.151   3.291  -2.366  0.00  0.00    +0.295 HD
ENDBRANCH  20  22
ENDBRANCH  19  20
ENDBRANCH  18  19
ENDBRANCH  16  18
ENDBRANCH  15  16
ENDBRANCH  11  15
BRANCH   7  24
ATOM     24  C   LIG    1       -0.399  -0.599   1.278  0.00  0.00    +0.048 C 
BRANCH  24  25
ATOM     25  C   LIG    1        0.283  -1.751   0.679  0.00  0.00    +0.004 C 
BRANCH  25  26
ATOM     26  C   LIG    1        0.668  -1.575  -0.755  0.00  0.00    +0.003 C 
BRANCH  26  27
ATOM     27  C   LIG    1        1.641  -0.451  -1.013  0.00  0.00    -0.014 C 
ATOM     28  C   LIG    1        2.024  -0.560  -2.494  0.00  0.00    +0.007 C 
BRANCH  27  29
ATOM     29  C   LIG    1        2.912  -0.742  -0.228  0.00  0.00    +0.003 C 
BRANCH  29  30
ATOM     30  C   LIG    1        3.919   0.372  -0.477  0.00  0.00    +0.001 C 
BRANCH  30  31
ATOM     31  C   LIG    1        5.180   0.075   0.327  0.00  0.00    +0.003 C 
BRANCH  31  32
ATOM     32  C   LIG    1        6.160   1.183   0.069  0.00  0.00    -0.014 C 
ATOM     33  C   LIG    1        6.370   1.283  -1.428  0.00  0.00    +0.007 C 
BRANCH  32  34
ATOM     34  C   LIG    1        7.462   1.017   0.821  0.00  0.00    +0.003 C 
BRANCH  34  35
ATOM     35  C   LIG    1        8.106  -0.263   0.411  0.00  0.00    +0.001 C 
BRANCH  35  36
ATOM     36  C   LIG    1        9.418  -0.516   1.118  0.00  0.00    +0.003 C 
BRANCH  36  37
ATOM     37  C   LIG    1       10.457   0.527   0.883  0.00  0.00    -0.017 C 
ATOM     38  C   LIG    1       11.703   0.122   1.671  0.00  0.00    +0.007 C 
ATOM     39  C   LIG    1       10.832   0.572  -0.602  0.00  0.00    +0.007 C 
ENDBRANCH  36  37
ENDBRANCH  35  36
ENDBRANCH  34  35
ENDBRANCH  32  34
ENDBRANCH  31  32
ENDBRANCH  30  31
ENDBRANCH  29  30
ENDBRANCH  27  29
ENDBRANCH  26  27
ENDBRANCH  25  26
ENDBRANCH  24  25
ENDBRANCH   7  24
TORSDOF 18
