REMARK  Name = molecules/IENZQIKPVFGBNW-UHFFFAOYSA-N.pdb
REMARK                            x       y       z     vdW  Elec       q    Type
REMARK                         _______ _______ _______ _____ _____    ______ ____
ROOT
ATOM      1  C   LIG    1       -2.304  -1.549  -1.030  0.00  0.00    +0.129 A 
ATOM      2  C   LIG    1       -3.043  -0.531  -0.481  0.00  0.00    +0.044 A 
ATOM      3  C   LIG    1       -2.426   0.403   0.322  0.00  0.00    +0.082 A 
ATOM      4  C   LIG    1       -3.141   1.456   0.902  0.00  0.00    +0.078 A 
ATOM      5  C   LIG    1       -4.494   1.579   0.677  0.00  0.00    +0.164 A 
ATOM      6  C   LIG    1       -5.111   0.643  -0.128  0.00  0.00    +0.162 A 
ATOM      7  N   LIG    1       -1.091   0.285   0.547  0.00  0.00    -0.214 NA
ATOM      8  C   LIG    1       -0.356  -0.702   0.018  0.00  0.00    +0.220 A 
ATOM      9  C   LIG    1       -4.401  -0.392  -0.696  0.00  0.00    +0.062 A 
ATOM     10  N   LIG    1       -0.992  -1.593  -0.759  0.00  0.00    -0.199 NA
ENDROOT
BRANCH   8  11
ATOM     11  N   LIG    1        1.054  -0.818   0.262  0.00  0.00    -0.297 N 
ATOM     12  C   LIG    1        1.760   0.112   1.084  0.00  0.00    +0.127 C 
ATOM     13  C   LIG    1        3.227   0.253   0.689  0.00  0.00    +0.127 C 
ATOM     14  N   LIG    1        3.844  -1.012   0.443  0.00  0.00    -0.292 N 
ATOM     15  C   LIG    1        2.950  -2.187   0.596  0.00  0.00    +0.127 C 
ATOM     16  C   LIG    1        5.179  -1.257   0.078  0.00  0.00    +0.282 C 
ATOM     17  O   LIG    1        5.545  -2.484  -0.102  0.00  0.00    -0.267 OA
ATOM     18  C   LIG    1        1.792  -1.909  -0.342  0.00  0.00    +0.127 C 
BRANCH  16  19
ATOM     19  C   LIG    1        6.207  -0.251  -0.122  0.00  0.00    +0.189 A 
ATOM     20  C   LIG    1        6.173   1.117  -0.020  0.00  0.00    +0.054 A 
ATOM     21  C   LIG    1        7.440   1.586  -0.319  0.00  0.00    +0.042 A 
ATOM     22  C   LIG    1        8.202   0.483  -0.592  0.00  0.00    +0.196 A 
ATOM     23  O   LIG    1        7.460  -0.571  -0.471  0.00  0.00    -0.458 OA
ENDBRANCH  16  19
ENDBRANCH   8  11
BRANCH   1  24
ATOM     24  N   LIG    1       -2.965  -2.498  -1.853  0.00  0.00    -0.343 N 
ATOM     25  H   LIG    1       -3.829  -2.963  -1.497  0.00  0.00    +0.144 HD
ATOM     26  H   LIG    1       -2.621  -2.746  -2.797  0.00  0.00    +0.144 HD
ENDBRANCH   1  24
BRANCH   5  27
ATOM     27  O   LIG    1       -5.231   2.634   1.252  0.00  0.00    -0.491 OA
ATOM     28  C   LIG    1       -4.531   3.557   2.066  0.00  0.00    +0.277 C 
ENDBRANCH   5  27
BRANCH   6  29
ATOM     29  O   LIG    1       -6.464   0.747  -0.367  0.00  0.00    -0.491 OA
ATOM     30  C   LIG    1       -7.207  -0.131  -1.159  0.00  0.00    +0.277 C 
ENDBRANCH   6  29
TORSDOF 5
