REMARK  Name = molecules/IFFPICMESYHZPQ-FQEVSTJZSA-N.pdb
REMARK                            x       y       z     vdW  Elec       q    Type
REMARK                         _______ _______ _______ _____ _____    ______ ____
ROOT
ATOM      1  C   LIG    1       -2.031  -1.109   0.191  0.00  0.00    +0.050 C 
ENDROOT
BRANCH   1   2
ATOM      2  C   LIG    1       -2.472  -0.082   1.161  0.00  0.00    -0.040 A 
ATOM      3  C   LIG    1       -3.345  -0.401   2.174  0.00  0.00    +0.004 A 
ATOM      4  C   LIG    1       -3.721   0.596   3.048  0.00  0.00    +0.000 A 
ATOM      5  C   LIG    1       -3.265   1.895   2.957  0.00  0.00    +0.000 A 
ATOM      6  C   LIG    1       -2.382   2.224   1.935  0.00  0.00    +0.000 A 
ATOM      7  C   LIG    1       -2.018   1.217   1.072  0.00  0.00    +0.004 A 
ENDBRANCH   1   2
BRANCH   1   8
ATOM      8  C   LIG    1       -2.994  -1.093  -0.942  0.00  0.00    -0.040 A 
ATOM      9  C   LIG    1       -3.977  -2.075  -0.980  0.00  0.00    +0.004 A 
ATOM     10  C   LIG    1       -4.853  -2.042  -2.038  0.00  0.00    +0.000 A 
ATOM     11  C   LIG    1       -4.782  -1.088  -3.034  0.00  0.00    +0.000 A 
ATOM     12  C   LIG    1       -3.790  -0.134  -2.954  0.00  0.00    +0.000 A 
ATOM     13  C   LIG    1       -2.886  -0.122  -1.913  0.00  0.00    +0.004 A 
ENDBRANCH   1   8
BRANCH   1  14
ATOM     14  C   LIG    1       -0.662  -0.915  -0.355  0.00  0.00    +0.028 C 
BRANCH  14  15
ATOM     15  C   LIG    1        0.415  -0.916   0.708  0.00  0.00    +0.082 C 
BRANCH  15  16
ATOM     16  N   LIG    1        1.681  -0.719   0.022  0.00  0.00    -0.313 NA
ATOM     17  H   LIG    1        1.845  -1.575  -0.581  0.00  0.00    +0.122 HD
BRANCH  16  18
ATOM     18  C   LIG    1        2.733  -0.714   1.007  0.00  0.00    +0.055 C 
ATOM     19  C   LIG    1        2.745  -2.117   1.631  0.00  0.00    +0.024 C 
BRANCH  18  20
ATOM     20  C   LIG    1        4.087  -0.512   0.386  0.00  0.00    +0.053 C 
BRANCH  20  21
ATOM     21  C   LIG    1        4.220   0.746  -0.343  0.00  0.00    -0.046 A 
ATOM     22  C   LIG    1        4.656   1.895   0.280  0.00  0.00    +0.004 A 
ATOM     23  C   LIG    1        4.788   3.088  -0.389  0.00  0.00    +0.000 A 
ATOM     24  C   LIG    1        4.484   3.180  -1.727  0.00  0.00    +0.000 A 
ATOM     25  C   LIG    1        4.045   2.045  -2.372  0.00  0.00    +0.000 A 
ATOM     26  C   LIG    1        3.919   0.856  -1.683  0.00  0.00    +0.004 A 
ENDBRANCH  20  21
ENDBRANCH  18  20
ENDBRANCH  16  18
ENDBRANCH  15  16
ENDBRANCH  14  15
ENDBRANCH   1  14
TORSDOF 8
