REMARK  Name = molecules/IFSDAJWBUCMOAH-HNNXBMFYSA-N.pdb
REMARK                            x       y       z     vdW  Elec       q    Type
REMARK                         _______ _______ _______ _____ _____    ______ ____
ROOT
ATOM      1  C   LIG    1       -1.466  -4.177   1.536  0.00  0.00    +0.029 A 
ATOM      2  C   LIG    1       -2.438  -5.106   1.216  0.00  0.00    +0.005 A 
ATOM      3  C   LIG    1       -3.433  -4.827   0.307  0.00  0.00    +0.039 A 
ATOM      4  C   LIG    1       -3.442  -3.583  -0.286  0.00  0.00    +0.138 A 
ATOM      5  C   LIG    1       -2.456  -2.645   0.041  0.00  0.00    +0.100 A 
ATOM      6  C   LIG    1       -2.440  -1.405  -0.530  0.00  0.00    +0.269 A 
ATOM      7  N   LIG    1       -1.490  -0.480  -0.224  0.00  0.00    -0.263 N 
ATOM      8  C   LIG    1       -0.538  -0.756   0.647  0.00  0.00    +0.138 A 
ATOM      9  N   LIG    1       -0.561  -2.001   1.216  0.00  0.00    -0.231 NA
ATOM     10  O   LIG    1       -3.321  -1.080  -1.371  0.00  0.00    -0.266 OA
ATOM     11  F   LIG    1       -4.386  -3.245  -1.183  0.00  0.00    -0.205 F 
ATOM     12  C   LIG    1       -1.469  -2.935   0.948  0.00  0.00    +0.081 A 
ENDROOT
BRANCH   7  13
ATOM     13  C   LIG    1       -1.565   0.788  -0.843  0.00  0.00    +0.051 A 
ATOM     14  C   LIG    1       -2.487   1.690  -0.386  0.00  0.00    +0.026 A 
ATOM     15  C   LIG    1       -2.639   2.932  -0.946  0.00  0.00    +0.002 A 
ATOM     16  C   LIG    1       -1.825   3.274  -2.012  0.00  0.00    +0.000 A 
ATOM     17  C   LIG    1       -0.890   2.378  -2.486  0.00  0.00    +0.002 A 
ATOM     18  C   LIG    1       -0.763   1.111  -1.886  0.00  0.00    +0.026 A 
ENDBRANCH   7  13
BRANCH   8  19
ATOM     19  C   LIG    1        0.569   0.110   1.103  0.00  0.00    +0.138 C 
BRANCH  19  20
ATOM     20  C   LIG    1        0.192   1.499   1.470  0.00  0.00    +0.027 C 
ATOM     21  C   LIG    1       -0.845   1.551   2.573  0.00  0.00    +0.006 C 
ENDBRANCH  19  20
BRANCH  19  22
ATOM     22  N   LIG    1        1.641   0.122   0.115  0.00  0.00    -0.317 N 
ATOM     23  H   LIG    1        1.491  -0.409  -0.794  0.00  0.00    +0.148 HD
BRANCH  22  24
ATOM     24  C   LIG    1        2.862   0.776   0.298  0.00  0.00    +0.148 A 
ATOM     25  N   LIG    1        3.237   1.446   1.396  0.00  0.00    -0.219 NA
ATOM     26  C   LIG    1        4.416   2.055   1.565  0.00  0.00    +0.225 A 
ATOM     27  N   LIG    1        5.313   2.003   0.566  0.00  0.00    -0.214 NA
ATOM     28  C   LIG    1        4.996   1.344  -0.565  0.00  0.00    +0.183 A 
ATOM     29  N   LIG    1        5.685   1.125  -1.728  0.00  0.00    -0.216 NA
ATOM     30  C   LIG    1        4.918   0.399  -2.560  0.00  0.00    +0.199 A 
ATOM     31  N   LIG    1        3.751   0.136  -1.982  0.00  0.00    -0.340 N 
ATOM     32  H   LIG    1        2.958  -0.407  -2.389  0.00  0.00    +0.167 HD
ATOM     33  C   LIG    1        3.790   0.713  -0.756  0.00  0.00    +0.125 A 
ENDBRANCH  22  24
ENDBRANCH  19  22
ENDBRANCH   8  19
TORSDOF 5
