REMARK  Name = molecules/IGISNRIWPJVXDB-VIFPVBQESA-N.pdb
REMARK                            x       y       z     vdW  Elec       q    Type
REMARK                         _______ _______ _______ _____ _____    ______ ____
ROOT
ATOM      1  C   LIG    1       -0.977  -0.604   0.606  0.00  0.00    +0.181 C 
ENDROOT
BRANCH   1   2
ATOM      2  C   LIG    1        0.524  -0.503   0.321  0.00  0.00    +0.030 C 
ATOM      3  C   LIG    1        1.086   0.659   1.092  0.00  0.00    +0.007 C 
ATOM      4  C   LIG    1        2.429   1.117   0.690  0.00  0.00    +0.000 C 
ATOM      5  C   LIG    1        3.031   0.351  -0.464  0.00  0.00    +0.000 C 
ATOM      6  C   LIG    1        1.963   0.403  -1.540  0.00  0.00    +0.000 C 
ATOM      7  C   LIG    1        0.873  -0.540  -1.115  0.00  0.00    +0.007 C 
ENDBRANCH   1   2
BRANCH   1   8
ATOM      8  C   LIG    1       -1.591  -1.887   0.164  0.00  0.00    +0.041 C 
ATOM      9  C   LIG    1       -1.777  -2.081  -1.292  0.00  0.00    +0.007 C 
ENDBRANCH   1   8
BRANCH   1  10
ATOM     10  O   LIG    1       -1.688   0.530   0.234  0.00  0.00    -0.447 OA
BRANCH  10  13
ATOM     11  N   LIG    1       -3.006   2.507   0.818  0.00  0.00    -0.295 N 
ATOM     12  H   LIG    1       -3.765   2.845   1.426  0.00  0.00    +0.148 HD
ATOM     13  C   LIG    1       -2.275   1.342   1.188  0.00  0.00    +0.398 C 
ATOM     14  O   LIG    1       -2.158   1.042   2.411  0.00  0.00    -0.227 OA
ATOM     15  H   LIG    1       -2.772   3.008  -0.054  0.00  0.00    +0.148 HD
ENDBRANCH  10  13
ENDBRANCH   1  10
TORSDOF 4
