REMARK  Name = molecules/IHFMXHPNVAVTCJ-UHFFFAOYSA-N.pdb
REMARK                            x       y       z     vdW  Elec       q    Type
REMARK                         _______ _______ _______ _____ _____    ______ ____
ROOT
ATOM      1  C   LIG    1        1.659   0.093   0.277  0.00  0.00    +0.178 C 
ENDROOT
BRANCH   1   2
ATOM      2  C   LIG    1        2.386  -1.205   0.303  0.00  0.00    -0.015 A 
ATOM      3  C   LIG    1        1.747  -2.423   0.348  0.00  0.00    +0.006 A 
ATOM      4  C   LIG    1        2.440  -3.617   0.370  0.00  0.00    +0.000 A 
ATOM      5  C   LIG    1        3.821  -3.638   0.348  0.00  0.00    +0.000 A 
ATOM      6  C   LIG    1        4.456  -2.415   0.303  0.00  0.00    +0.000 A 
ATOM      7  C   LIG    1        3.780  -1.219   0.280  0.00  0.00    +0.006 A 
ENDBRANCH   1   2
BRANCH   1   8
ATOM      8  C   LIG    1        2.598   1.190  -0.070  0.00  0.00    -0.015 A 
ATOM      9  C   LIG    1        3.053   2.017   0.933  0.00  0.00    +0.006 A 
ATOM     10  C   LIG    1        3.940   3.066   0.661  0.00  0.00    +0.000 A 
ATOM     11  C   LIG    1        4.362   3.276  -0.622  0.00  0.00    +0.000 A 
ATOM     12  C   LIG    1        3.922   2.464  -1.643  0.00  0.00    +0.000 A 
ATOM     13  C   LIG    1        3.040   1.425  -1.351  0.00  0.00    +0.006 A 
ENDBRANCH   1   8
BRANCH   1  14
ATOM     14  O   LIG    1        0.600   0.018  -0.624  0.00  0.00    -0.369 OA
BRANCH  14  15
ATOM     15  C   LIG    1       -0.617   0.193   0.018  0.00  0.00    +0.143 C 
BRANCH  15  16
ATOM     16  C   LIG    1       -1.787   0.115  -0.925  0.00  0.00    -0.047 C 
BRANCH  16  17
ATOM     17  N   LIG    1       -3.018   0.300  -0.221  0.00  0.00    +0.379 N 
ATOM     18  C   LIG    1       -2.860   0.814   1.117  0.00  0.00    -0.092 C 
BRANCH  17  19
ATOM     19  C   LIG    1       -3.787  -0.946  -0.094  0.00  0.00    -0.079 C 
ATOM     20  C   LIG    1       -2.928  -2.033   0.506  0.00  0.00    -0.016 C 
ENDBRANCH  17  19
BRANCH  17  21
ATOM     21  C   LIG    1       -3.841   1.276  -0.941  0.00  0.00    -0.079 C 
ATOM     22  C   LIG    1       -5.302   1.070  -0.680  0.00  0.00    -0.016 C 
ENDBRANCH  17  21
ENDBRANCH  16  17
ENDBRANCH  15  16
ENDBRANCH  14  15
ENDBRANCH   1  14
TORSDOF 8
