REMARK  Name = molecules/IHUNBGSDBOWDMA-AQFIFDHZSA-N.pdb
REMARK                            x       y       z     vdW  Elec       q    Type
REMARK                         _______ _______ _______ _____ _____    ______ ____
ROOT
ATOM      1  C   LIG    1        1.165   0.625  -0.258  0.00  0.00    +0.009 C 
ATOM      2  C   LIG    1        0.159  -0.125   0.082  0.00  0.00    +0.004 C 
ENDROOT
BRANCH   1   3
ATOM      3  C   LIG    1        2.579   0.386  -0.057  0.00  0.00    -0.019 A 
ATOM      4  C   LIG    1        3.166  -0.793   0.270  0.00  0.00    -0.037 A 
ATOM      5  C   LIG    1        4.540  -0.839   0.529  0.00  0.00    -0.005 A 
ATOM      6  C   LIG    1        5.175  -2.107   0.885  0.00  0.00    +0.048 C 
ATOM      7  C   LIG    1        5.322   0.286   0.460  0.00  0.00    +0.124 A 
ATOM      8  C   LIG    1        4.726   1.476   0.126  0.00  0.00    +0.049 A 
ATOM      9  C   LIG    1        2.458  -2.063   0.296  0.00  0.00    +0.045 C 
ATOM     10  C   LIG    1        3.380   1.560  -0.134  0.00  0.00    -0.040 A 
ATOM     11  C   LIG    1        2.750   2.858  -0.491  0.00  0.00    +0.044 C 
BRANCH   7  12
ATOM     12  O   LIG    1        6.701   0.246   0.719  0.00  0.00    -0.495 OA
ATOM     13  C   LIG    1        7.484   1.423   0.640  0.00  0.00    +0.277 C 
ENDBRANCH   7  12
ENDBRANCH   1   3
BRANCH   2  14
ATOM     14  C   LIG    1       -1.232   0.311  -0.228  0.00  0.00    -0.050 C 
ATOM     15  C   LIG    1       -2.232  -0.459   0.120  0.00  0.00    +0.003 C 
ATOM     16  C   LIG    1       -1.439   1.582  -0.904  0.00  0.00    +0.044 C 
BRANCH  15  17
ATOM     17  C   LIG    1       -3.642  -0.134  -0.133  0.00  0.00    +0.001 C 
ATOM     18  C   LIG    1       -4.596  -0.960   0.248  0.00  0.00    +0.003 C 
BRANCH  18  19
ATOM     19  C   LIG    1       -6.019  -0.757   0.059  0.00  0.00    -0.044 C 
ATOM     20  C   LIG    1       -6.886  -1.663   0.487  0.00  0.00    +0.094 C 
ATOM     21  C   LIG    1       -6.576   0.434  -0.602  0.00  0.00    +0.044 C 
BRANCH  20  22
ATOM     22  C   LIG    1       -8.320  -1.530   0.335  0.00  0.00    +0.330 C 
ATOM     23  O   LIG    1       -8.897  -0.568  -0.207  0.00  0.00    -0.246 OA
BRANCH  22  24
ATOM     24  O   LIG    1       -9.139  -2.549   0.825  0.00  0.00    -0.478 OA
ATOM     25  H   LIG    1       -9.836  -2.898   0.166  0.00  0.00    +0.295 HD
ENDBRANCH  22  24
ENDBRANCH  20  22
ENDBRANCH  18  19
ENDBRANCH  15  17
ENDBRANCH   2  14
TORSDOF 7
