REMARK  Name = molecules/IIRWWTKISYTTBL-SFHVURJKSA-N.pdb
REMARK                            x       y       z     vdW  Elec       q    Type
REMARK                         _______ _______ _______ _____ _____    ______ ____
ROOT
ATOM      1  C   LIG    1        1.595  -0.823   1.252  0.00  0.00    +0.117 C 
ENDROOT
BRANCH   1   2
ATOM      2  N   LIG    1        0.348  -1.339   1.454  0.00  0.00    -0.313 NA
ATOM      3  H   LIG    1       -0.315  -0.593   1.852  0.00  0.00    +0.122 HD
BRANCH   2   4
ATOM      4  C   LIG    1       -0.283  -2.447   0.939  0.00  0.00    +0.081 C 
BRANCH   4   5
ATOM      5  C   LIG    1       -0.812  -2.430  -0.453  0.00  0.00    +0.015 C 
BRANCH   5   6
ATOM      6  C   LIG    1       -1.820  -1.286  -0.538  0.00  0.00    +0.006 C 
BRANCH   6   7
ATOM      7  C   LIG    1       -2.976  -1.485   0.409  0.00  0.00    +0.035 C 
BRANCH   7   8
ATOM      8  C   LIG    1       -3.901  -0.339   0.274  0.00  0.00    -0.047 A 
ATOM      9  C   LIG    1       -3.784   0.753   1.118  0.00  0.00    +0.007 A 
ATOM     10  C   LIG    1       -4.628   1.828   1.049  0.00  0.00    +0.045 A 
ATOM     11  C   LIG    1       -5.632   1.807   0.094  0.00  0.00    +0.117 A 
ATOM     12  C   LIG    1       -5.762   0.729  -0.755  0.00  0.00    +0.045 A 
ATOM     13  C   LIG    1       -4.892  -0.363  -0.672  0.00  0.00    +0.007 A 
BRANCH  11  14
ATOM     14  O   LIG    1       -6.529   2.852  -0.045  0.00  0.00    -0.507 OA
ATOM     15  H   LIG    1       -6.365   3.633  -0.647  0.00  0.00    +0.292 HD
ENDBRANCH  11  14
ENDBRANCH   7   8
ENDBRANCH   6   7
ENDBRANCH   5   6
ENDBRANCH   4   5
ENDBRANCH   2   4
ENDBRANCH   1   2
BRANCH   1  16
ATOM     16  C   LIG    1        2.017  -0.262  -0.016  0.00  0.00    +0.158 C 
BRANCH  16  17
ATOM     17  C   LIG    1        3.327   0.426  -0.034  0.00  0.00    -0.014 A 
ATOM     18  C   LIG    1        4.053   0.799   1.054  0.00  0.00    +0.010 A 
ATOM     19  C   LIG    1        5.279   1.456   0.957  0.00  0.00    +0.049 A 
ATOM     20  C   LIG    1        5.801   1.753  -0.281  0.00  0.00    +0.158 A 
ATOM     21  C   LIG    1        5.078   1.383  -1.403  0.00  0.00    +0.159 A 
ATOM     22  C   LIG    1        3.864   0.731  -1.274  0.00  0.00    +0.055 A 
BRANCH  20  23
ATOM     23  O   LIG    1        7.035   2.412  -0.368  0.00  0.00    -0.503 OA
ATOM     24  H   LIG    1        7.401   2.616  -1.312  0.00  0.00    +0.292 HD
ENDBRANCH  20  23
BRANCH  21  25
ATOM     25  O   LIG    1        5.653   1.707  -2.630  0.00  0.00    -0.503 OA
ATOM     26  H   LIG    1        5.141   1.442  -3.459  0.00  0.00    +0.292 HD
ENDBRANCH  21  25
ENDBRANCH  16  17
BRANCH  16  27
ATOM     27  O   LIG    1        2.062  -1.195  -1.030  0.00  0.00    -0.386 OA
ATOM     28  H   LIG    1        1.760  -0.870  -1.917  0.00  0.00    +0.210 HD
ENDBRANCH  16  27
ENDBRANCH   1  16
TORSDOF 12
