REMARK  Name = molecules/IIVBFTNIGYRNQY-YQLZSBIMSA-N.pdb
REMARK                            x       y       z     vdW  Elec       q    Type
REMARK                         _______ _______ _______ _____ _____    ______ ____
ROOT
ATOM      1  C   LIG    1       -1.274   1.453  -0.287  0.00  0.00    +0.016 C 
ATOM      2  C   LIG    1       -1.427   0.017   0.140  0.00  0.00    +0.018 C 
ATOM      3  C   LIG    1       -0.815  -0.195   1.515  0.00  0.00    +0.011 C 
ATOM      4  C   LIG    1        0.635   0.234   1.547  0.00  0.00    +0.005 C 
ATOM      5  C   LIG    1        1.477  -0.198   0.415  0.00  0.00    +0.004 C 
ATOM      6  C   LIG    1        2.682   0.707   0.278  0.00  0.00    +0.023 C 
ATOM      7  C   LIG    1        3.647   0.592   1.435  0.00  0.00    +0.016 C 
ATOM      8  C   LIG    1        4.697   1.675   1.299  0.00  0.00    +0.079 C 
ATOM      9  C   LIG    1        5.088   1.903  -0.114  0.00  0.00    +0.156 C 
ATOM     10  O   LIG    1        5.797   2.860  -0.434  0.00  0.00    -0.293 OA
ATOM     11  C   LIG    1        4.613   0.962  -1.127  0.00  0.00    +0.050 C 
ATOM     12  C   LIG    1        3.445   0.369  -0.956  0.00  0.00    -0.038 C 
ATOM     13  C   LIG    1        2.918  -0.583  -1.921  0.00  0.00    -0.051 C 
ATOM     14  C   LIG    1        1.635  -0.852  -1.920  0.00  0.00    -0.019 C 
ATOM     15  C   LIG    1        3.859  -1.239  -2.899  0.00  0.00    +0.044 C 
ATOM     16  C   LIG    1        0.749  -0.176  -0.934  0.00  0.00    +0.019 C 
ATOM     17  C   LIG    1       -2.756  -0.574  -0.085  0.00  0.00    +0.176 C 
ATOM     18  C   LIG    1       -2.578  -1.741  -1.106  0.00  0.00    +0.057 C 
ATOM     19  C   LIG    1       -1.371  -1.212  -1.859  0.00  0.00    +0.009 C 
ATOM     20  C   LIG    1       -0.511  -0.895  -0.709  0.00  0.00    +0.006 C 
ENDROOT
BRANCH  17  21
ATOM     21  C   LIG    1       -3.710   0.317  -0.805  0.00  0.00    +0.174 C 
ATOM     22  C   LIG    1       -5.115   0.393  -0.371  0.00  0.00    +0.090 C 
ATOM     23  O   LIG    1       -3.384   0.993  -1.749  0.00  0.00    -0.293 OA
ENDBRANCH  17  21
BRANCH  17  24
ATOM     24  O   LIG    1       -3.426  -1.055   1.036  0.00  0.00    -0.450 OA
BRANCH  24  25
ATOM     25  C   LIG    1       -3.846  -0.222   2.044  0.00  0.00    +0.305 C 
ATOM     26  C   LIG    1       -4.546  -0.774   3.264  0.00  0.00    +0.136 C 
ATOM     27  O   LIG    1       -3.705   1.027   2.070  0.00  0.00    -0.251 OA
ENDBRANCH  24  25
ENDBRANCH  17  24
TORSDOF 3
