REMARK  Name = molecules/IIXWYSCJSQVBQM-LLVKDONJSA-N.pdb
REMARK                            x       y       z     vdW  Elec       q    Type
REMARK                         _______ _______ _______ _____ _____    ______ ____
ROOT
ATOM      1  C   LIG    1       -2.760  -2.569  -0.905  0.00  0.00    +0.016 A 
ATOM      2  C   LIG    1       -2.383  -1.387  -0.184  0.00  0.00    +0.044 A 
ATOM      3  C   LIG    1       -1.369  -1.664   0.809  0.00  0.00    +0.247 C 
ATOM      4  O   LIG    1       -1.911  -2.300   1.852  0.00  0.00    -0.270 OA
ATOM      5  N   LIG    1        0.038  -1.435   0.944  0.00  0.00    -0.295 N 
ATOM      6  C   LIG    1        0.452  -0.696   2.145  0.00  0.00    +0.132 C 
ATOM      7  C   LIG    1        1.013  -1.958   0.023  0.00  0.00    +0.165 C 
ATOM      8  C   LIG    1        2.316  -1.321  -0.125  0.00  0.00    +0.089 A 
ATOM      9  N   LIG    1        3.517  -1.935  -0.133  0.00  0.00    -0.173 NA
ATOM     10  N   LIG    1        4.470  -1.084  -0.346  0.00  0.00    -0.256 N 
ATOM     11  C   LIG    1        5.876  -1.421  -0.416  0.00  0.00    +0.174 C 
ATOM     12  C   LIG    1        3.933   0.123  -0.485  0.00  0.00    +0.146 A 
ATOM     13  C   LIG    1        2.562   0.028  -0.351  0.00  0.00    +0.044 A 
ATOM     14  C   LIG    1        1.497   1.067  -0.351  0.00  0.00    +0.008 A 
ATOM     15  C   LIG    1        1.952   2.249   0.280  0.00  0.00    +0.121 A 
ATOM     16  N   LIG    1        1.163   3.265   0.612  0.00  0.00    -0.236 NA
ATOM     17  C   LIG    1       -0.143   3.124   0.320  0.00  0.00    +0.158 A 
ATOM     18  C   LIG    1       -0.645   1.986  -0.296  0.00  0.00    +0.161 A 
ATOM     19  O   LIG    1       -2.033   2.033  -0.463  0.00  0.00    -0.481 OA
ATOM     20  C   LIG    1       -2.972   1.112   0.049  0.00  0.00    +0.201 C 
ATOM     21  C   LIG    1       -2.892   1.087   1.539  0.00  0.00    +0.057 C 
ATOM     22  C   LIG    1        0.178   0.927  -0.663  0.00  0.00    +0.059 A 
ATOM     23  C   LIG    1       -3.001  -0.222  -0.566  0.00  0.00    +0.007 A 
ATOM     24  C   LIG    1       -3.928  -0.298  -1.628  0.00  0.00    +0.046 A 
ATOM     25  C   LIG    1       -4.264  -1.435  -2.300  0.00  0.00    +0.124 A 
ATOM     26  F   LIG    1       -5.156  -1.455  -3.309  0.00  0.00    -0.205 F 
ATOM     27  C   LIG    1       -3.660  -2.600  -1.921  0.00  0.00    +0.039 A 
ENDROOT
BRANCH  17  28
ATOM     28  N   LIG    1       -0.950   4.272   0.680  0.00  0.00    -0.340 N 
ATOM     29  H   LIG    1       -0.880   4.764   1.574  0.00  0.00    +0.144 HD
ATOM     30  H   LIG    1       -1.633   4.591  -0.035  0.00  0.00    +0.144 HD
ENDBRANCH  17  28
BRANCH  12  31
ATOM     31  C   LIG    1        4.740   1.301  -0.743  0.00  0.00    +0.119 C 
ATOM     32  N   LIG    1        5.368   2.254  -0.955  0.00  0.00    -0.189 NA
ENDBRANCH  12  31
TORSDOF 2
