REMARK  Name = molecules/IJHNSHDBIRRJRN-HNNXBMFYSA-N.pdb
REMARK                            x       y       z     vdW  Elec       q    Type
REMARK                         _______ _______ _______ _____ _____    ______ ____
ROOT
ATOM      1  C   LIG    1       -0.501  -0.173   1.024  0.00  0.00    +0.069 C 
ENDROOT
BRANCH   1   2
ATOM      2  C   LIG    1       -1.240   1.076   0.762  0.00  0.00    -0.038 A 
ATOM      3  C   LIG    1       -1.929   1.730   1.763  0.00  0.00    +0.004 A 
ATOM      4  C   LIG    1       -2.621   2.915   1.536  0.00  0.00    +0.000 A 
ATOM      5  C   LIG    1       -2.636   3.471   0.292  0.00  0.00    +0.000 A 
ATOM      6  C   LIG    1       -1.961   2.844  -0.722  0.00  0.00    +0.000 A 
ATOM      7  C   LIG    1       -1.268   1.653  -0.485  0.00  0.00    +0.004 A 
ENDBRANCH   1   2
BRANCH   1   8
ATOM      8  C   LIG    1       -0.997  -1.321   0.219  0.00  0.00    +0.049 A 
ATOM      9  C   LIG    1       -2.039  -2.133   0.675  0.00  0.00    +0.024 A 
ATOM     10  C   LIG    1       -2.529  -3.193  -0.028  0.00  0.00    +0.003 A 
ATOM     11  C   LIG    1       -1.983  -3.500  -1.256  0.00  0.00    +0.020 A 
ATOM     12  C   LIG    1       -0.956  -2.702  -1.709  0.00  0.00    +0.111 A 
ATOM     13  N   LIG    1       -0.508  -1.669  -0.981  0.00  0.00    -0.259 NA
ENDBRANCH   1   8
BRANCH   1  14
ATOM     14  C   LIG    1        0.974  -0.081   1.016  0.00  0.00    +0.029 C 
BRANCH  14  15
ATOM     15  C   LIG    1        1.635   0.386  -0.222  0.00  0.00    +0.085 C 
BRANCH  15  16
ATOM     16  N   LIG    1        3.088   0.414  -0.109  0.00  0.00    -0.308 NA
ATOM     17  C   LIG    1        3.646  -0.863   0.226  0.00  0.00    +0.104 C 
ATOM     18  C   LIG    1        3.702   0.875  -1.339  0.00  0.00    +0.104 C 
ENDBRANCH  15  16
ENDBRANCH  14  15
ENDBRANCH   1  14
TORSDOF 5
