REMARK  Name = molecules/IJZUQDQOAFUFJY-UHFFFAOYSA-N.pdb
REMARK                            x       y       z     vdW  Elec       q    Type
REMARK                         _______ _______ _______ _____ _____    ______ ____
ROOT
ATOM      1  N   LIG    1        0.035   0.300  -1.071  0.00  0.00    -0.136 N 
ATOM      2  H   LIG    1       -0.408   0.434  -2.002  0.00  0.00    +0.291 HD
ENDROOT
BRANCH   1   3
ATOM      3  C   LIG    1       -0.177   1.197   0.018  0.00  0.00    +0.410 C 
ATOM      4  N   LIG    1        0.533   2.264   0.056  0.00  0.00    -0.128 NA
ATOM      5  H   LIG    1        0.402   2.934   0.835  0.00  0.00    +0.306 HD
BRANCH   3   6
ATOM      6  N   LIG    1       -1.126   0.961   1.047  0.00  0.00    -0.194 N 
ATOM      7  H   LIG    1       -0.854   1.157   2.037  0.00  0.00    +0.270 HD
BRANCH   6   8
ATOM      8  C   LIG    1       -2.436   0.461   0.733  0.00  0.00    +0.367 A 
ATOM      9  O   LIG    1       -3.410   0.195   1.546  0.00  0.00    -0.417 OA
ATOM     10  C   LIG    1       -4.465  -0.247   0.905  0.00  0.00    +0.128 A 
ATOM     11  C   LIG    1       -5.778  -0.658   1.485  0.00  0.00    +0.088 C 
ATOM     12  C   LIG    1       -4.148  -0.268  -0.430  0.00  0.00    +0.083 A 
ATOM     13  C   LIG    1       -4.987  -0.684  -1.585  0.00  0.00    +0.069 C 
ATOM     14  N   LIG    1       -2.871   0.182  -0.499  0.00  0.00    -0.184 NA
ENDBRANCH   6   8
ENDBRANCH   3   6
ENDBRANCH   1   3
BRANCH   1  15
ATOM     15  S   LIG    1        1.062  -1.058  -0.841  0.00  0.00    +0.120 S 
ATOM     16  O   LIG    1        0.536  -1.922   0.275  0.00  0.00    -0.135 OA
ATOM     17  O   LIG    1        1.095  -1.869  -2.091  0.00  0.00    -0.135 OA
BRANCH  15  18
ATOM     18  C   LIG    1        2.701  -0.538  -0.443  0.00  0.00    +0.124 A 
ATOM     19  C   LIG    1        3.081  -0.343   0.869  0.00  0.00    +0.032 A 
ATOM     20  C   LIG    1        4.379   0.068   1.172  0.00  0.00    +0.025 A 
ATOM     21  C   LIG    1        5.285   0.283   0.175  0.00  0.00    +0.025 A 
ATOM     22  C   LIG    1        4.933   0.096  -1.158  0.00  0.00    +0.025 A 
ATOM     23  C   LIG    1        3.646  -0.310  -1.419  0.00  0.00    +0.032 A 
BRANCH  21  24
ATOM     24  N   LIG    1        6.601   0.699   0.464  0.00  0.00    -0.358 N 
ATOM     25  H   LIG    1        6.779   1.670   0.797  0.00  0.00    +0.142 HD
ATOM     26  H   LIG    1        7.420   0.061   0.356  0.00  0.00    +0.142 HD
ENDBRANCH  21  24
ENDBRANCH  15  18
ENDBRANCH   1  15
TORSDOF 6
