REMARK  Name = molecules/IKENVDNFQMCRTR-UHFFFAOYSA-N.pdb
REMARK                            x       y       z     vdW  Elec       q    Type
REMARK                         _______ _______ _______ _____ _____    ______ ____
ROOT
ATOM      1  C   LIG    1       -2.016  -0.523   0.585  0.00  0.00    +0.034 A 
ATOM      2  C   LIG    1       -1.389  -0.365   1.790  0.00  0.00    +0.024 A 
ATOM      3  C   LIG    1       -0.063  -0.030   1.901  0.00  0.00    +0.015 A 
ATOM      4  C   LIG    1        0.720   0.169   0.759  0.00  0.00    +0.037 A 
ATOM      5  C   LIG    1        0.089   0.013  -0.461  0.00  0.00    +0.015 A 
ATOM      6  C   LIG    1       -1.242  -0.324  -0.571  0.00  0.00    +0.024 A 
ENDROOT
BRANCH   4   7
ATOM      7  C   LIG    1        2.071   0.585   0.962  0.00  0.00    +0.251 C 
ATOM      8  O   LIG    1        2.397   1.037   2.112  0.00  0.00    -0.270 OA
ATOM      9  N   LIG    1        3.080   0.533  -0.028  0.00  0.00    -0.266 N 
ATOM     10  C   LIG    1        4.090   1.538   0.103  0.00  0.00    +0.046 A 
ATOM     11  C   LIG    1        3.558   2.735   0.572  0.00  0.00    +0.024 A 
ATOM     12  C   LIG    1        4.368   3.824   0.750  0.00  0.00    +0.002 A 
ATOM     13  C   LIG    1        5.692   3.714   0.462  0.00  0.00    +0.001 A 
ATOM     14  C   LIG    1        6.256   2.524  -0.011  0.00  0.00    +0.012 A 
ATOM     15  C   LIG    1        5.449   1.428  -0.192  0.00  0.00    +0.021 A 
ATOM     16  C   LIG    1        6.153   0.259  -0.699  0.00  0.00    +0.071 A 
ATOM     17  N   LIG    1        7.465   0.229  -0.937  0.00  0.00    -0.342 N 
ATOM     18  H   LIG    1        8.198   0.952  -0.826  0.00  0.00    +0.167 HD
ATOM     19  C   LIG    1        7.723  -1.014  -1.391  0.00  0.00    +0.105 A 
ATOM     20  N   LIG    1        6.593  -1.727  -1.429  0.00  0.00    -0.237 NA
ATOM     21  C   LIG    1        9.056  -1.555  -1.798  0.00  0.00    +0.086 C 
ATOM     22  C   LIG    1        5.559  -0.941  -0.990  0.00  0.00    +0.069 A 
ATOM     23  C   LIG    1        4.222  -1.488  -0.928  0.00  0.00    +0.077 C 
ATOM     24  C   LIG    1        3.067  -0.533  -1.007  0.00  0.00    +0.120 C 
ENDBRANCH   4   7
BRANCH   1  27
ATOM     25  C   LIG    1       -4.162  -1.521   1.335  0.00  0.00    +0.249 C 
ATOM     26  O   LIG    1       -3.664  -1.824   2.462  0.00  0.00    -0.270 OA
ATOM     27  N   LIG    1       -3.365  -0.887   0.379  0.00  0.00    -0.281 N 
ATOM     28  H   LIG    1       -3.829  -0.705  -0.564  0.00  0.00    +0.155 HD
BRANCH  25  33
ATOM     29  C   LIG    1       -7.698  -1.617   0.158  0.00  0.00    +0.009 A 
ATOM     30  C   LIG    1       -8.144  -2.774   0.744  0.00  0.00    +0.001 A 
ATOM     31  C   LIG    1       -7.286  -3.493   1.544  0.00  0.00    +0.001 A 
ATOM     32  C   LIG    1       -6.003  -3.062   1.752  0.00  0.00    +0.013 A 
ATOM     33  C   LIG    1       -5.562  -1.882   1.147  0.00  0.00    +0.045 A 
ATOM     34  C   LIG    1       -6.399  -1.167   0.361  0.00  0.00    -0.006 A 
BRANCH  34  35
ATOM     35  C   LIG    1       -6.081   0.122  -0.262  0.00  0.00    -0.017 A 
ATOM     36  C   LIG    1       -5.576   1.176   0.508  0.00  0.00    +0.008 A 
ATOM     37  C   LIG    1       -5.310   2.387  -0.089  0.00  0.00    +0.001 A 
ATOM     38  C   LIG    1       -5.534   2.584  -1.437  0.00  0.00    +0.000 A 
ATOM     39  C   LIG    1       -6.026   1.569  -2.205  0.00  0.00    +0.001 A 
ATOM     40  C   LIG    1       -6.298   0.335  -1.600  0.00  0.00    +0.008 A 
ENDBRANCH  34  35
ENDBRANCH  25  33
ENDBRANCH   1  27
TORSDOF 4
