REMARK  Name = molecules/IKFBPFGUINLYQI-QPSCCSFWSA-N.pdb
REMARK                            x       y       z     vdW  Elec       q    Type
REMARK                         _______ _______ _______ _____ _____    ______ ____
ROOT
ATOM      1  C   LIG    1       -0.677  -0.004   1.048  0.00  0.00    +0.064 C 
ATOM      2  C   LIG    1       -1.618  -1.196   1.106  0.00  0.00    +0.007 C 
ATOM      3  C   LIG    1       -0.510  -2.260   1.207  0.00  0.00    +0.009 C 
ATOM      4  C   LIG    1        0.119  -1.867  -0.137  0.00  0.00    -0.002 C 
ATOM      5  C   LIG    1       -1.060  -2.273  -1.016  0.00  0.00    +0.004 C 
ATOM      6  C   LIG    1       -2.178  -1.554  -0.237  0.00  0.00    +0.005 C 
ATOM      7  C   LIG    1        0.126  -0.344  -0.151  0.00  0.00    +0.039 C 
ENDROOT
BRANCH   7   8
ATOM      8  C   LIG    1        1.488   0.190  -0.218  0.00  0.00    -0.043 A 
ATOM      9  C   LIG    1        2.441   0.021   0.779  0.00  0.00    +0.004 A 
ATOM     10  C   LIG    1        3.735   0.532   0.666  0.00  0.00    +0.000 A 
ATOM     11  C   LIG    1        4.115   1.235  -0.461  0.00  0.00    +0.000 A 
ATOM     12  C   LIG    1        3.197   1.415  -1.458  0.00  0.00    +0.000 A 
ATOM     13  C   LIG    1        1.941   0.906  -1.321  0.00  0.00    +0.004 A 
ENDBRANCH   7   8
BRANCH   1  14
ATOM     14  N   LIG    1       -1.238   1.236   1.229  0.00  0.00    -0.313 NA
ATOM     15  H   LIG    1       -1.426   1.403   2.256  0.00  0.00    +0.122 HD
BRANCH  14  16
ATOM     16  C   LIG    1       -2.217   1.807   0.434  0.00  0.00    +0.078 C 
ATOM     17  C   LIG    1       -1.805   2.235  -0.963  0.00  0.00    +0.020 C 
ENDBRANCH  14  16
ENDBRANCH   1  14
TORSDOF 3
