REMARK  Name = molecules/IKGXIBQEEMLURG-NVPNHPEKSA-N.pdb
REMARK                            x       y       z     vdW  Elec       q    Type
REMARK                         _______ _______ _______ _____ _____    ______ ____
ROOT
ATOM      1  C   LIG    1       -0.914   1.147  -0.423  0.00  0.00    +0.340 C 
ATOM      2  O   LIG    1       -0.113   0.015  -0.262  0.00  0.00    -0.331 OA
ATOM      3  C   LIG    1        0.585  -0.303  -1.411  0.00  0.00    +0.179 C 
ATOM      4  C   LIG    1        0.832   0.805  -2.353  0.00  0.00    +0.177 C 
ATOM      5  C   LIG    1        0.731   2.191  -1.839  0.00  0.00    +0.180 C 
ATOM      6  C   LIG    1        0.063   2.290  -0.484  0.00  0.00    +0.214 C 
ENDROOT
BRANCH   6   7
ATOM      7  O   LIG    1       -0.453   3.541  -0.334  0.00  0.00    -0.383 OA
ATOM      8  H   LIG    1       -0.142   4.181  -1.044  0.00  0.00    +0.210 HD
ENDBRANCH   6   7
BRANCH   4   9
ATOM      9  O   LIG    1       -0.096   0.682  -3.415  0.00  0.00    -0.386 OA
ATOM     10  H   LIG    1       -0.067  -0.200  -3.825  0.00  0.00    +0.210 HD
ENDBRANCH   4   9
BRANCH   5  11
ATOM     11  O   LIG    1        1.981   2.798  -1.732  0.00  0.00    -0.386 OA
ATOM     12  H   LIG    1        1.839   3.648  -1.249  0.00  0.00    +0.210 HD
ENDBRANCH   5  11
BRANCH   3  13
ATOM     13  C   LIG    1        1.913  -0.895  -0.989  0.00  0.00    +0.197 C 
BRANCH  13  14
ATOM     14  O   LIG    1        2.610   0.024  -0.246  0.00  0.00    -0.346 OA
BRANCH  14  15
ATOM     15  C   LIG    1        3.840  -0.422   0.186  0.00  0.00    +0.282 C 
ATOM     16  O   LIG    1        3.892  -0.466   1.558  0.00  0.00    -0.343 OA
ATOM     17  C   LIG    1        4.984  -1.158   2.043  0.00  0.00    +0.149 C 
ATOM     18  C   LIG    1        4.899  -2.653   1.780  0.00  0.00    +0.041 C 
ATOM     19  C   LIG    1        6.290  -0.647   1.481  0.00  0.00    +0.174 C 
ATOM     20  C   LIG    1        6.081   0.573   0.607  0.00  0.00    +0.179 C 
ATOM     21  C   LIG    1        4.986   0.380  -0.391  0.00  0.00    +0.201 C 
BRANCH  21  22
ATOM     22  O   LIG    1        5.476  -0.249  -1.534  0.00  0.00    -0.384 OA
ATOM     23  H   LIG    1        6.108   0.380  -1.977  0.00  0.00    +0.210 HD
ENDBRANCH  21  22
BRANCH  20  24
ATOM     24  O   LIG    1        7.296   0.806  -0.050  0.00  0.00    -0.386 OA
ATOM     25  H   LIG    1        7.240   1.524  -0.718  0.00  0.00    +0.210 HD
ENDBRANCH  20  24
BRANCH  19  26
ATOM     26  O   LIG    1        7.092  -0.248   2.549  0.00  0.00    -0.387 OA
ATOM     27  H   LIG    1        7.584   0.607   2.352  0.00  0.00    +0.210 HD
ENDBRANCH  19  26
ENDBRANCH  14  15
ENDBRANCH  13  14
ENDBRANCH   3  13
BRANCH   1  28
ATOM     28  O   LIG    1       -1.903   1.246   0.552  0.00  0.00    -0.453 OA
BRANCH  28  29
ATOM     29  C   LIG    1       -3.219   0.927   0.265  0.00  0.00    +0.214 A 
ATOM     30  C   LIG    1       -3.773  -0.270   0.556  0.00  0.00    +0.181 A 
ATOM     31  O   LIG    1       -5.056  -0.466   0.206  0.00  0.00    -0.451 OA
ATOM     32  C   LIG    1       -5.795   0.421  -0.389  0.00  0.00    +0.147 A 
ATOM     33  C   LIG    1       -5.271   1.668  -0.704  0.00  0.00    +0.109 A 
ATOM     34  C   LIG    1       -6.042   2.618  -1.333  0.00  0.00    +0.135 A 
ATOM     35  C   LIG    1       -7.382   2.329  -1.666  0.00  0.00    +0.091 A 
ATOM     36  C   LIG    1       -7.878   1.097  -1.348  0.00  0.00    +0.124 A 
ATOM     37  C   LIG    1       -7.118   0.145  -0.721  0.00  0.00    +0.092 A 
ATOM     38  C   LIG    1       -3.962   1.936  -0.376  0.00  0.00    +0.238 A 
ATOM     39  O   LIG    1       -3.402   3.018  -0.613  0.00  0.00    -0.283 OA
BRANCH  30  40
ATOM     40  C   LIG    1       -3.069  -1.346   1.222  0.00  0.00    +0.025 A 
ATOM     41  C   LIG    1       -1.899  -1.283   1.907  0.00  0.00    +0.060 A 
ATOM     42  C   LIG    1       -1.267  -2.387   2.490  0.00  0.00    +0.159 A 
ATOM     43  C   LIG    1       -1.838  -3.631   2.386  0.00  0.00    +0.158 A 
ATOM     44  C   LIG    1       -3.026  -3.731   1.700  0.00  0.00    +0.050 A 
ATOM     45  C   LIG    1       -3.632  -2.636   1.132  0.00  0.00    +0.015 A 
BRANCH  43  46
ATOM     46  O   LIG    1       -1.216  -4.729   2.962  0.00  0.00    -0.503 OA
ATOM     47  H   LIG    1       -0.347  -4.653   3.464  0.00  0.00    +0.292 HD
ENDBRANCH  43  46
BRANCH  42  48
ATOM     48  O   LIG    1       -0.077  -2.263   3.174  0.00  0.00    -0.503 OA
ATOM     49  H   LIG    1        0.438  -1.423   3.321  0.00  0.00    +0.292 HD
ENDBRANCH  42  48
ENDBRANCH  30  40
BRANCH  36  50
ATOM     50  O   LIG    1       -9.211   0.765  -1.661  0.00  0.00    -0.507 OA
ATOM     51  H   LIG    1       -9.789   1.450  -2.123  0.00  0.00    +0.292 HD
ENDBRANCH  36  50
BRANCH  34  52
ATOM     52  O   LIG    1       -5.589   3.848  -1.665  0.00  0.00    -0.506 OA
ATOM     53  H   LIG    1       -4.763   4.332  -1.580  0.00  0.00    +0.292 HD
ENDBRANCH  34  52
ENDBRANCH  28  29
ENDBRANCH   1  28
TORSDOF 16
