REMARK  Name = molecules/IKWTVSLWAPBBKU-UHFFFAOYSA-N.pdb
REMARK                            x       y       z     vdW  Elec       q    Type
REMARK                         _______ _______ _______ _____ _____    ______ ____
ROOT
ATOM      1  O   HOH    1        2.135   1.088  -0.316  0.00  0.00    +0.000 OA
ENDROOT
TORSDOF 0
REMARK  Name = molecules/IKWTVSLWAPBBKU-UHFFFAOYSA-N.pdb
REMARK                            x       y       z     vdW  Elec       q    Type
REMARK                         _______ _______ _______ _____ _____    ______ ____
ROOT
ATOM      1 AS   LIG    1        1.083  -1.094   0.834  0.00  0.00    +0.000 As
ATOM      2  O   LIG    1       -0.117  -1.070  -0.814  0.00  0.00    +0.000 OA
ENDROOT
BRANCH   2   3
ATOM      3 AS   LIG    1       -1.722  -0.486   0.031  0.00  0.00    +0.000 As
ATOM      4  O   LIG    1       -1.379   1.562   0.265  0.00  0.00    +0.000 OA
ENDBRANCH   2   3
TORSDOF 1
