REMARK  Name = molecules/IKYIXZSIKOYSLD-NSHDSACASA-N.pdb
REMARK                            x       y       z     vdW  Elec       q    Type
REMARK                         _______ _______ _______ _____ _____    ______ ____
ROOT
ATOM      1  C   LIG    1       -0.783   1.596  -0.288  0.00  0.00    +0.132 C 
ENDROOT
BRANCH   1   2
ATOM      2  C   LIG    1       -1.444   0.399   0.294  0.00  0.00    -0.033 A 
ATOM      3  C   LIG    1       -1.472   0.188   1.657  0.00  0.00    +0.004 A 
ATOM      4  C   LIG    1       -2.083  -0.922   2.220  0.00  0.00    +0.000 A 
ATOM      5  C   LIG    1       -2.687  -1.856   1.409  0.00  0.00    +0.000 A 
ATOM      6  C   LIG    1       -2.673  -1.669   0.045  0.00  0.00    +0.000 A 
ATOM      7  C   LIG    1       -2.059  -0.554  -0.519  0.00  0.00    +0.004 A 
ENDBRANCH   1   2
BRANCH   1   8
ATOM      8  C   LIG    1       -1.448   2.786   0.307  0.00  0.00    +0.313 C 
ATOM      9  O   LIG    1       -0.815   3.646   0.988  0.00  0.00    -0.250 OA
BRANCH   8  10
ATOM     10  O   LIG    1       -2.809   3.029   0.155  0.00  0.00    -0.480 OA
ATOM     11  H   LIG    1       -3.425   3.042   0.982  0.00  0.00    +0.295 HD
ENDBRANCH   8  10
ENDBRANCH   1   8
BRANCH   1  12
ATOM     12  C   LIG    1        0.678   1.693   0.041  0.00  0.00    +0.054 C 
BRANCH  12  13
ATOM     13  C   LIG    1        1.518   0.608  -0.465  0.00  0.00    -0.044 A 
ATOM     14  C   LIG    1        1.715  -0.490   0.346  0.00  0.00    +0.021 A 
ATOM     15  C   LIG    1        2.500  -1.571  -0.060  0.00  0.00    +0.056 A 
ATOM     16  I   LIG    1        2.768  -3.231   1.228  0.00  0.00    -0.040 I 
ATOM     17  C   LIG    1        3.097  -1.558  -1.295  0.00  0.00    +0.143 A 
ATOM     18  C   LIG    1        2.898  -0.461  -2.102  0.00  0.00    +0.056 A 
ATOM     19  I   LIG    1        3.811  -0.434  -3.997  0.00  0.00    -0.040 I 
ATOM     20  C   LIG    1        2.124   0.602  -1.697  0.00  0.00    +0.021 A 
BRANCH  17  21
ATOM     21  O   LIG    1        3.872  -2.612  -1.710  0.00  0.00    -0.505 OA
ATOM     22  H   LIG    1        4.036  -3.421  -1.151  0.00  0.00    +0.292 HD
ENDBRANCH  17  21
ENDBRANCH  12  13
ENDBRANCH   1  12
TORSDOF 6
