REMARK  Name = molecules/ILVYCEVXHALBSC-GZICNWBJSA-N.pdb
REMARK                            x       y       z     vdW  Elec       q    Type
REMARK                         _______ _______ _______ _____ _____    ______ ____
ROOT
ATOM      1  C   LIG    1       -0.599   0.822   2.949  0.00  0.00    -0.030 C 
ATOM      2  C   LIG    1       -1.198   1.984   3.091  0.00  0.00    -0.030 C 
ENDROOT
BRANCH   1   3
ATOM      3  C   LIG    1        0.731   0.739   2.367  0.00  0.00    +0.038 C 
BRANCH   3   4
ATOM      4  C   LIG    1        0.890  -0.088   1.120  0.00  0.00    +0.124 C 
BRANCH   4   5
ATOM      5  C   LIG    1        2.369  -0.019   0.795  0.00  0.00    +0.307 C 
ATOM      6  O   LIG    1        3.113   0.700   1.510  0.00  0.00    -0.251 OA
BRANCH   5   7
ATOM      7  O   LIG    1        2.940  -0.713  -0.251  0.00  0.00    -0.465 OA
BRANCH   7   8
ATOM      8  C   LIG    1        4.367  -0.659  -0.535  0.00  0.00    +0.230 C 
BRANCH   8   9
ATOM      9  C   LIG    1        5.062  -1.284   0.600  0.00  0.00    +0.023 C 
BRANCH   9  10
ATOM     10  C   LIG    1        6.520  -1.397   0.657  0.00  0.00    -0.071 C 
BRANCH  10  12
ATOM     11  C   LIG    1        8.658  -0.552   0.107  0.00  0.00    -0.030 C 
ATOM     12  N   LIG    1        7.367  -0.258   0.732  0.00  0.00    +0.383 N 
ATOM     13  C   LIG    1        7.574  -0.067   2.205  0.00  0.00    -0.091 C 
ATOM     14  C   LIG    1        6.777   0.995   0.336  0.00  0.00    -0.070 C 
ATOM     15  C   LIG    1        7.663   2.156   0.812  0.00  0.00    +0.017 C 
ATOM     16  C   LIG    1        8.937   1.958   0.034  0.00  0.00    -0.044 A 
ATOM     17  C   LIG    1        9.636   3.059  -0.381  0.00  0.00    +0.053 A 
ATOM     18  C   LIG    1       10.765   2.982  -1.166  0.00  0.00    +0.162 A 
ATOM     19  C   LIG    1       11.140   1.682  -1.507  0.00  0.00    +0.162 A 
ATOM     20  C   LIG    1       10.474   0.560  -1.114  0.00  0.00    +0.051 A 
ATOM     21  C   LIG    1        9.327   0.685  -0.311  0.00  0.00    -0.053 A 
BRANCH  18  22
ATOM     22  O   LIG    1       11.483   4.080  -1.594  0.00  0.00    -0.491 OA
ATOM     23  C   LIG    1       11.052   5.367  -1.218  0.00  0.00    +0.277 C 
ENDBRANCH  18  22
BRANCH  19  24
ATOM     24  O   LIG    1       12.273   1.568  -2.300  0.00  0.00    -0.491 OA
ATOM     25  C   LIG    1       12.757   0.315  -2.714  0.00  0.00    +0.277 C 
ENDBRANCH  19  24
BRANCH  11  26
ATOM     26  C   LIG    1        9.412  -1.405   1.069  0.00  0.00    +0.025 C 
BRANCH  26  27
ATOM     27  C   LIG    1       10.737  -1.878   0.660  0.00  0.00    -0.041 A 
ATOM     28  C   LIG    1       11.863  -1.166   1.053  0.00  0.00    +0.053 A 
ATOM     29  C   LIG    1       13.131  -1.575   0.707  0.00  0.00    +0.165 A 
ATOM     30  C   LIG    1       13.284  -2.730  -0.054  0.00  0.00    +0.204 A 
ATOM     31  C   LIG    1       12.179  -3.451  -0.455  0.00  0.00    +0.165 A 
ATOM     32  C   LIG    1       10.917  -3.003  -0.084  0.00  0.00    +0.053 A 
BRANCH  29  33
ATOM     33  O   LIG    1       14.292  -0.880   1.086  0.00  0.00    -0.491 OA
ATOM     34  C   LIG    1       14.093   0.303   1.870  0.00  0.00    +0.277 C 
ENDBRANCH  29  33
BRANCH  30  35
ATOM     35  O   LIG    1       14.543  -3.183  -0.429  0.00  0.00    -0.488 OA
ATOM     36  C   LIG    1       15.225  -4.069   0.436  0.00  0.00    +0.277 C 
ENDBRANCH  30  35
BRANCH  31  37
ATOM     37  O   LIG    1       12.353  -4.612  -1.222  0.00  0.00    -0.491 OA
ATOM     38  C   LIG    1       11.222  -5.357  -1.635  0.00  0.00    +0.277 C 
ENDBRANCH  31  37
ENDBRANCH  26  27
ENDBRANCH  11  26
ENDBRANCH  10  12
ENDBRANCH   9  10
ENDBRANCH   8   9
ENDBRANCH   7   8
ENDBRANCH   5   7
ENDBRANCH   4   5
ENDBRANCH   3   4
ENDBRANCH   1   3
BRANCH   2  39
ATOM     39  C   LIG    1       -2.539   2.075   3.686  0.00  0.00    +0.038 C 
BRANCH  39  40
ATOM     40  C   LIG    1       -3.518   2.680   2.763  0.00  0.00    +0.124 C 
BRANCH  40  41
ATOM     41  C   LIG    1       -3.810   1.966   1.514  0.00  0.00    +0.307 C 
ATOM     42  O   LIG    1       -4.008   2.690   0.478  0.00  0.00    -0.251 OA
BRANCH  41  43
ATOM     43  O   LIG    1       -3.888   0.616   1.375  0.00  0.00    -0.465 OA
BRANCH  43  44
ATOM     44  C   LIG    1       -4.190  -0.186   0.301  0.00  0.00    +0.230 C 
BRANCH  44  45
ATOM     45  C   LIG    1       -5.622  -0.314  -0.119  0.00  0.00    +0.023 C 
BRANCH  45  46
ATOM     46  C   LIG    1       -6.261   0.956  -0.469  0.00  0.00    -0.071 C 
BRANCH  46  47
ATOM     47  N   LIG    1       -7.647   0.882  -0.922  0.00  0.00    +0.383 N 
ATOM     48  C   LIG    1       -8.596   1.422  -0.026  0.00  0.00    -0.030 C 
ATOM     49  C   LIG    1       -9.820   1.703  -0.891  0.00  0.00    -0.053 A 
ATOM     50  C   LIG    1      -10.588   2.808  -0.687  0.00  0.00    +0.051 A 
ATOM     51  C   LIG    1      -11.712   3.027  -1.482  0.00  0.00    +0.162 A 
ATOM     52  C   LIG    1      -12.043   2.110  -2.483  0.00  0.00    +0.162 A 
ATOM     53  C   LIG    1      -11.232   1.026  -2.634  0.00  0.00    +0.053 A 
ATOM     54  C   LIG    1      -10.113   0.797  -1.851  0.00  0.00    -0.044 A 
ATOM     55  C   LIG    1       -9.322  -0.426  -2.127  0.00  0.00    +0.017 C 
ATOM     56  C   LIG    1       -7.920  -0.370  -1.530  0.00  0.00    -0.070 C 
ATOM     57  C   LIG    1       -7.665   1.850  -2.077  0.00  0.00    -0.091 C 
BRANCH  52  58
ATOM     58  O   LIG    1      -13.166   2.364  -3.250  0.00  0.00    -0.491 OA
ATOM     59  C   LIG    1      -13.506   1.439  -4.262  0.00  0.00    +0.277 C 
ENDBRANCH  52  58
BRANCH  51  60
ATOM     60  O   LIG    1      -12.477   4.138  -1.269  0.00  0.00    -0.491 OA
ATOM     61  C   LIG    1      -12.141   5.055  -0.262  0.00  0.00    +0.277 C 
ENDBRANCH  51  60
BRANCH  48  62
ATOM     62  C   LIG    1       -9.036   0.722   1.188  0.00  0.00    +0.025 C 
BRANCH  62  63
ATOM     63  C   LIG    1       -9.729  -0.545   1.080  0.00  0.00    -0.041 A 
ATOM     64  C   LIG    1       -9.141  -1.748   1.281  0.00  0.00    +0.053 A 
ATOM     65  C   LIG    1       -9.838  -2.961   1.214  0.00  0.00    +0.165 A 
ATOM     66  C   LIG    1      -11.193  -2.921   0.929  0.00  0.00    +0.204 A 
ATOM     67  C   LIG    1      -11.812  -1.700   0.722  0.00  0.00    +0.165 A 
ATOM     68  C   LIG    1      -11.100  -0.526   0.794  0.00  0.00    +0.053 A 
BRANCH  67  69
ATOM     69  O   LIG    1      -13.193  -1.696   0.433  0.00  0.00    -0.491 OA
ATOM     70  C   LIG    1      -13.793  -0.435   0.225  0.00  0.00    +0.277 C 
ENDBRANCH  67  69
BRANCH  66  71
ATOM     71  O   LIG    1      -11.943  -4.084   0.848  0.00  0.00    -0.488 OA
ATOM     72  C   LIG    1      -12.101  -4.783  -0.375  0.00  0.00    +0.277 C 
ENDBRANCH  66  71
BRANCH  65  73
ATOM     73  O   LIG    1       -9.225  -4.180   1.421  0.00  0.00    -0.491 OA
ATOM     74  C   LIG    1       -7.866  -4.347   1.712  0.00  0.00    +0.277 C 
ENDBRANCH  65  73
ENDBRANCH  62  63
ENDBRANCH  48  62
ENDBRANCH  46  47
ENDBRANCH  45  46
ENDBRANCH  44  45
ENDBRANCH  43  44
ENDBRANCH  41  43
ENDBRANCH  40  41
ENDBRANCH  39  40
ENDBRANCH   2  39
TORSDOF 30
