REMARK  Name = molecules/ILYCWAKSDCYMBB-OPCMSESCSA-N.pdb
REMARK                            x       y       z     vdW  Elec       q    Type
REMARK                         _______ _______ _______ _____ _____    ______ ____
ROOT
ATOM      1  C   LIG    1       -0.123   1.541   0.986  0.00  0.00    +0.012 C 
ATOM      2  C   LIG    1        0.349   1.790  -0.411  0.00  0.00    -0.022 C 
ATOM      3  C   LIG    1        1.718   1.330  -0.702  0.00  0.00    +0.002 C 
ATOM      4  C   LIG    1        1.580  -0.187  -0.632  0.00  0.00    +0.005 C 
ATOM      5  C   LIG    1        0.084  -0.482  -0.814  0.00  0.00    +0.009 C 
ATOM      6  C   LIG    1       -0.012   3.156  -0.935  0.00  0.00    +0.008 C 
ATOM      7  C   LIG    1       -1.502   3.358  -0.755  0.00  0.00    +0.005 C 
ATOM      8  C   LIG    1       -2.330   2.380  -1.570  0.00  0.00    +0.031 C 
ATOM      9  C   LIG    1       -1.882   1.023  -1.199  0.00  0.00    -0.066 C 
ATOM     10  C   LIG    1       -2.722   0.096  -0.798  0.00  0.00    -0.001 C 
ATOM     11  C   LIG    1       -0.421   0.807  -1.316  0.00  0.00    +0.021 C 
ENDROOT
BRANCH  10  12
ATOM     12  C   LIG    1       -4.150   0.311  -0.686  0.00  0.00    -0.000 C 
ATOM     13  C   LIG    1       -4.940  -0.675  -0.271  0.00  0.00    -0.064 C 
ATOM     14  C   LIG    1       -4.316  -1.958   0.062  0.00  0.00    +0.062 C 
ATOM     15  C   LIG    1       -5.333  -2.945   0.638  0.00  0.00    +0.119 C 
ATOM     16  C   LIG    1       -6.051  -2.184   1.734  0.00  0.00    +0.032 C 
ATOM     17  C   LIG    1       -6.862  -1.034   1.211  0.00  0.00    +0.010 C 
ATOM     18  C   LIG    1       -6.409  -0.521  -0.135  0.00  0.00    +0.012 C 
ATOM     19  C   LIG    1       -7.167  -1.225  -1.214  0.00  0.00    +0.012 C 
BRANCH  15  20
ATOM     20  O   LIG    1       -4.646  -3.992   1.212  0.00  0.00    -0.391 OA
ATOM     21  H   LIG    1       -3.672  -3.851   1.203  0.00  0.00    +0.210 HD
ENDBRANCH  15  20
ENDBRANCH  10  12
BRANCH   3  22
ATOM     22  C   LIG    1        2.803   1.763   0.200  0.00  0.00    +0.012 C 
ATOM     23  C   LIG    1        2.994   3.218   0.372  0.00  0.00    +0.012 C 
BRANCH  22  24
ATOM     24  C   LIG    1        4.088   1.181  -0.289  0.00  0.00    -0.027 C 
ATOM     25  C   LIG    1        4.777   0.258   0.345  0.00  0.00    -0.027 C 
BRANCH  25  26
ATOM     26  C   LIG    1        6.045  -0.324  -0.127  0.00  0.00    +0.011 C 
ATOM     27  C   LIG    1        6.486   0.266  -1.456  0.00  0.00    +0.012 C 
BRANCH  26  28
ATOM     28  C   LIG    1        5.984  -1.830  -0.241  0.00  0.00    -0.011 C 
ATOM     29  C   LIG    1        5.675  -2.426   1.116  0.00  0.00    +0.008 C 
ATOM     30  C   LIG    1        7.221  -2.414  -0.839  0.00  0.00    +0.008 C 
ENDBRANCH  26  28
ENDBRANCH  25  26
ENDBRANCH  22  24
ENDBRANCH   3  22
TORSDOF 6
