REMARK  Name = molecules/ILZSJEITWDWIRX-FOMYWIRZSA-N.pdb
REMARK                            x       y       z     vdW  Elec       q    Type
REMARK                         _______ _______ _______ _____ _____    ______ ____
ROOT
ATOM      1  C   LIG    1       -0.113  -1.722   0.286  0.00  0.00    +0.015 C 
ATOM      2  C   LIG    1       -0.665  -0.457  -0.307  0.00  0.00    +0.009 C 
ATOM      3  C   LIG    1       -1.034   0.555   0.700  0.00  0.00    +0.041 C 
ATOM      4  C   LIG    1       -2.450   0.758   1.032  0.00  0.00    +0.120 C 
ATOM      5  C   LIG    1       -3.477   0.090   0.199  0.00  0.00    +0.035 C 
ATOM      6  C   LIG    1       -4.801  -0.100   0.926  0.00  0.00    +0.013 C 
ATOM      7  C   LIG    1       -4.631  -1.074   2.091  0.00  0.00    +0.020 C 
ATOM      8  C   LIG    1       -5.195   1.179   1.501  0.00  0.00    -0.012 C 
ATOM      9  C   LIG    1       -6.299   1.802   1.168  0.00  0.00    +0.047 C 
ATOM     10  C   LIG    1       -7.231   1.268   0.188  0.00  0.00    +0.179 C 
ATOM     11  O   LIG    1       -8.286   1.869  -0.123  0.00  0.00    -0.288 OA
ATOM     12  C   LIG    1       -6.840  -0.011  -0.396  0.00  0.00    +0.051 C 
ATOM     13  C   LIG    1       -5.745  -0.621  -0.062  0.00  0.00    -0.056 C 
ATOM     14  C   LIG    1       -5.385  -1.942  -0.750  0.00  0.00    +0.032 C 
ATOM     15  C   LIG    1       -4.011  -1.839  -1.327  0.00  0.00    +0.008 C 
ATOM     16  C   LIG    1       -2.986  -1.165  -0.483  0.00  0.00    -0.000 C 
ATOM     17  C   LIG    1       -1.804  -0.681  -1.269  0.00  0.00    +0.002 C 
ATOM     18  C   LIG    1       -1.204  -1.593  -2.252  0.00  0.00    +0.008 C 
ATOM     19  C   LIG    1        0.202  -0.994  -2.425  0.00  0.00    +0.043 C 
ATOM     20  C   LIG    1        0.357   0.032  -1.323  0.00  0.00    +0.133 C 
ENDROOT
BRANCH   4  21
ATOM     21  O   LIG    1       -2.635   0.296   2.360  0.00  0.00    -0.391 OA
ATOM     22  H   LIG    1       -1.917   0.718   2.881  0.00  0.00    +0.210 HD
ENDBRANCH   4  21
BRANCH  20  23
ATOM     23  C   LIG    1        1.740   0.013  -0.842  0.00  0.00    +0.202 C 
ATOM     24  O   LIG    1        2.322  -0.975  -0.469  0.00  0.00    -0.291 OA
BRANCH  23  25
ATOM     25  C   LIG    1        2.509   1.296  -0.801  0.00  0.00    +0.309 C 
BRANCH  25  26
ATOM     26  O   LIG    1        3.822   1.103  -0.315  0.00  0.00    -0.456 OA
BRANCH  26  27
ATOM     27  C   LIG    1        4.066   0.606   0.936  0.00  0.00    +0.322 C 
ATOM     28  O   LIG    1        3.098   0.307   1.693  0.00  0.00    -0.249 OA
BRANCH  27  29
ATOM     29  C   LIG    1        5.445   0.410   1.423  0.00  0.00    +0.205 C 
BRANCH  29  30
ATOM     30  N   LIG    1        6.475   0.729   0.509  0.00  0.00    -0.293 NA
BRANCH  30  31
ATOM     31  C   LIG    1        6.614   2.118   0.181  0.00  0.00    +0.081 C 
ATOM     32  C   LIG    1        7.110   2.865   1.388  0.00  0.00    +0.020 C 
ENDBRANCH  30  31
BRANCH  30  33
ATOM     33  C   LIG    1        6.505  -0.134  -0.615  0.00  0.00    +0.081 C 
ATOM     34  C   LIG    1        6.926  -1.553  -0.206  0.00  0.00    +0.020 C 
ENDBRANCH  30  33
ENDBRANCH  29  30
ENDBRANCH  27  29
ENDBRANCH  26  27
ENDBRANCH  25  26
ENDBRANCH  23  25
ENDBRANCH  20  23
BRANCH  20  35
ATOM     35  O   LIG    1       -0.025   1.314  -1.720  0.00  0.00    -0.380 OA
ATOM     36  H   LIG    1        0.616   1.728  -2.333  0.00  0.00    +0.211 HD
ENDBRANCH  20  35
TORSDOF 10
