REMARK  Name = molecules/IMOLVSPMDGCLMB-UHFFFAOYSA-N.pdb
REMARK                            x       y       z     vdW  Elec       q    Type
REMARK                         _______ _______ _______ _____ _____    ______ ____
ROOT
ATOM      1  C   LIG    1        1.988   0.284   0.390  0.00  0.00    +0.253 C 
ATOM      2  O   LIG    1        2.324   0.876   1.481  0.00  0.00    -0.272 OA
ATOM      3  N   LIG    1        1.067   0.988  -0.464  0.00  0.00    -0.296 N 
ATOM      4  C   LIG    1        0.777   2.336  -0.041  0.00  0.00    +0.127 C 
ATOM      5  C   LIG    1       -0.427   2.849  -0.794  0.00  0.00    +0.127 C 
ATOM      6  N   LIG    1       -1.283   1.644  -0.846  0.00  0.00    -0.296 N 
ATOM      7  C   LIG    1       -2.312   1.475   0.080  0.00  0.00    +0.253 C 
ATOM      8  O   LIG    1       -2.374   2.348   1.061  0.00  0.00    -0.272 OA
ATOM      9  C   LIG    1       -0.926   0.740  -1.882  0.00  0.00    +0.127 C 
ATOM     10  C   LIG    1        0.541   0.405  -1.648  0.00  0.00    +0.127 C 
ENDROOT
BRANCH   1  11
ATOM     11  C   LIG    1        2.592  -1.037   0.133  0.00  0.00    +0.324 C 
BRANCH  11  12
ATOM     12  O   LIG    1        3.532  -1.226   1.329  0.00  0.00    -0.479 OA
BRANCH  12  17
ATOM     13  C   LIG    1        5.828   1.630   0.587  0.00  0.00    +0.007 A 
ATOM     14  C   LIG    1        6.622   1.501   1.742  0.00  0.00    -0.044 A 
ATOM     15  C   LIG    1        6.434   0.539   2.686  0.00  0.00    +0.053 A 
ATOM     16  C   LIG    1        5.387  -0.345   2.469  0.00  0.00    +0.162 A 
ATOM     17  C   LIG    1        4.551  -0.249   1.329  0.00  0.00    +0.163 A 
ATOM     18  C   LIG    1        4.777   0.713   0.416  0.00  0.00    +0.050 A 
BRANCH  16  19
ATOM     19  O   LIG    1        5.119  -1.363   3.340  0.00  0.00    -0.491 OA
ATOM     20  C   LIG    1        5.912  -1.522   4.495  0.00  0.00    +0.277 C 
ENDBRANCH  16  19
BRANCH  14  21
ATOM     21  C   LIG    1        7.665   2.521   1.942  0.00  0.00    +0.035 C 
BRANCH  21  22
ATOM     22  C   LIG    1        8.945   2.274   1.214  0.00  0.00    +0.001 C 
ATOM     23  C   LIG    1        9.885   3.439   1.531  0.00  0.00    +0.004 C 
ENDBRANCH  21  22
ENDBRANCH  14  21
ENDBRANCH  12  17
ENDBRANCH  11  12
ENDBRANCH   1  11
BRANCH   7  24
ATOM     24  C   LIG    1       -3.330   0.429   0.078  0.00  0.00    +0.324 C 
BRANCH  24  25
ATOM     25  O   LIG    1       -3.702  -0.055  -1.210  0.00  0.00    -0.479 OA
BRANCH  25  26
ATOM     26  C   LIG    1       -4.712  -1.041  -1.227  0.00  0.00    +0.163 A 
ATOM     27  C   LIG    1       -5.226  -1.573  -0.036  0.00  0.00    +0.050 A 
ATOM     28  C   LIG    1       -6.232  -2.513  -0.109  0.00  0.00    +0.007 A 
ATOM     29  C   LIG    1       -6.766  -2.962  -1.313  0.00  0.00    -0.044 A 
ATOM     30  C   LIG    1       -6.249  -2.440  -2.442  0.00  0.00    +0.053 A 
ATOM     31  C   LIG    1       -5.215  -1.476  -2.419  0.00  0.00    +0.162 A 
BRANCH  31  32
ATOM     32  O   LIG    1       -4.672  -0.955  -3.597  0.00  0.00    -0.491 OA
ATOM     33  C   LIG    1       -5.111  -1.405  -4.882  0.00  0.00    +0.277 C 
ENDBRANCH  31  32
BRANCH  29  34
ATOM     34  C   LIG    1       -7.940  -3.901  -1.276  0.00  0.00    +0.035 C 
BRANCH  34  35
ATOM     35  C   LIG    1       -9.207  -3.081  -1.011  0.00  0.00    +0.001 C 
ATOM     36  C   LIG    1       -9.169  -2.396   0.341  0.00  0.00    +0.004 C 
ENDBRANCH  34  35
ENDBRANCH  29  34
ENDBRANCH  25  26
ENDBRANCH  24  25
ENDBRANCH   7  24
TORSDOF 12
