REMARK  Name = molecules/IMQLKJBTEOYOSI-GPIVLXJGSA-N.pdb
REMARK                            x       y       z     vdW  Elec       q    Type
REMARK                         _______ _______ _______ _____ _____    ______ ____
ROOT
ATOM      1  C   LIG    1        0.034  -1.557  -0.071  0.00  0.00    +0.194 C 
ATOM      2  C   LIG    1        1.111  -0.709   0.586  0.00  0.00    +0.194 C 
ATOM      3  C   LIG    1        1.100   0.628  -0.159  0.00  0.00    +0.194 C 
ATOM      4  C   LIG    1       -0.206   1.333   0.148  0.00  0.00    +0.194 C 
ATOM      5  C   LIG    1       -1.328   0.439  -0.339  0.00  0.00    +0.194 C 
ATOM      6  C   LIG    1       -1.298  -0.923   0.331  0.00  0.00    +0.194 C 
ENDROOT
BRANCH   4   7
ATOM      7  O   LIG    1       -0.238   2.476  -0.654  0.00  0.00    -0.278 OA
BRANCH   7   8
ATOM      8  P   LIG    1       -0.410   3.889   0.208  0.00  0.00    +0.473 P 
ATOM      9  O   LIG    1       -1.889   4.276   0.264  0.00  0.00    -0.228 OA
BRANCH   8  10
ATOM     10  O   LIG    1        0.361   5.135  -0.653  0.00  0.00    -0.303 OA
ATOM     11  H   LIG    1        0.668   4.846  -1.541  0.00  0.00    +0.222 HD
ENDBRANCH   8  10
BRANCH   8  12
ATOM     12  O   LIG    1        0.241   3.815   1.752  0.00  0.00    -0.303 OA
ATOM     13  H   LIG    1       -0.497   3.534   2.367  0.00  0.00    +0.222 HD
ENDBRANCH   8  12
ENDBRANCH   7   8
ENDBRANCH   4   7
BRANCH   5  14
ATOM     14  O   LIG    1       -2.581   0.996  -0.094  0.00  0.00    -0.278 OA
BRANCH  14  15
ATOM     15  P   LIG    1       -3.359   1.178  -1.587  0.00  0.00    +0.473 P 
ATOM     16  O   LIG    1       -3.452   2.654  -1.885  0.00  0.00    -0.228 OA
BRANCH  15  17
ATOM     17  O   LIG    1       -2.497   0.378  -2.813  0.00  0.00    -0.303 OA
ATOM     18  H   LIG    1       -2.578  -0.584  -2.647  0.00  0.00    +0.222 HD
ENDBRANCH  15  17
BRANCH  15  19
ATOM     19  O   LIG    1       -4.905   0.470  -1.547  0.00  0.00    -0.303 OA
ATOM     20  H   LIG    1       -5.206   0.377  -2.473  0.00  0.00    +0.222 HD
ENDBRANCH  15  19
ENDBRANCH  14  15
ENDBRANCH   5  14
BRANCH   6  21
ATOM     21  O   LIG    1       -1.409  -0.820   1.707  0.00  0.00    -0.278 OA
BRANCH  21  22
ATOM     22  P   LIG    1       -2.762  -1.683   2.240  0.00  0.00    +0.473 P 
ATOM     23  O   LIG    1       -2.379  -3.093   2.635  0.00  0.00    -0.228 OA
BRANCH  22  24
ATOM     24  O   LIG    1       -3.899  -1.774   1.003  0.00  0.00    -0.303 OA
ATOM     25  H   LIG    1       -4.721  -1.268   1.201  0.00  0.00    +0.222 HD
ENDBRANCH  22  24
BRANCH  22  26
ATOM     26  O   LIG    1       -3.394  -0.914   3.598  0.00  0.00    -0.303 OA
ATOM     27  H   LIG    1       -3.566   0.035   3.427  0.00  0.00    +0.222 HD
ENDBRANCH  22  26
ENDBRANCH  21  22
ENDBRANCH   6  21
BRANCH   3  28
ATOM     28  O   LIG    1        2.202   1.401   0.196  0.00  0.00    -0.278 OA
BRANCH  28  29
ATOM     29  P   LIG    1        3.178   1.710  -1.149  0.00  0.00    +0.473 P 
ATOM     30  O   LIG    1        2.675   0.992  -2.386  0.00  0.00    -0.228 OA
BRANCH  29  31
ATOM     31  O   LIG    1        3.270   3.375  -1.455  0.00  0.00    -0.303 OA
ATOM     32  H   LIG    1        4.138   3.563  -1.908  0.00  0.00    +0.222 HD
ENDBRANCH  29  31
BRANCH  29  33
ATOM     33  O   LIG    1        4.776   1.185  -0.862  0.00  0.00    -0.303 OA
ATOM     34  H   LIG    1        4.869   1.157   0.136  0.00  0.00    +0.222 HD
ENDBRANCH  29  33
ENDBRANCH  28  29
ENDBRANCH   3  28
BRANCH   1  35
ATOM     35  O   LIG    1        0.111  -2.883   0.260  0.00  0.00    -0.278 OA
BRANCH  35  36
ATOM     36  P   LIG    1        0.319  -3.768  -1.168  0.00  0.00    +0.473 P 
ATOM     37  O   LIG    1        0.440  -5.243  -0.861  0.00  0.00    -0.228 OA
BRANCH  36  38
ATOM     38  O   LIG    1       -0.982  -3.478  -2.209  0.00  0.00    -0.303 OA
ATOM     39  H   LIG    1       -0.749  -2.887  -2.957  0.00  0.00    +0.222 HD
ENDBRANCH  36  38
BRANCH  36  40
ATOM     40  O   LIG    1        1.738  -3.232  -1.915  0.00  0.00    -0.303 OA
ATOM     41  H   LIG    1        1.510  -2.620  -2.659  0.00  0.00    +0.222 HD
ENDBRANCH  36  40
ENDBRANCH  35  36
ENDBRANCH   1  35
BRANCH   2  42
ATOM     42  O   LIG    1        2.327  -1.344   0.474  0.00  0.00    -0.278 OA
BRANCH  42  43
ATOM     43  P   LIG    1        3.032  -1.660   1.969  0.00  0.00    +0.473 P 
ATOM     44  O   LIG    1        2.865  -3.109   2.378  0.00  0.00    -0.228 OA
BRANCH  43  45
ATOM     45  O   LIG    1        4.718  -1.402   1.835  0.00  0.00    -0.303 OA
ATOM     46  H   LIG    1        5.016  -2.044   1.128  0.00  0.00    +0.222 HD
ENDBRANCH  43  45
BRANCH  43  47
ATOM     47  O   LIG    1        2.393  -0.664   3.159  0.00  0.00    -0.303 OA
ATOM     48  H   LIG    1        2.693  -0.967   4.051  0.00  0.00    +0.222 HD
ENDBRANCH  43  47
ENDBRANCH  42  43
ENDBRANCH   2  42
TORSDOF 24
