REMARK  Name = molecules/IMRLNFKFNFLWQF-IYKITFJXSA-N.pdb
REMARK                            x       y       z     vdW  Elec       q    Type
REMARK                         _______ _______ _______ _____ _____    ______ ____
ROOT
ATOM      1  C   LIG    1        3.750  -3.897   0.000  0.00  0.00    +0.248 C 
ATOM      2  C   LIG    1        2.451  -4.647   0.000  0.00  0.00    +0.274 A 
ATOM      3  C   LIG    1        1.152  -5.397   0.000  0.00  0.00    +0.263 A 
ATOM      4  O   LIG    1        1.902  -6.696   0.000  0.00  0.00    -0.280 OA
ATOM      5  C   LIG    1       -0.147  -6.147   0.000  0.00  0.00    +0.254 C 
ATOM      6  O   LIG    1        3.201  -5.946   0.000  0.00  0.00    -0.280 OA
ATOM      7  O   LIG    1        3.000  -2.598   0.000  0.00  0.00    -0.285 OA
ENDROOT
BRANCH   1   8
ATOM      8  C   LIG    1        5.049  -3.147   0.000  0.00  0.00    +0.245 C 
ATOM      9  O   LIG    1        4.299  -1.848   0.000  0.00  0.00    -0.212 OA
BRANCH   8  10
ATOM     10  C   LIG    1        6.348  -2.397   0.000  0.00  0.00    +0.282 C 
BRANCH  10  11
ATOM     11  O   LIG    1        7.647  -1.647   0.000  0.00  0.00    -0.458 OA
BRANCH  11  12
ATOM     12  C   LIG    1        7.647  -0.147   0.000  0.00  0.00    +0.341 C 
ATOM     13  O   LIG    1        6.348   0.603   0.000  0.00  0.00    -0.245 OA
BRANCH  12  14
ATOM     14  C   LIG    1        8.946   0.603   0.000  0.00  0.00    +0.077 A 
ATOM     15  C   LIG    1        8.946   2.103   0.000  0.00  0.00    +0.018 A 
ATOM     16  C   LIG    1       10.245   2.853   0.000  0.00  0.00    +0.020 A 
ATOM     17  C   LIG    1       11.544   2.103   0.000  0.00  0.00    +0.111 A 
ATOM     18  N   LIG    1       11.544   0.603   0.000  0.00  0.00    -0.262 NA
ATOM     19  C   LIG    1       10.245  -0.147   0.000  0.00  0.00    +0.125 A 
ENDBRANCH  12  14
ENDBRANCH  11  12
ENDBRANCH  10  11
ENDBRANCH   8  10
ENDBRANCH   1   8
BRANCH   5  20
ATOM     20  O   LIG    1       -1.446  -6.897   0.000  0.00  0.00    -0.426 OA
BRANCH  20  21
ATOM     21  C   LIG    1       -2.745  -6.147   0.000  0.00  0.00    +0.345 C 
ATOM     22  O   LIG    1       -2.745  -4.647   0.000  0.00  0.00    -0.244 OA
BRANCH  21  23
ATOM     23  C   LIG    1       -4.044  -6.897   0.000  0.00  0.00    +0.077 A 
ATOM     24  C   LIG    1       -5.343  -6.147   0.000  0.00  0.00    +0.018 A 
ATOM     25  C   LIG    1       -6.642  -6.897   0.000  0.00  0.00    +0.020 A 
ATOM     26  C   LIG    1       -6.642  -8.397   0.000  0.00  0.00    +0.111 A 
ATOM     27  N   LIG    1       -5.343  -9.147   0.000  0.00  0.00    -0.262 NA
ATOM     28  C   LIG    1       -4.044  -8.397   0.000  0.00  0.00    +0.125 A 
ENDBRANCH  21  23
ENDBRANCH  20  21
ENDBRANCH   5  20
TORSDOF 8
REMARK  Name = molecules/IMRLNFKFNFLWQF-IYKITFJXSA-N.pdb
REMARK                            x       y       z     vdW  Elec       q    Type
REMARK                         _______ _______ _______ _____ _____    ______ ____
ROOT
ATOM      1  C   LIG    1        1.500  -2.598   0.000  0.00  0.00    +0.032 C 
ATOM      2  C   LIG    1        0.750  -1.299   0.000  0.00  0.00    -0.015 C 
ATOM      3  C   LIG    1       -0.750  -1.299   0.000  0.00  0.00    +0.115 C 
ENDROOT
BRANCH   3   4
ATOM      4  N   LIG    1       -1.500   0.000   0.000  0.00  0.00    -0.261 NA
ATOM      5  C   LIG    1       -0.750   1.299   0.000  0.00  0.00    +0.130 C 
ENDBRANCH   3   4
TORSDOF 1
REMARK  Name = molecules/IMRLNFKFNFLWQF-IYKITFJXSA-N.pdb
REMARK                            x       y       z     vdW  Elec       q    Type
REMARK                         _______ _______ _______ _____ _____    ______ ____
ROOT
ATOM      1  C   LIG    1        4.701  -5.946   0.000  0.00  0.00    +0.027 C 
ATOM      2  C   LIG    1        5.451  -7.245   0.000  0.00  0.00    -0.037 C 
ATOM      3  C   LIG    1        6.951  -7.245   0.000  0.00  0.00    +0.003 C 
ATOM      4  C   LIG    1        7.701  -8.544   0.000  0.00  0.00    +0.017 C 
ATOM      5  C   LIG    1        6.951  -9.843   0.000  0.00  0.00    +0.092 C 
ATOM      6  N   LIG    1        5.451  -9.843   0.000  0.00  0.00    -0.249 N 
ATOM      7  N   LIG    1        4.152 -10.593   0.000  0.00  0.00    -0.251 N 
ATOM      8  C   LIG    1        3.402  -9.294   0.000  0.00  0.00    +0.144 C 
ATOM      9  C   LIG    1        4.701  -8.544   0.000  0.00  0.00    +0.144 C 
ENDROOT
BRANCH   7  10
ATOM     10  C   LIG    1        3.402 -11.892   0.000  0.00  0.00    +0.088 C 
ATOM     11  C   LIG    1        1.902 -11.892   0.000  0.00  0.00    -0.006 C 
BRANCH  11  12
ATOM     12  C   LIG    1        1.152 -10.593   0.000  0.00  0.00    +0.028 C 
ATOM     13  C   LIG    1        1.902  -9.294   0.000  0.00  0.00    -0.000 C 
ENDBRANCH  11  12
ENDBRANCH   7  10
TORSDOF 2
REMARK  Name = molecules/IMRLNFKFNFLWQF-IYKITFJXSA-N.pdb
REMARK                            x       y       z     vdW  Elec       q    Type
REMARK                         _______ _______ _______ _____ _____    ______ ____
ROOT
ATOM      1  C   LIG    1        5.049  -0.549   0.000  0.00  0.00    +0.279 C 
ATOM      2  O   LIG    1        5.935  -0.549   0.000  0.00  0.00    -0.279 OA
ENDROOT
TORSDOF 0
REMARK  Name = molecules/IMRLNFKFNFLWQF-IYKITFJXSA-N.pdb
REMARK                            x       y       z     vdW  Elec       q    Type
REMARK                         _______ _______ _______ _____ _____    ______ ____
ROOT
ATOM      1  O   HOH    1        0.842  -3.471   0.000  0.00  0.00    -0.410 OA
ATOM      2  H   HOH    0        1.691  -3.861   0.000  0.00  0.00    +0.205 HD
ATOM      3  H   HOH    0        0.249  -4.199   0.000  0.00  0.00    +0.205 HD
ENDROOT
TORSDOF 0
REMARK  Name = molecules/IMRLNFKFNFLWQF-IYKITFJXSA-N.pdb
REMARK                            x       y       z     vdW  Elec       q    Type
REMARK                         _______ _______ _______ _____ _____    ______ ____
ROOT
ATOM      1  C   LIG    1        1.152  -7.995   0.000  0.00  0.00    +0.169 C 
ATOM      2  O   LIG    1        0.168  -7.995   0.000  0.00  0.00    -0.379 OA
ATOM      3  H   LIG    1        0.124  -7.093   0.000  0.00  0.00    +0.211 HD
ENDROOT
TORSDOF 0
REMARK  Name = molecules/IMRLNFKFNFLWQF-IYKITFJXSA-N.pdb
REMARK                            x       y       z     vdW  Elec       q    Type
REMARK                         _______ _______ _______ _____ _____    ______ ____
ROOT
ATOM      1  O   HOH    1        5.359  -5.073   0.000  0.00  0.00    -0.410 OA
ATOM      2  H   HOH    0        4.510  -4.684   0.000  0.00  0.00    +0.205 HD
ATOM      3  H   HOH    0        5.952  -4.345   0.000  0.00  0.00    +0.205 HD
ENDROOT
TORSDOF 0
REMARK  Name = molecules/IMRLNFKFNFLWQF-IYKITFJXSA-N.pdb
REMARK                            x       y       z     vdW  Elec       q    Type
REMARK                         _______ _______ _______ _____ _____    ______ ____
ROOT
ATOM      1  C   LIG    1        4.299   0.750   0.000  0.00  0.00    +0.042 C 
ATOM      2  C   LIG    1        5.049   2.049   0.000  0.00  0.00    +0.088 C 
ATOM      3  N   LIG    1        4.299   3.348   0.000  0.00  0.00    -0.288 NA
ATOM      4  C   LIG    1        2.799   3.348   0.000  0.00  0.00    +0.158 C 
ENDROOT
TORSDOF 0
REMARK  Name = molecules/IMRLNFKFNFLWQF-IYKITFJXSA-N.pdb
REMARK                            x       y       z     vdW  Elec       q    Type
REMARK                         _______ _______ _______ _____ _____    ______ ____
ROOT
ATOM      1  C   LIG    1        1.500   0.000   0.000  0.00  0.00    +0.000 C 
ENDROOT
TORSDOF 0
REMARK  Name = molecules/IMRLNFKFNFLWQF-IYKITFJXSA-N.pdb
REMARK                            x       y       z     vdW  Elec       q    Type
REMARK                         _______ _______ _______ _____ _____    ______ ____
ROOT
ATOM      1  C   LIG    1        2.799   0.750   0.000  0.00  0.00    +0.000 C 
ENDROOT
TORSDOF 0
REMARK  Name = molecules/IMRLNFKFNFLWQF-IYKITFJXSA-N.pdb
REMARK                            x       y       z     vdW  Elec       q    Type
REMARK                         _______ _______ _______ _____ _____    ______ ____
ROOT
ATOM      1  C   LIG    1        0.750   1.299   0.000  0.00  0.00    +0.000 C 
ENDROOT
TORSDOF 0
REMARK  Name = molecules/IMRLNFKFNFLWQF-IYKITFJXSA-N.pdb
REMARK                            x       y       z     vdW  Elec       q    Type
REMARK                         _______ _______ _______ _____ _____    ______ ____
ROOT
ATOM      1  C   LIG    1        2.049   2.049   0.000  0.00  0.00    +0.000 C 
ENDROOT
TORSDOF 0
