REMARK  Name = molecules/IMZMKUWMOSJXDT-UHFFFAOYSA-N.pdb
REMARK                            x       y       z     vdW  Elec       q    Type
REMARK                         _______ _______ _______ _____ _____    ______ ____
ROOT
ATOM      1  C   LIG    1        0.175   1.210   1.960  0.00  0.00    +0.189 C 
ENDROOT
BRANCH   1   2
ATOM      2  O   LIG    1        0.094   0.024   2.655  0.00  0.00    -0.385 OA
ATOM      3  H   LIG    1        0.158  -0.784   2.096  0.00  0.00    +0.210 HD
ENDBRANCH   1   2
BRANCH   1   4
ATOM      4  C   LIG    1       -1.164   1.909   1.835  0.00  0.00    +0.263 C 
BRANCH   4   5
ATOM      5  O   LIG    1       -2.088   1.071   1.147  0.00  0.00    -0.488 OA
BRANCH   5   7
ATOM      6  C   LIG    1       -4.185   0.544   0.213  0.00  0.00    +0.105 A 
ATOM      7  C   LIG    1       -3.379   1.435   0.886  0.00  0.00    +0.135 A 
ATOM      8  C   LIG    1       -3.885   2.659   1.277  0.00  0.00    +0.046 A 
ATOM      9  C   LIG    1       -5.207   2.944   0.969  0.00  0.00    +0.007 A 
ATOM     10  C   LIG    1       -6.017   2.062   0.299  0.00  0.00    +0.047 A 
ATOM     11  C   LIG    1       -5.509   0.840  -0.090  0.00  0.00    +0.143 A 
ATOM     12  O   LIG    1       -6.290   0.020  -0.722  0.00  0.00    -0.448 OA
ATOM     13  C   LIG    1       -5.894  -1.180  -1.138  0.00  0.00    +0.215 A 
ATOM     14  C   LIG    1       -4.587  -1.516  -0.859  0.00  0.00    +0.105 A 
ATOM     15  C   LIG    1       -3.712  -0.686  -0.191  0.00  0.00    +0.197 A 
ATOM     16  O   LIG    1       -2.507  -1.036   0.048  0.00  0.00    -0.287 OA
BRANCH  13  17
ATOM     17  C   LIG    1       -6.810  -2.050  -1.838  0.00  0.00    +0.373 C 
ATOM     18  O   LIG    1       -7.980  -1.681  -2.057  0.00  0.00    -0.242 OA
BRANCH  17  19
ATOM     19  O   LIG    1       -6.394  -3.291  -2.266  0.00  0.00    -0.475 OA
ATOM     20  H   LIG    1       -5.706  -3.312  -3.021  0.00  0.00    +0.296 HD
ENDBRANCH  17  19
ENDBRANCH  13  17
ENDBRANCH   5   7
ENDBRANCH   4   5
ENDBRANCH   1   4
BRANCH   1  21
ATOM     21  C   LIG    1        0.757   0.992   0.572  0.00  0.00    +0.263 C 
BRANCH  21  22
ATOM     22  O   LIG    1        2.058   0.444   0.682  0.00  0.00    -0.488 OA
BRANCH  22  23
ATOM     23  C   LIG    1        2.841   0.136  -0.406  0.00  0.00    +0.135 A 
ATOM     24  C   LIG    1        4.096  -0.396  -0.161  0.00  0.00    +0.105 A 
ATOM     25  C   LIG    1        4.524  -0.601   1.137  0.00  0.00    +0.197 A 
ATOM     26  O   LIG    1        3.755  -0.296   2.097  0.00  0.00    -0.287 OA
ATOM     27  C   LIG    1        5.770  -1.129   1.403  0.00  0.00    +0.105 A 
ATOM     28  C   LIG    1        6.566  -1.442   0.304  0.00  0.00    +0.215 A 
ATOM     29  O   LIG    1        6.146  -1.243  -0.920  0.00  0.00    -0.448 OA
ATOM     30  C   LIG    1        4.956  -0.738  -1.187  0.00  0.00    +0.143 A 
ATOM     31  C   LIG    1        4.578  -0.554  -2.493  0.00  0.00    +0.047 A 
ATOM     32  C   LIG    1        3.323  -0.022  -2.746  0.00  0.00    +0.007 A 
ATOM     33  C   LIG    1        2.477   0.313  -1.712  0.00  0.00    +0.046 A 
BRANCH  28  34
ATOM     34  C   LIG    1        7.879  -1.998   0.530  0.00  0.00    +0.373 C 
ATOM     35  O   LIG    1        8.312  -2.202   1.710  0.00  0.00    -0.242 OA
BRANCH  34  36
ATOM     36  O   LIG    1        8.701  -2.323  -0.515  0.00  0.00    -0.475 OA
ATOM     37  H   LIG    1        9.313  -3.128  -0.476  0.00  0.00    +0.296 HD
ENDBRANCH  34  36
ENDBRANCH  28  34
ENDBRANCH  22  23
ENDBRANCH  21  22
ENDBRANCH   1  21
TORSDOF 11
