REMARK  Name = molecules/INDBQLZJXZLFIT-NSHDSACASA-N.pdb
REMARK                            x       y       z     vdW  Elec       q    Type
REMARK                         _______ _______ _______ _____ _____    ______ ____
ROOT
ATOM      1  C   LIG    1       -0.682  -0.467  -0.756  0.00  0.00    +0.057 A 
ATOM      2  C   LIG    1       -1.142  -1.315   0.226  0.00  0.00    +0.070 A 
ATOM      3  C   LIG    1       -2.489  -1.379   0.558  0.00  0.00    +0.123 A 
ATOM      4  C   LIG    1       -3.337  -0.548  -0.148  0.00  0.00    +0.055 A 
ATOM      5  C   LIG    1       -2.884   0.304  -1.133  0.00  0.00    +0.006 A 
ATOM      6  C   LIG    1       -3.742   1.141  -1.844  0.00  0.00    +0.011 A 
ATOM      7  C   LIG    1       -3.260   1.984  -2.826  0.00  0.00    +0.020 A 
ATOM      8  C   LIG    1       -1.907   2.019  -3.128  0.00  0.00    +0.111 A 
ATOM      9  N   LIG    1       -1.105   1.199  -2.424  0.00  0.00    -0.253 NA
ATOM     10  C   LIG    1       -1.551   0.369  -1.464  0.00  0.00    +0.092 A 
ENDROOT
BRANCH   1  11
ATOM     11  N   LIG    1        0.677  -0.400  -1.129  0.00  0.00    -0.340 N 
ATOM     12  H   LIG    1        1.004   0.163  -1.953  0.00  0.00    +0.146 HD
BRANCH  11  13
ATOM     13  C   LIG    1        1.688  -1.108  -0.385  0.00  0.00    +0.067 C 
ATOM     14  C   LIG    1        2.954  -1.187  -1.201  0.00  0.00    +0.028 C 
BRANCH  13  15
ATOM     15  C   LIG    1        1.940  -0.438   0.942  0.00  0.00    +0.023 C 
BRANCH  15  16
ATOM     16  C   LIG    1        2.421   0.992   0.752  0.00  0.00    +0.017 C 
BRANCH  16  17
ATOM     17  C   LIG    1        2.652   1.599   2.117  0.00  0.00    +0.078 C 
BRANCH  17  18
ATOM     18  N   LIG    1        3.112   2.967   1.912  0.00  0.00    -0.330 NA
ATOM     19  H   LIG    1        3.650   3.294   2.752  0.00  0.00    +0.118 HD
ATOM     20  H   LIG    1        2.321   3.630   1.766  0.00  0.00    +0.118 HD
ENDBRANCH  17  18
ENDBRANCH  16  17
ENDBRANCH  15  16
ENDBRANCH  13  15
ENDBRANCH  11  13
ENDBRANCH   1  11
BRANCH   3  21
ATOM     21  O   LIG    1       -2.946  -2.237   1.550  0.00  0.00    -0.495 OA
ATOM     22  C   LIG    1       -2.007  -3.051   2.221  0.00  0.00    +0.277 C 
ENDBRANCH   3  21
TORSDOF 7
