REMARK  Name = molecules/INUNXTSAACVKJS-OAQYLSRUSA-N.pdb
REMARK                            x       y       z     vdW  Elec       q    Type
REMARK                         _______ _______ _______ _____ _____    ______ ____
ROOT
ATOM      1  C   LIG    1       -0.631  -0.928   0.131  0.00  0.00    +0.100 C 
ENDROOT
BRANCH   1   2
ATOM      2  C   LIG    1       -1.028  -0.013   1.212  0.00  0.00    +0.231 C 
ATOM      3  O   LIG    1       -0.895  -0.476   2.404  0.00  0.00    -0.274 OA
ATOM      4  N   LIG    1       -1.534   1.308   1.052  0.00  0.00    -0.300 N 
ATOM      5  C   LIG    1       -1.828   2.150   2.237  0.00  0.00    +0.108 C 
ATOM      6  C   LIG    1       -2.211   3.495   1.735  0.00  0.00    +0.020 C 
ATOM      7  C   LIG    1       -1.503   3.541   0.372  0.00  0.00    +0.020 C 
ATOM      8  C   LIG    1       -1.847   2.113  -0.093  0.00  0.00    +0.108 C 
ENDBRANCH   1   2
BRANCH   1   9
ATOM      9  C   LIG    1       -0.895  -2.377   0.502  0.00  0.00    -0.028 A 
ATOM     10  C   LIG    1       -1.711  -2.780   1.511  0.00  0.00    +0.005 A 
ATOM     11  C   LIG    1       -1.882  -4.156   1.761  0.00  0.00    +0.000 A 
ATOM     12  C   LIG    1       -1.248  -5.105   1.008  0.00  0.00    +0.000 A 
ATOM     13  C   LIG    1       -0.425  -4.703  -0.014  0.00  0.00    +0.000 A 
ATOM     14  C   LIG    1       -0.262  -3.332  -0.251  0.00  0.00    +0.005 A 
ENDBRANCH   1   9
BRANCH   1  15
ATOM     15  C   LIG    1       -1.447  -0.736  -1.054  0.00  0.00    -0.028 A 
ATOM     16  C   LIG    1       -2.807  -0.595  -0.852  0.00  0.00    +0.005 A 
ATOM     17  C   LIG    1       -3.682  -0.428  -1.880  0.00  0.00    +0.000 A 
ATOM     18  C   LIG    1       -3.253  -0.391  -3.181  0.00  0.00    +0.000 A 
ATOM     19  C   LIG    1       -1.897  -0.531  -3.400  0.00  0.00    +0.000 A 
ATOM     20  C   LIG    1       -1.019  -0.698  -2.362  0.00  0.00    +0.005 A 
ENDBRANCH   1  15
BRANCH   1  21
ATOM     21  C   LIG    1        0.871  -0.822  -0.022  0.00  0.00    +0.024 C 
ATOM     22  C   LIG    1        1.449  -1.281   1.301  0.00  0.00    +0.010 C 
BRANCH  21  23
ATOM     23  C   LIG    1        1.337   0.571  -0.326  0.00  0.00    +0.089 C 
BRANCH  23  24
ATOM     24  N   LIG    1        2.712   0.679  -0.493  0.00  0.00    -0.298 NA
ATOM     25  C   LIG    1        3.661   0.574   0.508  0.00  0.00    +0.112 C 
ATOM     26  C   LIG    1        4.681   1.729   0.514  0.00  0.00    +0.175 C 
ATOM     27  O   LIG    1        5.235   1.799  -0.740  0.00  0.00    -0.377 OA
ATOM     28  C   LIG    1        4.244   2.223  -1.625  0.00  0.00    +0.175 C 
ATOM     29  C   LIG    1        3.156   1.184  -1.767  0.00  0.00    +0.112 C 
ENDBRANCH  23  24
ENDBRANCH  21  23
ENDBRANCH   1  21
TORSDOF 6
