REMARK  Name = molecules/INWLQCZOYSRPNW-CYBMUJFWSA-N.pdb
REMARK                            x       y       z     vdW  Elec       q    Type
REMARK                         _______ _______ _______ _____ _____    ______ ____
ROOT
ATOM      1  N   LIG    1        0.933  -0.486   0.594  0.00  0.00    -0.284 N 
ATOM      2  H   LIG    1        0.886  -0.863   1.567  0.00  0.00    +0.155 HD
ATOM      3  C   LIG    1       -0.292  -0.456  -0.122  0.00  0.00    +0.234 C 
ATOM      4  O   LIG    1       -0.282  -0.011  -1.295  0.00  0.00    -0.274 OA
ENDROOT
BRANCH   1   5
ATOM      5  C   LIG    1        2.167  -0.046   0.072  0.00  0.00    +0.039 A 
ATOM      6  C   LIG    1        2.562   1.277   0.231  0.00  0.00    -0.029 A 
ATOM      7  C   LIG    1        1.660   2.205   0.957  0.00  0.00    +0.045 C 
ATOM      8  C   LIG    1        3.776   1.736  -0.275  0.00  0.00    +0.005 A 
ATOM      9  C   LIG    1        4.614   0.874  -0.950  0.00  0.00    +0.001 A 
ATOM     10  C   LIG    1        4.252  -0.438  -1.123  0.00  0.00    +0.005 A 
ATOM     11  C   LIG    1        3.046  -0.861  -0.611  0.00  0.00    -0.029 A 
ATOM     12  C   LIG    1        2.640  -2.281  -0.791  0.00  0.00    +0.045 C 
ENDBRANCH   1   5
BRANCH   3  13
ATOM     13  C   LIG    1       -1.576  -0.921   0.442  0.00  0.00    +0.143 C 
ATOM     14  C   LIG    1       -1.824  -0.228   1.764  0.00  0.00    +0.028 C 
ATOM     15  C   LIG    1       -2.301   1.191   1.575  0.00  0.00    +0.003 C 
ATOM     16  C   LIG    1       -3.436   1.258   0.601  0.00  0.00    +0.015 C 
ATOM     17  C   LIG    1       -3.262   0.442  -0.620  0.00  0.00    +0.085 C 
ATOM     18  N   LIG    1       -2.606  -0.785  -0.494  0.00  0.00    -0.295 NA
ATOM     19  C   LIG    1       -3.256  -1.947  -0.951  0.00  0.00    +0.105 C 
ENDBRANCH   3  13
TORSDOF 2
