REMARK  Name = molecules/IOOWNWLVCOUUEX-WPRPVWTQSA-N.pdb
REMARK                            x       y       z     vdW  Elec       q    Type
REMARK                         _______ _______ _______ _____ _____    ______ ____
ROOT
ATOM      1  C   LIG    1        2.570   0.444  -1.354  0.00  0.00    +0.000 C 
ATOM      2  C   LIG    1        3.092  -0.116  -0.066  0.00  0.00    +0.000 C 
ATOM      3  O   LIG    1        3.083   0.874   0.943  0.00  0.00    +0.000 OA
ATOM      4  B   LIG    1        1.654   1.016   1.305  0.00  0.00    +0.000 B 
ATOM      5  C   LIG    1        0.637   0.730   0.094  0.00  0.00    +0.000 C 
ATOM      6  C   LIG    1        1.337   1.313  -1.141  0.00  0.00    +0.000 C 
ENDROOT
BRANCH   5   7
ATOM      7  N   LIG    1       -0.629   1.341   0.328  0.00  0.00    +0.000 N 
ATOM      8  H   LIG    1       -0.740   2.365   0.521  0.00  0.00    +0.000 HD
ATOM      9  C   LIG    1       -1.810   0.549   0.304  0.00  0.00    +0.000 C 
ATOM     10  O   LIG    1       -1.717  -0.681   0.076  0.00  0.00    +0.000 OA
BRANCH   9  11
ATOM     11  C   LIG    1       -3.153   1.130   0.540  0.00  0.00    +0.000 C 
BRANCH  11  12
ATOM     12  C   LIG    1       -4.154   0.028   0.443  0.00  0.00    +0.000 A 
ATOM     13  S   LIG    1       -4.765  -1.002   1.656  0.00  0.00    +0.000 S 
ATOM     14  C   LIG    1       -5.832  -1.939   0.714  0.00  0.00    +0.000 A 
ATOM     15  C   LIG    1       -5.677  -1.410  -0.543  0.00  0.00    +0.000 A 
ATOM     16  C   LIG    1       -4.813  -0.398  -0.677  0.00  0.00    +0.000 A 
ENDBRANCH  11  12
ENDBRANCH   9  11
ENDBRANCH   5   7
BRANCH   4  17
ATOM     17  O   LIG    1        1.328   2.137   2.183  0.00  0.00    +0.000 OA
ATOM     18  H   LIG    1        0.354   2.229   2.235  0.00  0.00    +0.000 HD
ENDBRANCH   4  17
BRANCH   2  19
ATOM     19  C   LIG    1        4.517  -0.605  -0.288  0.00  0.00    +0.000 C 
BRANCH  19  20
ATOM     20  C   LIG    1        4.467  -1.643  -1.330  0.00  0.00    +0.000 C 
ATOM     21  O   LIG    1        4.406  -1.323  -2.530  0.00  0.00    +0.000 OA
BRANCH  20  22
ATOM     22  O   LIG    1        4.487  -2.974  -0.982  0.00  0.00    +0.000 OA
ATOM     23  H   LIG    1        4.432  -3.297  -0.034  0.00  0.00    +0.000 HD
ENDBRANCH  20  22
ENDBRANCH  19  20
ENDBRANCH   2  19
TORSDOF 7
