REMARK  Name = molecules/IOVGROKTTNBUGK-SJKOYZFVSA-N.pdb
REMARK                            x       y       z     vdW  Elec       q    Type
REMARK                         _______ _______ _______ _____ _____    ______ ____
ROOT
ATOM      1  C   LIG    1       -0.914   1.066  -0.901  0.00  0.00    +0.084 C 
ATOM      2  C   LIG    1       -2.014   1.647  -1.761  0.00  0.00    +0.027 C 
ENDROOT
BRANCH   1   3
ATOM      3  N   LIG    1        0.265   1.850  -1.069  0.00  0.00    -0.310 NA
ATOM      4  H   LIG    1        0.400   2.127  -2.062  0.00  0.00    +0.122 HD
BRANCH   3   5
ATOM      5  C   LIG    1        1.449   1.339  -0.460  0.00  0.00    +0.086 C 
BRANCH   5   6
ATOM      6  C   LIG    1        1.954   0.075  -1.107  0.00  0.00    +0.050 C 
BRANCH   6   7
ATOM      7  C   LIG    1        3.178  -0.425  -0.455  0.00  0.00    -0.046 A 
ATOM      8  C   LIG    1        3.111  -1.307   0.596  0.00  0.00    +0.007 A 
ATOM      9  C   LIG    1        4.233  -1.795   1.230  0.00  0.00    +0.045 A 
ATOM     10  C   LIG    1        5.463  -1.379   0.788  0.00  0.00    +0.117 A 
ATOM     11  C   LIG    1        5.556  -0.484  -0.277  0.00  0.00    +0.045 A 
ATOM     12  C   LIG    1        4.407  -0.013  -0.892  0.00  0.00    +0.007 A 
BRANCH  10  13
ATOM     13  O   LIG    1        6.603  -1.853   1.406  0.00  0.00    -0.507 OA
ATOM     14  H   LIG    1        7.073  -2.707   1.087  0.00  0.00    +0.292 HD
ENDBRANCH  10  13
ENDBRANCH   6   7
ENDBRANCH   5   6
ENDBRANCH   3   5
ENDBRANCH   1   3
BRANCH   1  15
ATOM     15  C   LIG    1       -1.334   0.935   0.540  0.00  0.00    +0.161 C 
BRANCH  15  16
ATOM     16  C   LIG    1       -2.618   0.202   0.681  0.00  0.00    -0.017 A 
ATOM     17  C   LIG    1       -3.327   0.325   1.859  0.00  0.00    +0.010 A 
ATOM     18  C   LIG    1       -4.522  -0.342   2.020  0.00  0.00    +0.046 A 
ATOM     19  C   LIG    1       -5.054  -1.145   1.034  0.00  0.00    +0.117 A 
ATOM     20  C   LIG    1       -4.346  -1.267  -0.142  0.00  0.00    +0.046 A 
ATOM     21  C   LIG    1       -3.144  -0.600  -0.310  0.00  0.00    +0.010 A 
BRANCH  19  22
ATOM     22  O   LIG    1       -6.277  -1.815   1.222  0.00  0.00    -0.507 OA
ATOM     23  H   LIG    1       -7.141  -1.323   0.941  0.00  0.00    +0.292 HD
ENDBRANCH  19  22
ENDBRANCH  15  16
BRANCH  15  24
ATOM     24  O   LIG    1       -1.573   2.227   1.013  0.00  0.00    -0.386 OA
ATOM     25  H   LIG    1       -2.155   2.667   0.336  0.00  0.00    +0.210 HD
ENDBRANCH  15  24
ENDBRANCH   1  15
TORSDOF 9
