REMARK  Name = molecules/IOYZYMQFUSNATM-UHFFFAOYSA-N.pdb
REMARK                            x       y       z     vdW  Elec       q    Type
REMARK                         _______ _______ _______ _____ _____    ______ ____
ROOT
ATOM      1  N   LIG    1       -2.260  -0.764   0.614  0.00  0.00    +0.377 N 
ATOM      2  C   LIG    1       -2.901  -1.955   1.119  0.00  0.00    -0.092 C 
ATOM      3  C   LIG    1       -1.334  -1.089  -0.461  0.00  0.00    -0.092 C 
ENDROOT
BRANCH   1   4
ATOM      4  C   LIG    1       -1.438  -0.209   1.714  0.00  0.00    -0.076 C 
BRANCH   4   5
ATOM      5  C   LIG    1       -0.225   0.481   1.154  0.00  0.00    -0.018 C 
BRANCH   5   6
ATOM      6  C   LIG    1        0.598   1.055   2.307  0.00  0.00    -0.002 C 
BRANCH   6   7
ATOM      7  C   LIG    1        1.845   1.752   1.843  0.00  0.00    -0.000 C 
BRANCH   7   8
ATOM      8  C   LIG    1        2.761   0.822   1.077  0.00  0.00    -0.000 C 
BRANCH   8   9
ATOM      9  C   LIG    1        3.985   1.574   0.673  0.00  0.00    -0.000 C 
BRANCH   9  10
ATOM     10  C   LIG    1        4.782   2.129   1.784  0.00  0.00    -0.000 C 
BRANCH  10  11
ATOM     11  C   LIG    1        5.293   1.260   2.850  0.00  0.00    -0.000 C 
BRANCH  11  12
ATOM     12  C   LIG    1        6.203   0.147   2.510  0.00  0.00    -0.000 C 
BRANCH  12  13
ATOM     13  C   LIG    1        5.678  -0.951   1.670  0.00  0.00    -0.000 C 
BRANCH  13  14
ATOM     14  C   LIG    1        6.724  -2.033   1.423  0.00  0.00    -0.000 C 
BRANCH  14  15
ATOM     15  C   LIG    1        7.942  -1.522   0.736  0.00  0.00    -0.000 C 
BRANCH  15  16
ATOM     16  C   LIG    1        7.662  -0.913  -0.625  0.00  0.00    -0.000 C 
BRANCH  16  17
ATOM     17  C   LIG    1        8.960  -0.415  -1.253  0.00  0.00    -0.000 C 
BRANCH  17  18
ATOM     18  C   LIG    1        8.735   0.200  -2.601  0.00  0.00    -0.003 C 
ATOM     19  C   LIG    1        7.812   1.384  -2.529  0.00  0.00    +0.004 C 
ENDBRANCH  17  18
ENDBRANCH  16  17
ENDBRANCH  15  16
ENDBRANCH  14  15
ENDBRANCH  13  14
ENDBRANCH  12  13
ENDBRANCH  11  12
ENDBRANCH  10  11
ENDBRANCH   9  10
ENDBRANCH   8   9
ENDBRANCH   7   8
ENDBRANCH   6   7
ENDBRANCH   5   6
ENDBRANCH   4   5
ENDBRANCH   1   4
BRANCH   1  20
ATOM     20  C   LIG    1       -3.193   0.246   0.261  0.00  0.00    -0.057 C 
BRANCH  20  21
ATOM     21  C   LIG    1       -4.154  -0.027  -0.813  0.00  0.00    +0.090 C 
BRANCH  21  22
ATOM     22  N   LIG    1       -5.147  -1.031  -0.657  0.00  0.00    -0.297 N 
BRANCH  22  23
ATOM     23  C   LIG    1       -5.141  -2.206  -1.456  0.00  0.00    +0.218 A 
ATOM     24  N   LIG    1       -6.065  -3.178  -1.347  0.00  0.00    -0.223 NA
ATOM     25  C   LIG    1       -6.098  -4.291  -2.084  0.00  0.00    +0.116 A 
ATOM     26  C   LIG    1       -5.108  -4.466  -3.035  0.00  0.00    +0.039 A 
ATOM     27  C   LIG    1       -4.155  -3.491  -3.167  0.00  0.00    +0.116 A 
ATOM     28  N   LIG    1       -4.196  -2.410  -2.390  0.00  0.00    -0.223 NA
ENDBRANCH  22  23
BRANCH  22  29
ATOM     29  C   LIG    1       -6.256  -0.908   0.285  0.00  0.00    +0.143 C 
BRANCH  29  30
ATOM     30  C   LIG    1       -7.137   0.251  -0.076  0.00  0.00    -0.030 A 
ATOM     31  C   LIG    1       -7.773   0.905   0.955  0.00  0.00    +0.009 A 
ATOM     32  C   LIG    1       -8.603   1.984   0.734  0.00  0.00    +0.046 A 
ATOM     33  C   LIG    1       -8.831   2.457  -0.565  0.00  0.00    +0.120 A 
ATOM     34  C   LIG    1       -8.189   1.795  -1.584  0.00  0.00    +0.046 A 
ATOM     35  C   LIG    1       -7.348   0.700  -1.344  0.00  0.00    +0.009 A 
BRANCH  33  36
ATOM     36  O   LIG    1       -9.668   3.545  -0.781  0.00  0.00    -0.495 OA
ATOM     37  C   LIG    1       -9.889   4.011  -2.092  0.00  0.00    +0.277 C 
ENDBRANCH  33  36
ENDBRANCH  29  30
ENDBRANCH  22  29
ENDBRANCH  21  22
ENDBRANCH  20  21
ENDBRANCH   1  20
TORSDOF 22
