REMARK  Name = molecules/IPEHBUMCGVEMRF-UHFFFAOYSA-N.pdb
REMARK                            x       y       z     vdW  Elec       q    Type
REMARK                         _______ _______ _______ _____ _____    ______ ____
ROOT
ATOM      1  C   LIG    1       -0.206  -0.332   0.061  0.00  0.00    +0.143 A 
ATOM      2  N   LIG    1        0.797  -1.224   0.054  0.00  0.00    -0.247 NA
ATOM      3  C   LIG    1        2.058  -0.797  -0.138  0.00  0.00    +0.131 A 
ATOM      4  C   LIG    1        2.376   0.533  -0.332  0.00  0.00    +0.130 A 
ATOM      5  N   LIG    1        1.335   1.393  -0.318  0.00  0.00    -0.259 NA
ATOM      6  C   LIG    1        0.062   1.004  -0.128  0.00  0.00    +0.143 A 
ENDROOT
BRANCH   1   9
ATOM      7  N   LIG    1       -2.608   0.165   0.271  0.00  0.00    -0.324 N 
ATOM      8  H   LIG    1       -3.190   0.239   1.137  0.00  0.00    +0.145 HD
ATOM      9  C   LIG    1       -1.563  -0.796   0.268  0.00  0.00    +0.261 C 
ATOM     10  O   LIG    1       -1.789  -2.032   0.441  0.00  0.00    -0.269 OA
ATOM     11  H   LIG    1       -2.769   0.762  -0.565  0.00  0.00    +0.145 HD
ENDBRANCH   1   9
TORSDOF 1
