REMARK  Name = molecules/IPOBOOXFSRWSHL-MRXNPFEDSA-N.pdb
REMARK                            x       y       z     vdW  Elec       q    Type
REMARK                         _______ _______ _______ _____ _____    ______ ____
ROOT
ATOM      1  C   LIG    1        0.566  -0.747   1.759  0.00  0.00    +0.034 C 
ATOM      2  C   LIG    1       -0.250  -0.466   0.554  0.00  0.00    +0.035 C 
ATOM      3  C   LIG    1        1.048  -1.137   0.346  0.00  0.00    +0.120 C 
ENDROOT
BRANCH   2   4
ATOM      4  C   LIG    1       -1.497  -1.299   0.460  0.00  0.00    -0.036 A 
ATOM      5  C   LIG    1       -2.091  -1.755   1.613  0.00  0.00    +0.004 A 
ATOM      6  C   LIG    1       -3.254  -2.533   1.598  0.00  0.00    +0.000 A 
ATOM      7  C   LIG    1       -3.793  -2.832   0.379  0.00  0.00    +0.000 A 
ATOM      8  C   LIG    1       -3.204  -2.378  -0.788  0.00  0.00    +0.000 A 
ATOM      9  C   LIG    1       -2.064  -1.617  -0.751  0.00  0.00    +0.004 A 
ENDBRANCH   2   4
BRANCH   2  10
ATOM     10  C   LIG    1       -0.498   0.941   0.156  0.00  0.00    -0.036 A 
ATOM     11  C   LIG    1       -1.233   1.744   1.001  0.00  0.00    +0.004 A 
ATOM     12  C   LIG    1       -1.480   3.062   0.652  0.00  0.00    +0.000 A 
ATOM     13  C   LIG    1       -1.002   3.614  -0.541  0.00  0.00    +0.000 A 
ATOM     14  C   LIG    1       -0.272   2.797  -1.368  0.00  0.00    +0.000 A 
ATOM     15  C   LIG    1       -0.027   1.478  -1.018  0.00  0.00    +0.004 A 
ENDBRANCH   2  10
BRANCH   3  16
ATOM     16  C   LIG    1        2.242  -0.411  -0.166  0.00  0.00    +0.285 C 
ATOM     17  N   LIG    1        2.860   0.524   0.448  0.00  0.00    -0.084 NA
ATOM     18  C   LIG    1        3.986   1.032  -0.312  0.00  0.00    +0.333 C 
ATOM     19  C   LIG    1        3.999   0.248  -1.591  0.00  0.00    +0.272 C 
ATOM     20  N   LIG    1        2.875  -0.648  -1.414  0.00  0.00    -0.233 N 
ATOM     21  H   LIG    1        2.540  -1.391  -2.098  0.00  0.00    +0.291 HD
ENDBRANCH   3  16
TORSDOF 3
