REMARK  Name = molecules/IPOKCKJONYRRHP-FMQUCBEESA-N.pdb
REMARK                            x       y       z     vdW  Elec       q    Type
REMARK                         _______ _______ _______ _____ _____    ______ ____
ROOT
ATOM      1  C   LIG    1        2.530  -0.957  -0.055  0.00  0.00    +0.037 A 
ATOM      2  C   LIG    1        1.581  -1.154   0.933  0.00  0.00    +0.015 A 
ATOM      3  C   LIG    1        0.230  -1.046   0.663  0.00  0.00    +0.030 A 
ATOM      4  C   LIG    1       -0.233  -0.739  -0.597  0.00  0.00    +0.086 A 
ATOM      5  C   LIG    1        0.702  -0.542  -1.586  0.00  0.00    +0.030 A 
ATOM      6  C   LIG    1        2.072  -0.649  -1.320  0.00  0.00    +0.015 A 
ENDROOT
BRANCH   1   8
ATOM      7  N   LIG    1        4.960  -0.791  -0.718  0.00  0.00    -0.311 N 
ATOM      8  C   LIG    1        3.956  -1.059   0.218  0.00  0.00    +0.244 C 
ATOM      9  O   LIG    1        4.273  -1.415   1.383  0.00  0.00    -0.270 OA
ATOM     10  H   LIG    1        4.767  -0.494  -1.704  0.00  0.00    +0.149 HD
BRANCH   7  11
ATOM     11  C   LIG    1        6.362  -0.907  -0.377  0.00  0.00    +0.115 C 
BRANCH  11  12
ATOM     12  C   LIG    1        6.748   0.045   0.742  0.00  0.00    +0.139 C 
BRANCH  12  13
ATOM     13  C   LIG    1        6.476   1.443   0.297  0.00  0.00    +0.306 C 
ATOM     14  O   LIG    1        6.004   1.657  -0.840  0.00  0.00    -0.251 OA
BRANCH  13  15
ATOM     15  O   LIG    1        6.739   2.513   1.129  0.00  0.00    -0.481 OA
ATOM     16  H   LIG    1        6.660   3.468   0.827  0.00  0.00    +0.295 HD
ENDBRANCH  13  15
ENDBRANCH  12  13
ENDBRANCH  11  12
ENDBRANCH   7  11
ENDBRANCH   1   8
BRANCH   4  17
ATOM     17  N   LIG    1       -1.635  -0.646  -0.765  0.00  0.00    -0.149 NA
ATOM     18  N   LIG    1       -2.369   0.255  -0.341  0.00  0.00    -0.149 NA
BRANCH  18  19
ATOM     19  C   LIG    1       -3.777   0.369  -0.498  0.00  0.00    +0.087 A 
ATOM     20  C   LIG    1       -4.697   0.084   0.486  0.00  0.00    +0.048 A 
ATOM     21  C   LIG    1       -6.069   0.221   0.259  0.00  0.00    +0.102 A 
ATOM     22  C   LIG    1       -6.551   0.646  -0.959  0.00  0.00    +0.131 A 
ATOM     23  C   LIG    1       -5.632   0.932  -1.946  0.00  0.00    +0.048 A 
ATOM     24  C   LIG    1       -4.274   0.795  -1.719  0.00  0.00    +0.033 A 
BRANCH  21  25
ATOM     25  C   LIG    1       -7.002  -0.091   1.325  0.00  0.00    +0.340 C 
ATOM     26  O   LIG    1       -6.608  -0.482   2.453  0.00  0.00    -0.245 OA
BRANCH  25  27
ATOM     27  O   LIG    1       -8.365   0.033   1.132  0.00  0.00    -0.477 OA
ATOM     28  H   LIG    1       -8.859   0.891   1.024  0.00  0.00    +0.295 HD
ENDBRANCH  25  27
ENDBRANCH  21  25
BRANCH  22  29
ATOM     29  O   LIG    1       -7.920   0.788  -1.202  0.00  0.00    -0.506 OA
ATOM     30  H   LIG    1       -8.253   1.101  -2.104  0.00  0.00    +0.292 HD
ENDBRANCH  22  29
ENDBRANCH  18  19
ENDBRANCH   4  17
TORSDOF 10
