REMARK  Name = molecules/IQADUMSPOQKAAO-UHFFFAOYSA-N.pdb
REMARK                            x       y       z     vdW  Elec       q    Type
REMARK                         _______ _______ _______ _____ _____    ______ ____
ROOT
ATOM      1  C   LIG    1       -2.035   1.111   0.195  0.00  0.00    +0.318 C 
ATOM      2  O   LIG    1       -1.772   1.892   1.131  0.00  0.00    -0.250 OA
ENDROOT
BRANCH   1   3
ATOM      3  C   LIG    1       -3.495   0.995  -0.204  0.00  0.00    +0.092 C 
BRANCH   3   4
ATOM      4  C   LIG    1       -3.874  -0.412   0.045  0.00  0.00    -0.031 A 
ATOM      5  C   LIG    1       -3.640  -1.004   1.294  0.00  0.00    +0.005 A 
ATOM      6  C   LIG    1       -3.949  -2.318   1.561  0.00  0.00    +0.000 A 
ATOM      7  C   LIG    1       -4.510  -3.101   0.582  0.00  0.00    +0.000 A 
ATOM      8  C   LIG    1       -4.749  -2.561  -0.639  0.00  0.00    +0.000 A 
ATOM      9  C   LIG    1       -4.426  -1.215  -0.895  0.00  0.00    +0.005 A 
ENDBRANCH   3   4
BRANCH   3  10
ATOM     10  C   LIG    1       -4.309   1.818   0.770  0.00  0.00    +0.019 C 
ATOM     11  C   LIG    1       -3.924   3.275   0.767  0.00  0.00    +0.005 C 
ENDBRANCH   3  10
BRANCH   3  12
ATOM     12  C   LIG    1       -3.632   1.401  -1.603  0.00  0.00    +0.019 C 
ATOM     13  C   LIG    1       -4.962   1.438  -2.235  0.00  0.00    +0.005 C 
ENDBRANCH   3  12
ENDBRANCH   1   3
BRANCH   1  14
ATOM     14  O   LIG    1       -1.034   0.415  -0.414  0.00  0.00    -0.462 OA
BRANCH  14  15
ATOM     15  C   LIG    1        0.349   0.491  -0.072  0.00  0.00    +0.260 C 
BRANCH  15  16
ATOM     16  C   LIG    1        0.612   0.041   1.323  0.00  0.00    +0.201 C 
BRANCH  16  17
ATOM     17  O   LIG    1        1.848   0.082   1.761  0.00  0.00    -0.375 OA
BRANCH  17  18
ATOM     18  C   LIG    1        2.954  -0.526   1.435  0.00  0.00    +0.175 C 
BRANCH  18  19
ATOM     19  C   LIG    1        3.544  -0.412   0.075  0.00  0.00    +0.112 C 
BRANCH  19  20
ATOM     20  N   LIG    1        4.795  -1.153  -0.052  0.00  0.00    -0.301 NA
BRANCH  20  21
ATOM     21  C   LIG    1        5.747  -0.875   0.975  0.00  0.00    +0.081 C 
ATOM     22  C   LIG    1        7.025  -1.674   0.687  0.00  0.00    +0.020 C 
ENDBRANCH  20  21
BRANCH  20  23
ATOM     23  C   LIG    1        5.349  -1.031  -1.379  0.00  0.00    +0.081 C 
ATOM     24  C   LIG    1        5.841   0.336  -1.708  0.00  0.00    +0.020 C 
ENDBRANCH  20  23
ENDBRANCH  19  20
ENDBRANCH  18  19
ENDBRANCH  17  18
ENDBRANCH  16  17
ENDBRANCH  15  16
ENDBRANCH  14  15
ENDBRANCH   1  14
TORSDOF 13
