REMARK  Name = molecules/IQFYYKKMVGJFEH-CSMHCCOUSA-N.pdb
REMARK                            x       y       z     vdW  Elec       q    Type
REMARK                         _______ _______ _______ _____ _____    ______ ____
ROOT
ATOM      1  C2    T A  1       -1.662  -1.604   0.201  0.00  0.00    +0.331 A 
ATOM      2  N3    T A  1       -2.993  -1.557   0.452  0.00  0.00    -0.275 N 
ATOM      3  H3    T A  1       -3.518  -2.423   0.677  0.00  0.00    +0.173 HD
ATOM      4  C4    T A  1       -3.616  -0.364   0.403  0.00  0.00    +0.257 A 
ATOM      5  O4    T A  1       -4.862  -0.267   0.630  0.00  0.00    -0.267 OA
ATOM      6  C5    T A  1       -2.938   0.807   0.105  0.00  0.00    +0.030 A 
ATOM      7  C5M   T A  1       -3.626   2.125   0.051  0.00  0.00    +0.051 C 
ATOM      8  C6    T A  1       -1.584   0.682  -0.139  0.00  0.00    +0.101 A 
ATOM      9  O2    T A  1       -1.132  -2.757   0.263  0.00  0.00    -0.246 OA
ATOM     10  N1    T A  1       -0.949  -0.503  -0.093  0.00  0.00    -0.274 N 
ENDROOT
BRANCH  10  11
ATOM     11  C1*   T A  1        0.447  -0.647  -0.343  0.00  0.00    +0.226 C 
ATOM     12  C2*   T A  1        1.204  -1.191   0.877  0.00  0.00    +0.088 C 
ATOM     13  C3*   T A  1        2.637  -0.940   0.403  0.00  0.00    +0.150 C 
ATOM     14  C4*   T A  1        2.448   0.251  -0.508  0.00  0.00    +0.175 C 
ATOM     15  O4*   T A  1        1.108   0.536  -0.559  0.00  0.00    -0.348 OA
BRANCH  13  16
ATOM     16  O3*   T A  1        2.985  -2.088  -0.346  0.00  0.00    -0.389 OA
ATOM     17  H3*   T A  1        2.598  -2.853   0.150  0.00  0.00    +0.210 HD
ENDBRANCH  13  16
BRANCH  14  18
ATOM     18  C5*   T A  1        3.260   1.391   0.092  0.00  0.00    +0.190 C 
BRANCH  18  19
ATOM     19  O5*   T A  1        2.855   1.669   1.389  0.00  0.00    -0.392 OA
ATOM     20  H5*   T A  1        3.493   2.333   1.754  0.00  0.00    +0.210 HD
ENDBRANCH  18  19
ENDBRANCH  14  18
ENDBRANCH  10  11
TORSDOF 4
