REMARK  Name = molecules/IQUFSXIQAFPIMR-NSHDSACASA-N.pdb
REMARK                            x       y       z     vdW  Elec       q    Type
REMARK                         _______ _______ _______ _____ _____    ______ ____
ROOT
ATOM      1  C   LIG    1       -0.530  -0.607  -0.772  0.00  0.00    +0.055 C 
ATOM      2  C   LIG    1       -1.567  -0.799  -1.825  0.00  0.00    +0.024 C 
ENDROOT
BRANCH   1   3
ATOM      3  N   LIG    1       -0.965  -0.455   0.531  0.00  0.00    -0.312 NA
ATOM      4  H   LIG    1       -0.548   0.323   1.084  0.00  0.00    +0.122 HD
BRANCH   3   5
ATOM      5  C   LIG    1       -2.207  -0.917   0.966  0.00  0.00    +0.096 C 
BRANCH   5   6
ATOM      6  C   LIG    1       -3.452  -0.240   0.530  0.00  0.00    +0.133 C 
BRANCH   6   7
ATOM      7  C   LIG    1       -3.464   1.190   0.908  0.00  0.00    +0.064 C 
ATOM      8  N   LIG    1       -3.455   2.307   1.194  0.00  0.00    -0.197 NA
ENDBRANCH   6   7
ENDBRANCH   5   6
ENDBRANCH   3   5
ENDBRANCH   1   3
BRANCH   1   9
ATOM      9  C   LIG    1        0.407   0.500  -1.239  0.00  0.00    +0.053 C 
BRANCH   9  10
ATOM     10  C   LIG    1        1.636   0.529  -0.385  0.00  0.00    -0.046 A 
ATOM     11  C   LIG    1        1.788   1.377   0.684  0.00  0.00    +0.004 A 
ATOM     12  C   LIG    1        2.942   1.317   1.451  0.00  0.00    +0.000 A 
ATOM     13  C   LIG    1        3.962   0.431   1.188  0.00  0.00    +0.000 A 
ATOM     14  C   LIG    1        3.815  -0.424   0.115  0.00  0.00    +0.000 A 
ATOM     15  C   LIG    1        2.671  -0.375  -0.656  0.00  0.00    +0.004 A 
ENDBRANCH   9  10
ENDBRANCH   1   9
TORSDOF 6
