REMARK  Name = molecules/IQVRBWUUXZMOPW-PKNBQFBNSA-N.pdb
REMARK                            x       y       z     vdW  Elec       q    Type
REMARK                         _______ _______ _______ _____ _____    ______ ____
ROOT
ATOM      1  C   LIG    1       -3.777  -1.040  -1.188  0.00  0.00    +0.282 A 
ATOM      2  C   LIG    1       -2.598  -0.514  -0.751  0.00  0.00    +0.152 A 
ATOM      3  C   LIG    1       -2.607   0.749  -0.251  0.00  0.00    +0.169 A 
ATOM      4  N   LIG    1       -1.359   1.024   0.101  0.00  0.00    -0.210 NA
ATOM      5  C   LIG    1       -0.523  -0.040  -0.160  0.00  0.00    +0.136 A 
ATOM      6  N   LIG    1       -3.786   1.419  -0.213  0.00  0.00    -0.277 N 
ATOM      7  C   LIG    1       -4.937   0.882  -0.649  0.00  0.00    +0.334 A 
ATOM      8  O   LIG    1       -6.004   1.547  -0.592  0.00  0.00    -0.246 OA
ATOM      9  N   LIG    1       -1.325  -0.960  -0.680  0.00  0.00    -0.322 N 
ATOM     10  C   LIG    1       -0.872  -2.264  -1.114  0.00  0.00    +0.151 C 
ATOM     11  N   LIG    1       -4.965  -0.362  -1.149  0.00  0.00    -0.259 N 
ATOM     12  O   LIG    1       -3.832  -2.186  -1.653  0.00  0.00    -0.265 OA
ENDROOT
BRANCH   5  13
ATOM     13  C   LIG    1        0.890   0.046   0.145  0.00  0.00    +0.047 C 
ATOM     14  C   LIG    1        1.791  -0.873  -0.026  0.00  0.00    +0.011 C 
BRANCH  14  15
ATOM     15  C   LIG    1        3.217  -0.735   0.301  0.00  0.00    -0.021 A 
ATOM     16  C   LIG    1        3.780   0.398   0.820  0.00  0.00    +0.057 A 
ATOM     17  C   LIG    1        5.154   0.463   1.107  0.00  0.00    +0.162 A 
ATOM     18  C   LIG    1        5.971  -0.625   0.869  0.00  0.00    +0.162 A 
ATOM     19  C   LIG    1        5.408  -1.765   0.347  0.00  0.00    +0.050 A 
ATOM     20  C   LIG    1        4.055  -1.801   0.074  0.00  0.00    +0.012 A 
BRANCH  17  21
ATOM     21  O   LIG    1        5.733   1.586   1.627  0.00  0.00    -0.491 OA
ATOM     22  C   LIG    1        5.056   2.761   1.924  0.00  0.00    +0.277 C 
ENDBRANCH  17  21
BRANCH  18  23
ATOM     23  O   LIG    1        7.330  -0.532   1.164  0.00  0.00    -0.491 OA
ATOM     24  C   LIG    1        8.158  -1.661   0.912  0.00  0.00    +0.277 C 
ENDBRANCH  18  23
ENDBRANCH  14  15
ENDBRANCH   5  13
BRANCH   6  25
ATOM     25  C   LIG    1       -3.806   2.755   0.314  0.00  0.00    +0.125 C 
ATOM     26  C   LIG    1       -3.558   3.716  -0.839  0.00  0.00    +0.027 C 
ENDBRANCH   6  25
BRANCH  11  27
ATOM     27  C   LIG    1       -6.176  -0.957  -1.618  0.00  0.00    +0.126 C 
ATOM     28  C   LIG    1       -6.909  -1.707  -0.506  0.00  0.00    +0.027 C 
ENDBRANCH  11  27
TORSDOF 6
