REMARK  Name = molecules/IQWCBYSUUOFOMF-QTLFRQQHSA-N.pdb
REMARK                            x       y       z     vdW  Elec       q    Type
REMARK                         _______ _______ _______ _____ _____    ______ ____
ROOT
ATOM      1  C   LIG    1        0.111   0.117  -0.530  0.00  0.00    +0.069 C 
ATOM      2  C   LIG    1       -0.192  -1.210   0.109  0.00  0.00    +0.095 C 
ATOM      3  N   LIG    1       -1.630  -1.392   0.091  0.00  0.00    -0.302 NA
ATOM      4  C   LIG    1       -2.174  -0.595   1.172  0.00  0.00    +0.084 C 
ATOM      5  C   LIG    1       -1.578   0.815   1.179  0.00  0.00    +0.019 C 
ATOM      6  C   LIG    1       -2.198  -0.884  -1.153  0.00  0.00    +0.084 C 
ATOM      7  C   LIG    1       -2.177   0.632  -1.171  0.00  0.00    +0.019 C 
ATOM      8  C   LIG    1       -1.039   1.048  -0.229  0.00  0.00    +0.002 C 
ENDROOT
BRANCH   1   9
ATOM      9  C   LIG    1        1.402   0.606  -0.051  0.00  0.00    +0.160 C 
ATOM     10  N   LIG    1        2.075  -0.085   0.803  0.00  0.00    -0.078 NA
BRANCH  10  11
ATOM     11  O   LIG    1        3.295   0.302   1.303  0.00  0.00    -0.396 OA
ATOM     12  C   LIG    1        4.354  -0.634   1.219  0.00  0.00    +0.313 C 
ENDBRANCH  10  11
BRANCH   9  13
ATOM     13  C   LIG    1        1.986   1.851  -0.488  0.00  0.00    +0.118 C 
ATOM     14  N   LIG    1        2.463   2.848  -0.855  0.00  0.00    -0.190 NA
ENDBRANCH   9  13
ENDBRANCH   1   9
TORSDOF 3
