REMARK  Name = molecules/IRGJVQIJENCTQF-PZJWPPBQSA-N.pdb
REMARK                            x       y       z     vdW  Elec       q    Type
REMARK                         _______ _______ _______ _____ _____    ______ ____
ROOT
ATOM      1  C   LIG    1       -1.417   0.205   0.279  0.00  0.00    +0.173 A 
ATOM      2  C   LIG    1       -2.785   0.309   0.221  0.00  0.00    +0.206 A 
ATOM      3  C   LIG    1       -3.531  -0.394  -0.736  0.00  0.00    +0.187 A 
ATOM      4  C   LIG    1       -2.861  -1.182  -1.613  0.00  0.00    +0.085 A 
ATOM      5  C   LIG    1       -1.490  -1.294  -1.565  0.00  0.00    +0.094 A 
ATOM      6  C   LIG    1       -0.543  -1.902  -2.535  0.00  0.00    +0.342 C 
ATOM      7  O   LIG    1        0.702  -1.518  -2.086  0.00  0.00    -0.451 OA
ATOM      8  C   LIG    1        0.589  -1.226  -0.749  0.00  0.00    +0.233 C 
ATOM      9  O   LIG    1       -0.912  -2.596  -3.515  0.00  0.00    -0.245 OA
ATOM     10  C   LIG    1       -0.728  -0.605  -0.603  0.00  0.00    +0.056 A 
ENDROOT
BRANCH   8  11
ATOM     11  C   LIG    1        1.726  -1.104   0.120  0.00  0.00    +0.136 C 
ATOM     12  N   LIG    1        2.415  -2.459   0.154  0.00  0.00    -0.295 NA
ATOM     13  C   LIG    1        1.532  -3.352   0.834  0.00  0.00    +0.105 C 
ATOM     14  C   LIG    1        2.719  -2.920  -1.167  0.00  0.00    +0.089 C 
ATOM     15  C   LIG    1        3.406  -1.927  -2.051  0.00  0.00    +0.051 C 
ATOM     16  C   LIG    1        3.632  -0.633  -1.350  0.00  0.00    -0.034 A 
ATOM     17  C   LIG    1        4.692   0.150  -1.728  0.00  0.00    +0.053 A 
ATOM     18  C   LIG    1        5.056   1.315  -1.056  0.00  0.00    +0.170 A 
ATOM     19  C   LIG    1        4.313   1.693   0.042  0.00  0.00    +0.208 A 
ATOM     20  O   LIG    1        4.865   2.866   0.533  0.00  0.00    -0.449 OA
ATOM     21  C   LIG    1        6.115   3.110  -0.083  0.00  0.00    +0.467 C 
ATOM     22  C   LIG    1        3.230   0.887   0.423  0.00  0.00    +0.170 A 
ATOM     23  O   LIG    1        6.052   2.269  -1.220  0.00  0.00    -0.452 OA
ATOM     24  C   LIG    1        2.886  -0.251  -0.255  0.00  0.00    +0.022 A 
BRANCH  22  25
ATOM     25  O   LIG    1        2.559   1.344   1.543  0.00  0.00    -0.491 OA
ATOM     26  C   LIG    1        3.040   0.868   2.804  0.00  0.00    +0.277 C 
ENDBRANCH  22  25
ENDBRANCH   8  11
BRANCH   4  27
ATOM     27  N   LIG    1       -3.597  -1.905  -2.600  0.00  0.00    -0.354 N 
ATOM     28  H   LIG    1       -3.624  -2.947  -2.648  0.00  0.00    +0.142 HD
ATOM     29  H   LIG    1       -4.144  -1.386  -3.322  0.00  0.00    +0.142 HD
ENDBRANCH   4  27
BRANCH   1  30
ATOM     30  O   LIG    1       -0.667   0.924   1.221  0.00  0.00    -0.488 OA
BRANCH  30  31
ATOM     31  C   LIG    1       -0.359   2.289   0.929  0.00  0.00    +0.226 C 
ATOM     32  C   LIG    1        0.364   2.513  -0.353  0.00  0.00    +0.048 C 
ENDBRANCH  30  31
ENDBRANCH   1  30
BRANCH   2  33
ATOM     33  O   LIG    1       -3.463   1.114   1.104  0.00  0.00    -0.485 OA
BRANCH  33  34
ATOM     34  C   LIG    1       -4.100   2.321   0.890  0.00  0.00    +0.226 C 
ATOM     35  C   LIG    1       -4.657   2.779   2.243  0.00  0.00    +0.048 C 
ENDBRANCH  33  34
ENDBRANCH   2  33
BRANCH   3  36
ATOM     36  O   LIG    1       -4.907  -0.241  -0.727  0.00  0.00    -0.487 OA
BRANCH  36  37
ATOM     37  C   LIG    1       -5.803  -1.029  -0.006  0.00  0.00    +0.226 C 
ATOM     38  C   LIG    1       -5.582  -0.998   1.487  0.00  0.00    +0.048 C 
ENDBRANCH  36  37
ENDBRANCH   3  36
TORSDOF 9
