REMARK  Name = molecules/IRVLBORJKFZWMI-PWSUYJOCSA-N.pdb
REMARK                            x       y       z     vdW  Elec       q    Type
REMARK                         _______ _______ _______ _____ _____    ______ ____
ROOT
ATOM      1  C   LIG    1        0.123   0.297   0.441  0.00  0.00    +0.161 C 
ENDROOT
BRANCH   1   2
ATOM      2  C   LIG    1        1.576   0.256   0.302  0.00  0.00    -0.018 A 
ATOM      3  C   LIG    1        2.294   0.747   1.413  0.00  0.00    +0.006 A 
ATOM      4  C   LIG    1        3.668   0.779   1.419  0.00  0.00    +0.000 A 
ATOM      5  C   LIG    1        4.338   0.319   0.310  0.00  0.00    +0.000 A 
ATOM      6  C   LIG    1        3.640  -0.159  -0.771  0.00  0.00    +0.000 A 
ATOM      7  C   LIG    1        2.263  -0.201  -0.799  0.00  0.00    +0.006 A 
ENDBRANCH   1   2
BRANCH   1   8
ATOM      8  O   LIG    1       -0.254   1.617   0.572  0.00  0.00    -0.386 OA
ATOM      9  H   LIG    1        0.424   2.205   0.125  0.00  0.00    +0.210 HD
ENDBRANCH   1   8
BRANCH   1  10
ATOM     10  C   LIG    1       -0.699  -0.436  -0.536  0.00  0.00    +0.086 C 
ATOM     11  C   LIG    1       -0.265  -1.848  -0.849  0.00  0.00    +0.027 C 
BRANCH  10  12
ATOM     12  N   LIG    1       -2.081  -0.476  -0.189  0.00  0.00    -0.300 NA
ATOM     13  C   LIG    1       -2.322  -1.222   1.045  0.00  0.00    +0.105 C 
BRANCH  12  14
ATOM     14  C   LIG    1       -2.833   0.722  -0.224  0.00  0.00    +0.081 C 
ATOM     15  C   LIG    1       -3.019   1.128  -1.696  0.00  0.00    +0.020 C 
ENDBRANCH  12  14
ENDBRANCH  10  12
ENDBRANCH   1  10
TORSDOF 5
