REMARK  Name = molecules/ISFHAYSTHMVOJR-LJQANCHMSA-N.pdb
REMARK                            x       y       z     vdW  Elec       q    Type
REMARK                         _______ _______ _______ _____ _____    ______ ____
ROOT
ATOM      1  C   LIG    1       -3.685  -1.954  -0.411  0.00  0.00    +0.105 C 
ATOM      2  N   LIG    1       -2.888  -1.371   0.650  0.00  0.00    -0.301 NA
ATOM      3  C   LIG    1       -3.305  -0.059   1.010  0.00  0.00    +0.089 C 
ATOM      4  C   LIG    1       -2.153   0.708   1.623  0.00  0.00    +0.051 C 
ATOM      5  C   LIG    1       -1.066   0.747   0.618  0.00  0.00    -0.037 C 
ATOM      6  C   LIG    1       -0.244   1.810   0.093  0.00  0.00    -0.018 A 
ATOM      7  C   LIG    1       -0.234   3.155   0.393  0.00  0.00    +0.008 A 
ATOM      8  C   LIG    1        0.642   4.011  -0.228  0.00  0.00    +0.001 A 
ATOM      9  C   LIG    1        1.514   3.497  -1.161  0.00  0.00    +0.000 A 
ATOM     10  C   LIG    1        1.509   2.154  -1.465  0.00  0.00    +0.005 A 
ATOM     11  C   LIG    1        0.637   1.313  -0.845  0.00  0.00    -0.028 A 
ATOM     12  C   LIG    1        0.373  -0.141  -0.934  0.00  0.00    +0.077 C 
ATOM     13  C   LIG    1       -0.726  -0.394   0.039  0.00  0.00    -0.040 C 
ATOM     14  C   LIG    1       -1.490  -1.582   0.486  0.00  0.00    +0.116 C 
ENDROOT
BRANCH  12  15
ATOM     15  C   LIG    1        1.631  -0.832  -0.512  0.00  0.00    -0.036 A 
ATOM     16  C   LIG    1        1.832  -1.149   0.805  0.00  0.00    +0.004 A 
ATOM     17  C   LIG    1        2.994  -1.785   1.182  0.00  0.00    +0.000 A 
ATOM     18  C   LIG    1        3.980  -2.122   0.278  0.00  0.00    +0.000 A 
ATOM     19  C   LIG    1        3.741  -1.786  -1.035  0.00  0.00    +0.000 A 
ATOM     20  C   LIG    1        2.588  -1.149  -1.444  0.00  0.00    +0.004 A 
ENDBRANCH  12  15
TORSDOF 1
