REMARK  Name = molecules/ITIONVBQFUNVJV-JOCHJYFZSA-N.pdb
REMARK                            x       y       z     vdW  Elec       q    Type
REMARK                         _______ _______ _______ _____ _____    ______ ____
ROOT
ATOM      1  C   LIG    1       -2.001  -1.255   0.197  0.00  0.00    +0.029 A 
ATOM      2  C   LIG    1       -0.918  -0.529   0.612  0.00  0.00    +0.026 A 
ATOM      3  C   LIG    1        0.408  -0.915   0.374  0.00  0.00    +0.047 A 
ATOM      4  C   LIG    1        0.667  -2.078  -0.311  0.00  0.00    +0.121 A 
ATOM      5  C   LIG    1       -0.424  -2.842  -0.747  0.00  0.00    +0.047 A 
ATOM      6  C   LIG    1       -1.703  -2.436  -0.497  0.00  0.00    +0.026 A 
ENDROOT
BRANCH   1   7
ATOM      7  N   LIG    1       -3.344  -0.937   0.432  0.00  0.00    -0.322 N 
ATOM      8  H   LIG    1       -4.077  -1.657   0.265  0.00  0.00    +0.148 HD
BRANCH   7   9
ATOM      9  C   LIG    1       -3.764   0.346   0.896  0.00  0.00    +0.193 C 
ATOM     10  N   LIG    1       -5.075   0.294   1.489  0.00  0.00    -0.275 N 
ATOM     11  C   LIG    1       -5.870   1.282   0.878  0.00  0.00    +0.249 C 
ATOM     12  O   LIG    1       -7.095   1.518   1.145  0.00  0.00    -0.270 OA
ATOM     13  C   LIG    1       -5.049   1.974  -0.099  0.00  0.00    +0.043 A 
ATOM     14  C   LIG    1       -5.346   3.032  -0.964  0.00  0.00    +0.013 A 
ATOM     15  C   LIG    1       -4.384   3.535  -1.811  0.00  0.00    +0.001 A 
ATOM     16  C   LIG    1       -3.114   3.006  -1.822  0.00  0.00    +0.000 A 
ATOM     17  C   LIG    1       -2.837   1.966  -0.965  0.00  0.00    +0.008 A 
ATOM     18  C   LIG    1       -3.793   1.424  -0.084  0.00  0.00    +0.003 A 
BRANCH  10  19
ATOM     19  C   LIG    1       -5.508  -0.632   2.553  0.00  0.00    +0.107 C 
ATOM     20  C   LIG    1       -6.074  -1.906   2.000  0.00  0.00    +0.024 C 
ENDBRANCH  10  19
ENDBRANCH   7   9
ENDBRANCH   1   7
BRANCH   4  21
ATOM     21  O   LIG    1        1.898  -2.545  -0.592  0.00  0.00    -0.491 OA
BRANCH  21  22
ATOM     22  C   LIG    1        3.132  -2.047  -0.348  0.00  0.00    +0.244 C 
BRANCH  22  23
ATOM     23  C   LIG    1        3.527  -0.756  -1.024  0.00  0.00    +0.125 C 
BRANCH  23  24
ATOM     24  N   LIG    1        4.864  -0.452  -0.596  0.00  0.00    -0.299 NA
ATOM     25  C   LIG    1        5.054  -0.099   0.744  0.00  0.00    +0.084 C 
ATOM     26  C   LIG    1        5.713   1.256   0.878  0.00  0.00    +0.015 C 
ATOM     27  C   LIG    1        7.038   1.172   0.173  0.00  0.00    +0.002 C 
ATOM     28  C   LIG    1        6.888   0.803  -1.278  0.00  0.00    +0.015 C 
ATOM     29  C   LIG    1        5.822  -0.176  -1.566  0.00  0.00    +0.084 C 
ENDBRANCH  23  24
ENDBRANCH  22  23
ENDBRANCH  21  22
ENDBRANCH   4  21
TORSDOF 7
