REMARK  Name = molecules/ITMSAWKLJVGBIT-VKHMYHEASA-N.pdb
REMARK                            x       y       z     vdW  Elec       q    Type
REMARK                         _______ _______ _______ _____ _____    ______ ____
ROOT
ATOM      1  N   LIG    1        0.871  -0.654   0.114  0.00  0.00    -0.252 N 
ATOM      2  C   LIG    1       -0.283   0.163   0.227  0.00  0.00    +0.402 C 
ATOM      3  O   LIG    1       -0.175   1.248   0.848  0.00  0.00    -0.226 OA
ATOM      4  H   LIG    1        0.775  -1.555  -0.403  0.00  0.00    +0.155 HD
ENDROOT
BRANCH   1   5
ATOM      5  C   LIG    1        2.112  -0.248   0.691  0.00  0.00    +0.256 C 
BRANCH   5   6
ATOM      6  C   LIG    1        3.240  -0.209  -0.329  0.00  0.00    +0.232 C 
ATOM      7 CL   LIG    1        4.738   0.259   0.518  0.00  0.00    -0.079 Cl
ATOM      8 CL   LIG    1        3.431  -1.851  -1.005  0.00  0.00    -0.079 Cl
ATOM      9 CL   LIG    1        2.885   0.890  -1.656  0.00  0.00    -0.079 Cl
ENDBRANCH   5   6
BRANCH   5  10
ATOM     10  O   LIG    1        2.507  -1.153   1.695  0.00  0.00    -0.370 OA
ATOM     11  H   LIG    1        3.444  -0.869   1.924  0.00  0.00    +0.212 HD
ENDBRANCH   5  10
ENDBRANCH   1   5
BRANCH   2  12
ATOM     12  O   LIG    1       -1.509  -0.226  -0.336  0.00  0.00    -0.451 OA
BRANCH  12  13
ATOM     13  C   LIG    1       -2.587   0.682  -0.152  0.00  0.00    +0.230 C 
ATOM     14  C   LIG    1       -3.853   0.200  -0.778  0.00  0.00    +0.048 C 
ENDBRANCH  12  13
ENDBRANCH   2  12
TORSDOF 5
