REMARK  Name = molecules/IUVKMZGDUIUOCP-BTNSXGMBSA-N.pdb
REMARK                            x       y       z     vdW  Elec       q    Type
REMARK                         _______ _______ _______ _____ _____    ______ ____
ROOT
ATOM      1  C   LIG    1       -3.503   1.735   0.539  0.00  0.00    +0.020 C 
ATOM      2  C   LIG    1       -3.546   0.386  -0.172  0.00  0.00    +0.011 C 
ATOM      3  C   LIG    1       -4.174  -0.626   0.667  0.00  0.00    -0.056 C 
ATOM      4  C   LIG    1       -3.513  -0.932   2.007  0.00  0.00    +0.032 C 
ATOM      5  C   LIG    1       -2.066  -1.271   1.790  0.00  0.00    +0.008 C 
ATOM      6  C   LIG    1       -1.391  -0.286   0.895  0.00  0.00    -0.003 C 
ATOM      7  C   LIG    1       -0.023  -0.760   0.532  0.00  0.00    +0.002 C 
ATOM      8  C   LIG    1        0.863  -1.128   1.661  0.00  0.00    +0.008 C 
ATOM      9  C   LIG    1        2.242  -1.044   1.038  0.00  0.00    +0.045 C 
ATOM     10  C   LIG    1        2.082  -0.303  -0.273  0.00  0.00    +0.179 C 
ATOM     11  C   LIG    1        0.724   0.387  -0.082  0.00  0.00    +0.008 C 
ATOM     12  C   LIG    1        0.967   1.524   0.860  0.00  0.00    +0.015 C 
ATOM     13  C   LIG    1        0.074   0.761  -1.353  0.00  0.00    +0.011 C 
ATOM     14  C   LIG    1       -1.393   0.718  -1.410  0.00  0.00    +0.005 C 
ATOM     15  C   LIG    1       -5.255  -1.273   0.314  0.00  0.00    +0.051 C 
ATOM     16  C   LIG    1       -5.934  -1.041  -0.955  0.00  0.00    +0.179 C 
ATOM     17  O   LIG    1       -6.955  -1.670  -1.257  0.00  0.00    -0.288 OA
ATOM     18  C   LIG    1       -5.312  -0.032  -1.802  0.00  0.00    +0.047 C 
ATOM     19  C   LIG    1       -2.113  -0.107  -0.423  0.00  0.00    +0.006 C 
ATOM     20  C   LIG    1       -4.229   0.611  -1.441  0.00  0.00    -0.012 C 
ENDROOT
BRANCH  10  21
ATOM     21  O   LIG    1        3.032   0.693  -0.472  0.00  0.00    -0.493 OA
BRANCH  21  22
ATOM     22  C   LIG    1        4.381   0.470  -0.683  0.00  0.00    +0.094 C 
ATOM     23  C   LIG    1        5.255   1.458  -0.798  0.00  0.00    +0.014 C 
ATOM     24  C   LIG    1        6.607   0.919  -1.014  0.00  0.00    +0.031 C 
ATOM     25  C   LIG    1        6.498  -0.467  -0.403  0.00  0.00    +0.012 C 
ATOM     26  C   LIG    1        5.086  -0.851  -0.816  0.00  0.00    +0.074 C 
ENDBRANCH  21  22
ENDBRANCH  10  21
TORSDOF 2
