REMARK  Name = molecules/IUWKNLFTJBHTSD-AANPDWTMSA-N.pdb
REMARK                            x       y       z     vdW  Elec       q    Type
REMARK                         _______ _______ _______ _____ _____    ______ ____
ROOT
ATOM      1  C   LIG    1       -2.788   0.804  -1.108  0.00  0.00    +0.014 C 
ATOM      2  C   LIG    1       -2.975   0.329   0.309  0.00  0.00    -0.003 C 
ATOM      3  C   LIG    1       -2.164   1.169   1.238  0.00  0.00    +0.010 C 
ATOM      4  C   LIG    1       -0.699   1.022   1.046  0.00  0.00    +0.009 C 
ATOM      5  C   LIG    1       -0.219  -0.380   0.879  0.00  0.00    +0.023 C 
ATOM      6  C   LIG    1        1.180  -0.463   0.443  0.00  0.00    -0.041 A 
ATOM      7  C   LIG    1        2.088   0.392   1.022  0.00  0.00    +0.008 A 
ATOM      8  C   LIG    1        3.445   0.406   0.690  0.00  0.00    +0.046 A 
ATOM      9  C   LIG    1        3.910  -0.469  -0.261  0.00  0.00    +0.121 A 
ATOM     10  C   LIG    1        2.966  -1.331  -0.837  0.00  0.00    +0.049 A 
ATOM     11  C   LIG    1        1.637  -1.347  -0.512  0.00  0.00    -0.040 A 
ATOM     12  C   LIG    1        0.698  -2.315  -1.189  0.00  0.00    +0.036 C 
ATOM     13  C   LIG    1       -0.516  -2.500  -0.270  0.00  0.00    +0.009 C 
ATOM     14  C   LIG    1       -1.112  -1.147  -0.091  0.00  0.00    +0.000 C 
ATOM     15  C   LIG    1       -4.406   0.190   0.683  0.00  0.00    +0.124 C 
ATOM     16  C   LIG    1       -4.810  -1.206   0.207  0.00  0.00    +0.032 C 
ATOM     17  C   LIG    1       -3.517  -1.885  -0.222  0.00  0.00    +0.007 C 
ATOM     18  C   LIG    1       -2.477  -1.114   0.485  0.00  0.00    +0.001 C 
ENDROOT
BRANCH  15  19
ATOM     19  O   LIG    1       -5.207   1.111   0.016  0.00  0.00    -0.379 OA
ATOM     20  C   LIG    1       -5.962   1.877   0.910  0.00  0.00    +0.194 C 
ENDBRANCH  15  19
BRANCH   9  21
ATOM     21  O   LIG    1        5.213  -0.560  -0.677  0.00  0.00    -0.492 OA
BRANCH  21  22
ATOM     22  C   LIG    1        6.346   0.122  -0.340  0.00  0.00    +0.229 C 
BRANCH  22  23
ATOM     23  C   LIG    1        6.396   1.589  -0.616  0.00  0.00    +0.038 C 
ATOM     24  C   LIG    1        6.217   1.906  -2.087  0.00  0.00    +0.007 C 
ENDBRANCH  22  23
ENDBRANCH  21  22
ENDBRANCH   9  21
TORSDOF 4
