REMARK  Name = molecules/IVBHGBMCVLDMKU-GXNBUGAJSA-N.pdb
REMARK                            x       y       z     vdW  Elec       q    Type
REMARK                         _______ _______ _______ _____ _____    ______ ____
ROOT
ATOM      1  CA  LIG    1        0.354   1.618   0.654  0.00  0.00    +0.191 C 
ENDROOT
BRANCH   1   2
ATOM      2  N   LIG    1        1.502   0.697   0.884  0.00  0.00    -0.284 N 
ATOM      3  H   LIG    1        1.553   0.198   1.784  0.00  0.00    +0.151 HD
ATOM      4  C   LIG    1        2.466   0.544  -0.129  0.00  0.00    +0.310 C 
ATOM      5  N   LIG    1        3.567  -0.341   0.045  0.00  0.00    -0.217 N 
ATOM      6  C   LIG    1        3.763  -1.148   1.196  0.00  0.00    +0.137 C 
ATOM      7  C   LIG    1        4.183  -2.579   0.897  0.00  0.00    +0.127 C 
ATOM      8  N   LIG    1        5.148  -2.658  -0.175  0.00  0.00    -0.293 N 
ATOM      9  C   LIG    1        5.363  -1.618  -1.096  0.00  0.00    +0.302 C 
ATOM     10  O   LIG    1        6.247  -1.722  -2.007  0.00  0.00    -0.265 OA
ATOM     11  C   LIG    1        4.562  -0.412  -1.005  0.00  0.00    +0.309 C 
ATOM     12  O   LIG    1        4.713   0.556  -1.804  0.00  0.00    -0.264 OA
ATOM     13  O   LIG    1        2.385   1.181  -1.218  0.00  0.00    -0.252 OA
BRANCH   8  14
ATOM     14  C   LIG    1        5.927  -3.868  -0.312  0.00  0.00    +0.105 C 
ATOM     15  C   LIG    1        7.206  -3.675   0.502  0.00  0.00    +0.024 C 
ENDBRANCH   8  14
ENDBRANCH   1   2
BRANCH   1  16
ATOM     16  C   LIG    1        0.614   2.752   1.578  0.00  0.00    -0.018 A 
ATOM     17  C   LIG    1        0.907   2.485   2.900  0.00  0.00    +0.006 A 
ATOM     18  C   LIG    1        1.177   3.517   3.771  0.00  0.00    +0.000 A 
ATOM     19  C   LIG    1        1.171   4.827   3.382  0.00  0.00    +0.000 A 
ATOM     20  C   LIG    1        0.869   5.061   2.031  0.00  0.00    +0.000 A 
ATOM     21  C   LIG    1        0.597   4.056   1.157  0.00  0.00    +0.006 A 
ENDBRANCH   1  16
BRANCH   1  23
ATOM     22  N   LIG    1       -2.053   0.839   0.226  0.00  0.00    -0.300 N 
ATOM     23  C   LIG    1       -0.847   0.830   0.978  0.00  0.00    +0.239 C 
ATOM     24  O   LIG    1       -0.811   0.070   2.005  0.00  0.00    -0.273 OA
ATOM     25  H   LIG    1       -2.048   1.476  -0.610  0.00  0.00    +0.150 HD
BRANCH  22  26
ATOM     26  CA  LIG    1       -3.141   0.025   0.638  0.00  0.00    +0.190 C 
ATOM     27  C   LIG    1       -4.514   0.239   0.179  0.00  0.00    +0.165 C 
ATOM     28  N   LIG    1       -4.292  -0.771  -0.836  0.00  0.00    -0.271 N 
ATOM     29  CA  LIG    1       -5.208  -0.614  -1.895  0.00  0.00    +0.201 C 
ATOM     30  C   LIG    1       -4.997   0.810  -2.454  0.00  0.00    +0.042 C 
ATOM     31  C   LIG    1       -3.705   0.902  -3.227  0.00  0.00    +0.025 C 
ATOM     32  C   LIG    1       -6.159   1.268  -3.265  0.00  0.00    +0.025 C 
ATOM     33  S   LIG    1       -4.843   1.684  -0.851  0.00  0.00    -0.127 S 
ATOM     34  C   LIG    1       -3.211  -1.311  -0.043  0.00  0.00    +0.240 C 
ATOM     35  O   LIG    1       -2.560  -2.366   0.103  0.00  0.00    -0.273 OA
BRANCH  29  36
ATOM     36  C   LIG    1       -6.592  -0.801  -1.438  0.00  0.00    +0.327 C 
ATOM     37  O   LIG    1       -7.588  -0.619  -2.198  0.00  0.00    -0.249 OA
BRANCH  36  38
ATOM     38  OXT LIG    1       -6.862  -1.185  -0.147  0.00  0.00    -0.479 OA
ATOM     39  HXT LIG    1       -6.789  -2.144   0.207  0.00  0.00    +0.295 HD
ENDBRANCH  36  38
ENDBRANCH  29  36
ENDBRANCH  22  26
ENDBRANCH   1  23
TORSDOF 7
