REMARK  Name = molecules/IVFYLRMMHVYGJH-PVPPCFLZSA-N.pdb
REMARK                            x       y       z     vdW  Elec       q    Type
REMARK                         _______ _______ _______ _____ _____    ______ ____
ROOT
ATOM      1  C   LIG    1       -0.059   2.991   1.166  0.00  0.00    +0.008 C 
ATOM      2  C   LIG    1       -0.620   1.592   1.330  0.00  0.00    -0.006 C 
ATOM      3  C   LIG    1       -2.115   1.723   1.314  0.00  0.00    +0.035 C 
ATOM      4  C   LIG    1       -2.793   0.463   0.900  0.00  0.00    -0.060 C 
ATOM      5  C   LIG    1       -3.780  -0.029   1.623  0.00  0.00    +0.046 C 
ATOM      6  C   LIG    1       -4.441  -1.265   1.213  0.00  0.00    +0.156 C 
ATOM      7  O   LIG    1       -5.603  -1.530   1.562  0.00  0.00    -0.293 OA
ATOM      8  C   LIG    1       -3.598  -2.159   0.352  0.00  0.00    +0.080 C 
ATOM      9  C   LIG    1       -3.085  -1.289  -0.756  0.00  0.00    +0.019 C 
ATOM     10  C   LIG    1       -2.255  -0.137  -0.345  0.00  0.00    -0.007 C 
ATOM     11  C   LIG    1       -0.850  -0.546  -0.001  0.00  0.00    +0.003 C 
ATOM     12  C   LIG    1       -0.227  -1.357  -1.069  0.00  0.00    +0.005 C 
ATOM     13  C   LIG    1        1.235  -1.608  -0.910  0.00  0.00    +0.010 C 
ATOM     14  C   LIG    1        1.980  -0.378  -0.532  0.00  0.00    -0.000 C 
ATOM     15  C   LIG    1        1.300   0.115   0.755  0.00  0.00    +0.001 C 
ATOM     16  C   LIG    1        2.307   1.025   1.311  0.00  0.00    +0.007 C 
ATOM     17  C   LIG    1        3.547   0.116   1.256  0.00  0.00    +0.035 C 
ATOM     18  C   LIG    1        3.373  -0.570  -0.084  0.00  0.00    +0.069 C 
ATOM     19  C   LIG    1        3.845  -1.995  -0.059  0.00  0.00    +0.042 C 
ATOM     20  C   LIG    1        1.894   0.667  -1.624  0.00  0.00    +0.014 C 
ATOM     21  C   LIG    1       -2.282   0.888  -1.462  0.00  0.00    +0.016 C 
ATOM     22  C   LIG    1       -0.008   0.691   0.348  0.00  0.00    -0.000 C 
ENDROOT
BRANCH  18  23
ATOM     23  O   LIG    1        4.231   0.119  -0.974  0.00  0.00    -0.388 OA
ATOM     24  H   LIG    1        5.031   0.451  -0.491  0.00  0.00    +0.210 HD
ENDBRANCH  18  23
TORSDOF 1
