REMARK  Name = molecules/IVTVGDXNLFLDRM-HNNXBMFYSA-N.pdb
REMARK                            x       y       z     vdW  Elec       q    Type
REMARK                         _______ _______ _______ _____ _____    ______ ____
ROOT
ATOM      1  C   UNK A  0        0.087   0.934  -0.432  0.00  0.00    +0.069 A 
ATOM      2  C   UNK A  0        0.958   1.640   0.353  0.00  0.00    +0.032 A 
ATOM      3  C   UNK A  0        2.115   1.048   0.675  0.00  0.00    +0.022 A 
ATOM      4  C   UNK A  0        2.332  -0.219   0.190  0.00  0.00    +0.076 A 
ATOM      5  S   UNK A  0        0.909  -0.531  -0.696  0.00  0.00    -0.069 S 
ENDROOT
BRANCH   4   6
ATOM      6  C   UNK A  0        3.519  -1.070   0.406  0.00  0.00    +0.251 C 
ATOM      7  N   GLU A  1        4.612  -0.646   1.173  0.00  0.00    -0.298 N 
ATOM      8  H   GLU A  1        4.556   0.326   1.602  0.00  0.00    +0.150 HD
ATOM      9  O   UNK A  0        3.523  -2.199  -0.124  0.00  0.00    -0.270 OA
BRANCH   7  10
ATOM     10  CA  GLU A  1        5.793  -1.433   1.416  0.00  0.00    +0.182 C 
BRANCH  10  11
ATOM     11  C   GLU A  1        6.082  -1.628   2.837  0.00  0.00    +0.325 C 
ATOM     12  OXT GLU A  1        5.379  -1.161   3.766  0.00  0.00    -0.249 OA
BRANCH  11  13
ATOM     13  O   GLU A  1        7.199  -2.372   3.188  0.00  0.00    -0.479 OA
ATOM     14  H   GLU A  1        7.224  -3.365   2.954  0.00  0.00    +0.295 HD
ENDBRANCH  11  13
ENDBRANCH  10  11
BRANCH  10  15
ATOM     15  CB  GLU A  1        6.941  -0.747   0.682  0.00  0.00    +0.045 C 
BRANCH  15  16
ATOM     16  CG  GLU A  1        6.564  -0.724  -0.783  0.00  0.00    +0.123 C 
BRANCH  16  17
ATOM     17  CD  GLU A  1        7.610  -0.077  -1.607  0.00  0.00    +0.305 C 
ATOM     18  OE2 GLU A  1        8.630   0.356  -1.050  0.00  0.00    -0.251 OA
BRANCH  17  19
ATOM     19  OE1 GLU A  1        7.479   0.056  -2.975  0.00  0.00    -0.481 OA
ATOM     20  HE1 GLU A  1        8.306   0.135  -3.551  0.00  0.00    +0.295 HD
ENDBRANCH  17  19
ENDBRANCH  16  17
ENDBRANCH  15  16
ENDBRANCH  10  15
ENDBRANCH   7  10
ENDBRANCH   4   6
BRANCH   1  22
ATOM     21  C   UNK A  0       -1.767   2.629  -0.596  0.00  0.00    +0.130 C 
ATOM     22  N   UNK A  0       -1.207   1.338  -0.914  0.00  0.00    -0.323 N 
BRANCH  22  23
ATOM     23  C   UNK A  0       -1.964   0.424  -1.739  0.00  0.00    +0.140 C 
BRANCH  23  24
ATOM     24  C   UNK A  0       -3.271   0.081  -1.122  0.00  0.00    -0.029 A 
ATOM     25  C   UNK A  0       -3.390  -0.988  -0.282  0.00  0.00    +0.007 A 
ATOM     26  C   UNK A  0       -4.603  -1.307   0.290  0.00  0.00    +0.029 A 
ATOM     27  C   UNK A  0       -5.737  -0.566   0.042  0.00  0.00    +0.078 A 
ATOM     28  N   UNK A  0       -6.931  -0.849   0.583  0.00  0.00    -0.234 NA
ATOM     29  C   UNK A  0       -8.028  -0.121   0.334  0.00  0.00    +0.107 A 
ATOM     30  C   UNK A  0       -9.330  -0.493   0.971  0.00  0.00    +0.086 C 
ATOM     31  N   UNK A  0       -7.919   0.934  -0.491  0.00  0.00    -0.311 N 
ATOM     32  H   UNK A  0       -8.768   1.504  -0.689  0.00  0.00    +0.170 HD
ATOM     33  C   UNK A  0       -6.739   1.247  -1.051  0.00  0.00    +0.259 A 
ATOM     34  O   UNK A  0       -6.642   2.241  -1.827  0.00  0.00    -0.267 OA
ATOM     35  C   UNK A  0       -5.590   0.515  -0.814  0.00  0.00    +0.065 A 
ATOM     36  C   UNK A  0       -4.387   0.845  -1.392  0.00  0.00    +0.020 A 
ENDBRANCH  23  24
ENDBRANCH  22  23
ENDBRANCH   1  22
TORSDOF 11
