REMARK  Name = molecules/IVVNZDGDKPTYHK-JTQLQIEISA-N.pdb
REMARK                            x       y       z     vdW  Elec       q    Type
REMARK                         _______ _______ _______ _____ _____    ______ ____
ROOT
ATOM      1  C   LIG    1        0.659  -0.895  -0.066  0.00  0.00    +0.402 C 
ATOM      2  N   LIG    1        0.742  -2.147   0.028  0.00  0.00    +0.011 NA
ENDROOT
BRANCH   1   3
ATOM      3  N   LIG    1        1.643  -0.288  -0.930  0.00  0.00    -0.242 N 
ATOM      4  H   LIG    1        1.323   0.513  -1.491  0.00  0.00    +0.265 HD
BRANCH   3   9
ATOM      5  C   LIG    1        5.072  -0.742  -2.234  0.00  0.00    +0.114 A 
ATOM      6  N   LIG    1        5.560  -1.603  -1.348  0.00  0.00    -0.263 NA
ATOM      7  C   LIG    1        4.866  -2.094  -0.284  0.00  0.00    +0.114 A 
ATOM      8  C   LIG    1        3.553  -1.643  -0.139  0.00  0.00    +0.062 A 
ATOM      9  C   LIG    1        2.977  -0.737  -1.034  0.00  0.00    +0.103 A 
ATOM     10  C   LIG    1        3.766  -0.308  -2.070  0.00  0.00    +0.062 A 
ENDBRANCH   3   9
ENDBRANCH   1   3
BRANCH   1  11
ATOM     11  N   LIG    1       -0.293  -0.098   0.616  0.00  0.00    -0.272 N 
ATOM     12  H   LIG    1       -0.188   0.009   1.647  0.00  0.00    +0.258 HD
BRANCH  11  13
ATOM     13  C   LIG    1       -1.343   0.519  -0.127  0.00  0.00    +0.147 C 
ATOM     14  C   LIG    1       -2.158  -0.500  -0.877  0.00  0.00    +0.048 C 
BRANCH  13  15
ATOM     15  C   LIG    1       -2.272   1.349   0.710  0.00  0.00    -0.005 C 
ATOM     16  C   LIG    1       -2.967   0.576   1.809  0.00  0.00    +0.014 C 
ATOM     17  C   LIG    1       -1.572   2.514   1.381  0.00  0.00    +0.014 C 
ATOM     18  C   LIG    1       -3.333   1.931  -0.211  0.00  0.00    +0.014 C 
ENDBRANCH  13  15
ENDBRANCH  11  13
ENDBRANCH   1  11
BRANCH   2  19
ATOM     19  C   LIG    1       -0.049  -2.999   0.760  0.00  0.00    +0.295 C 
ATOM     20  N   LIG    1       -0.697  -3.739   1.383  0.00  0.00    -0.151 NA
ENDBRANCH   2  19
TORSDOF 6
