REMARK  Name = molecules/IXLGLCQSNUMEGQ-GHEPBZNLSA-N.pdb
REMARK                            x       y       z     vdW  Elec       q    Type
REMARK                         _______ _______ _______ _____ _____    ______ ____
ROOT
ATOM      1  C   LIG    1       -3.481   0.752  -0.007  0.00  0.00    +0.129 C 
ATOM      2  C   LIG    1       -2.833  -0.572   0.136  0.00  0.00    +0.039 C 
ATOM      3  C   LIG    1       -2.062  -0.728   1.408  0.00  0.00    +0.073 C 
ATOM      4  C   LIG    1       -0.961   0.208   1.625  0.00  0.00    -0.039 C 
ATOM      5  C   LIG    1       -1.593   1.451   2.276  0.00  0.00    -0.009 C 
ATOM      6  C   LIG    1       -1.919   2.391   1.109  0.00  0.00    -0.005 C 
ATOM      7  C   LIG    1       -0.568   3.054   0.872  0.00  0.00    +0.004 C 
ATOM      8  C   LIG    1        0.402   1.953   0.640  0.00  0.00    +0.070 C 
ATOM      9  N   LIG    1       -0.219   0.629   0.444  0.00  0.00    +0.404 N 
ATOM     10  C   LIG    1       -1.123   0.771  -0.648  0.00  0.00    -0.054 C 
ATOM     11  N   LIG    1       -1.828  -2.129   1.437  0.00  0.00    -0.330 N 
ATOM     12  C   LIG    1       -0.704  -2.907   1.890  0.00  0.00    +0.129 C 
ATOM     13  C   LIG    1       -3.018  -2.703   0.890  0.00  0.00    +0.034 A 
ATOM     14  C   LIG    1       -3.638  -3.949   0.992  0.00  0.00    +0.023 A 
ATOM     15  C   LIG    1       -4.819  -4.256   0.353  0.00  0.00    +0.002 A 
ATOM     16  C   LIG    1       -5.431  -3.299  -0.426  0.00  0.00    +0.000 A 
ATOM     17  C   LIG    1       -4.843  -2.059  -0.545  0.00  0.00    +0.006 A 
ATOM     18  C   LIG    1       -3.659  -1.757   0.097  0.00  0.00    -0.016 A 
ATOM     19  C   LIG    1       -1.809  -0.524  -1.002  0.00  0.00    +0.001 C 
ATOM     20  C   LIG    1       -2.266   1.669  -0.149  0.00  0.00    +0.009 C 
ENDROOT
BRANCH   1  21
ATOM     21  O   LIG    1       -4.193   0.770  -1.206  0.00  0.00    -0.391 OA
ATOM     22  H   LIG    1       -4.011   1.618  -1.648  0.00  0.00    +0.210 HD
ENDBRANCH   1  21
BRANCH   8  23
ATOM     23  O   LIG    1        1.364   1.834   1.641  0.00  0.00    -0.409 OA
ATOM     24  H   LIG    1        1.998   2.615   1.562  0.00  0.00    +0.207 HD
ENDBRANCH   8  23
BRANCH   7  25
ATOM     25  C   LIG    1       -0.595   4.142  -0.127  0.00  0.00    +0.001 C 
ATOM     26  C   LIG    1       -1.550   5.218   0.348  0.00  0.00    +0.004 C 
ENDBRANCH   7  25
BRANCH   9  27
ATOM     27  C   LIG    1        0.875  -0.269   0.261  0.00  0.00    -0.038 C 
BRANCH  27  28
ATOM     28  C   LIG    1        1.986   0.204  -0.625  0.00  0.00    +0.113 C 
BRANCH  28  29
ATOM     29  O   LIG    1        1.581   0.484  -1.918  0.00  0.00    -0.392 OA
ATOM     30  H   LIG    1        1.229  -0.374  -2.304  0.00  0.00    +0.210 HD
ENDBRANCH  28  29
BRANCH  28  31
ATOM     31  C   LIG    1        2.947  -0.986  -0.724  0.00  0.00    +0.113 C 
BRANCH  31  32
ATOM     32  N   LIG    1        4.092  -0.705  -1.544  0.00  0.00    -0.300 NA
BRANCH  32  33
ATOM     33  C   LIG    1        4.967   0.264  -0.962  0.00  0.00    +0.081 C 
ATOM     34  C   LIG    1        6.128   0.463  -1.938  0.00  0.00    +0.020 C 
ENDBRANCH  32  33
BRANCH  32  35
ATOM     35  C   LIG    1        4.800  -1.956  -1.722  0.00  0.00    +0.081 C 
ATOM     36  C   LIG    1        5.426  -2.462  -0.453  0.00  0.00    +0.020 C 
ENDBRANCH  32  35
ENDBRANCH  31  32
ENDBRANCH  28  31
ENDBRANCH  27  28
ENDBRANCH   9  27
TORSDOF 10
