REMARK  Name = molecules/IXORWGHGSOABEO-AQZOCZKHSA-N.pdb
REMARK                            x       y       z     vdW  Elec       q    Type
REMARK                         _______ _______ _______ _____ _____    ______ ____
ROOT
ATOM      1  N   UNK A  1        6.882   6.423   0.000  0.00  0.00    -0.124 NA
ATOM      2  C   UNK A  1        7.719   5.178   0.000  0.00  0.00    +0.135 C 
ATOM      3  C   UNK A  1        9.210   5.008   0.000  0.00  0.00    +0.204 C 
ENDROOT
BRANCH   2   4
ATOM      4  C   UNK A  1        6.238   4.940   0.000  0.00  0.00    +0.070 C 
ATOM      5  S   UNK A  1        4.876   4.311   0.000  0.00  0.00    -0.128 S 
ATOM      6  S   UNK A  1        3.735   3.338   0.000  0.00  0.00    -0.023 S 
ATOM      7  H   UNK A  1        4.987   5.766   0.000  0.00  0.00    +0.108 HD
ENDBRANCH   2   4
BRANCH   3   8
ATOM      8  O   UNK A  1        9.581   6.461   0.000  0.00  0.00    -0.494 OA
ATOM      9  H   UNK A  1        8.499   6.460   0.000  0.00  0.00    +0.294 HD
ENDBRANCH   3   8
BRANCH   3  10
ATOM     10  N   GLY A  2       10.599   4.441   0.000  0.00  0.00    -0.301 N 
ATOM     11  H   GLY A  2       10.879   5.823   0.000  0.00  0.00    +0.150 HD
BRANCH  10  12
ATOM     12  CA  GLY A  2       11.783   3.522   0.000  0.00  0.00    +0.118 C 
BRANCH  12  13
ATOM     13  C   GLY A  2       12.122   4.983   0.000  0.00  0.00    +0.218 C 
ATOM     14  O   GLY A  2       12.460   6.444   0.000  0.00  0.00    -0.226 OA
ENDBRANCH  12  13
ENDBRANCH  10  12
ENDBRANCH   3  10
TORSDOF 5
REMARK  Name = molecules/IXORWGHGSOABEO-AQZOCZKHSA-N.pdb
REMARK                            x       y       z     vdW  Elec       q    Type
REMARK                         _______ _______ _______ _____ _____    ______ ____
ROOT
ATOM      1  N   LIG    1       13.210   0.914   0.000  0.00  0.00    -0.246 NA
ATOM      2  H   LIG    1       14.411   1.652   0.000  0.00  0.00    +0.141 HD
ENDROOT
BRANCH   1   3
ATOM      3  C   LIG    1       13.347  -0.579   0.000  0.00  0.00    +0.080 C 
ATOM      4  C   LIG    1       13.075  -2.054   0.000  0.00  0.00    +0.025 C 
ENDBRANCH   1   3
TORSDOF 1
REMARK  Name = molecules/IXORWGHGSOABEO-AQZOCZKHSA-N.pdb
REMARK                            x       y       z     vdW  Elec       q    Type
REMARK                         _______ _______ _______ _____ _____    ______ ____
ROOT
ATOM      1  N   LIG    1       12.416  -3.402   0.000  0.00  0.00    -0.163 NA
ATOM      2  H   LIG    1       13.623  -3.672   0.000  0.00  0.00    +0.163 HD
ENDROOT
TORSDOF 0
REMARK  Name = molecules/IXORWGHGSOABEO-AQZOCZKHSA-N.pdb
REMARK                            x       y       z     vdW  Elec       q    Type
REMARK                         _______ _______ _______ _____ _____    ______ ____
ROOT
ATOM      1  N   LIG    1        8.719  -5.767   0.000  0.00  0.00    -0.297 NA
ATOM      2  H   LIG    1        9.373  -7.015   0.000  0.00  0.00    +0.123 HD
ENDROOT
BRANCH   1   3
ATOM      3  C   LIG    1       10.153  -5.329   0.000  0.00  0.00    +0.069 C 
ATOM      4  C   LIG    1       11.417  -4.521   0.000  0.00  0.00    +0.019 C 
ENDBRANCH   1   3
BRANCH   1   5
ATOM      5  C   LIG    1        7.219  -5.801   0.000  0.00  0.00    +0.069 C 
ATOM      6  C   LIG    1        5.766  -5.429   0.000  0.00  0.00    +0.019 C 
ENDBRANCH   1   5
TORSDOF 2
REMARK  Name = molecules/IXORWGHGSOABEO-AQZOCZKHSA-N.pdb
REMARK                            x       y       z     vdW  Elec       q    Type
REMARK                         _______ _______ _______ _____ _____    ______ ____
ROOT
ATOM      1  N   LIG    1        4.467  -4.679   0.000  0.00  0.00    -0.246 NA
ATOM      2  H   LIG    1        4.001  -6.009   0.000  0.00  0.00    +0.141 HD
ENDROOT
BRANCH   1   3
ATOM      3  C   LIG    1        3.418  -3.607   0.000  0.00  0.00    +0.076 C 
ATOM      4  C   LIG    1        2.884  -5.008   0.000  0.00  0.00    +0.029 C 
ENDBRANCH   1   3
TORSDOF 1
REMARK  Name = molecules/IXORWGHGSOABEO-AQZOCZKHSA-N.pdb
REMARK                            x       y       z     vdW  Elec       q    Type
REMARK                         _______ _______ _______ _____ _____    ______ ____
ROOT
ATOM      1  N   LIG    1        2.360  -0.830   0.000  0.00  0.00    -0.245 NA
ATOM      2  H   LIG    1        2.896   0.468   0.000  0.00  0.00    +0.141 HD
ENDROOT
BRANCH   1   3
ATOM      3  C   LIG    1        1.411   0.255   0.000  0.00  0.00    +0.084 C 
ATOM      4  C   LIG    1        2.428   0.669   0.000  0.00  0.00    +0.020 C 
ENDBRANCH   1   3
TORSDOF 1
REMARK  Name = molecules/IXORWGHGSOABEO-AQZOCZKHSA-N.pdb
REMARK                            x       y       z     vdW  Elec       q    Type
REMARK                         _______ _______ _______ _____ _____    ______ ____
ROOT
ATOM      1  C   LIG    1        0.022  -0.312   0.000  0.00  0.00    +0.177 C 
ATOM      2  C   LIG    1        1.039   0.103   0.000  0.00  0.00    +0.187 C 
ATOM      3  O   LIG    1        0.309   0.425   0.000  0.00  0.00    -0.337 OA
ATOM      4  C   LIG    1       -1.121  -0.560   0.000  0.00  0.00    +0.050 C 
ENDROOT
BRANCH   1   5
ATOM      5  N   LIG    1        0.834  -1.383   0.000  0.00  0.00    -0.221 NA
ATOM      6  H   LIG    1        1.624  -1.230   0.000  0.00  0.00    +0.144 HD
ENDBRANCH   1   5
TORSDOF 1
REMARK  Name = molecules/IXORWGHGSOABEO-AQZOCZKHSA-N.pdb
REMARK                            x       y       z     vdW  Elec       q    Type
REMARK                         _______ _______ _______ _____ _____    ______ ____
ROOT
ATOM      1  N   LIG    1       -2.607  -0.356   0.000  0.00  0.00    -0.163 NA
ATOM      2  H   LIG    1       -1.962  -0.694   0.000  0.00  0.00    +0.163 HD
ENDROOT
TORSDOF 0
REMARK  Name = molecules/IXORWGHGSOABEO-AQZOCZKHSA-N.pdb
REMARK                            x       y       z     vdW  Elec       q    Type
REMARK                         _______ _______ _______ _____ _____    ______ ____
ROOT
ATOM      1  N   LIG    1       -1.580   3.085   0.000  0.00  0.00    -0.163 NA
ATOM      2  H   LIG    1       -1.204   3.599   0.000  0.00  0.00    +0.163 HD
ENDROOT
TORSDOF 0
REMARK  Name = molecules/IXORWGHGSOABEO-AQZOCZKHSA-N.pdb
REMARK                            x       y       z     vdW  Elec       q    Type
REMARK                         _______ _______ _______ _____ _____    ______ ____
ROOT
ATOM      1  N   LIG    1       -0.544   1.077   0.000  0.00  0.00    +0.134 NA
ATOM      2  O   LIG    1       -0.059   0.274   0.000  0.00  0.00    -0.067 OA
ATOM      3  O   LIG    1       -0.857   0.420   0.000  0.00  0.00    -0.067 OA
ENDROOT
TORSDOF 0
REMARK  Name = molecules/IXORWGHGSOABEO-AQZOCZKHSA-N.pdb
REMARK                            x       y       z     vdW  Elec       q    Type
REMARK                         _______ _______ _______ _____ _____    ______ ____
ROOT
ATOM      1  C   LIG    1       -1.367  -0.878   0.000  0.00  0.00    +0.189 C 
ENDROOT
BRANCH   1   2
ATOM      2  C   LIG    1       -0.555  -1.949   0.000  0.00  0.00    +0.143 C 
BRANCH   2   3
ATOM      3  N   LIG    1       -1.571  -2.364   0.000  0.00  0.00    -0.253 NA
ATOM      4  H   LIG    1       -1.515  -3.101   0.000  0.00  0.00    +0.141 HD
ENDBRANCH   2   3
ENDBRANCH   1   2
BRANCH   1   5
ATOM      5  O   LIG    1       -2.469  -0.477   0.000  0.00  0.00    -0.223 OA
BRANCH   5   6
ATOM      6  O   LIG    1       -3.126  -0.439   0.000  0.00  0.00    -0.249 OA
ATOM      7  H   LIG    1       -4.080  -0.727   0.000  0.00  0.00    +0.253 HD
ENDBRANCH   5   6
ENDBRANCH   1   5
TORSDOF 4
REMARK  Name = molecules/IXORWGHGSOABEO-AQZOCZKHSA-N.pdb
REMARK                            x       y       z     vdW  Elec       q    Type
REMARK                         _______ _______ _______ _____ _____    ______ ____
ROOT
ATOM      1  N   LIG    1       -5.013  -1.337   0.000  0.00  0.00    -0.273 NA
ATOM      2  H   LIG    1       -5.707  -1.327   0.000  0.00  0.00    +0.137 HD
ATOM      3  H   LIG    1       -4.349  -1.018   0.000  0.00  0.00    +0.137 HD
ENDROOT
TORSDOF 0
REMARK  Name = molecules/IXORWGHGSOABEO-AQZOCZKHSA-N.pdb
REMARK                            x       y       z     vdW  Elec       q    Type
REMARK                         _______ _______ _______ _____ _____    ______ ____
ROOT
ATOM      1  N   LIG    1       -3.986   2.105   0.000  0.00  0.00    -0.273 NA
ATOM      2  H   LIG    1       -3.225   1.653   0.000  0.00  0.00    +0.137 HD
ATOM      3  H   LIG    1       -4.775   1.952   0.000  0.00  0.00    +0.137 HD
ENDROOT
TORSDOF 0
REMARK  Name = molecules/IXORWGHGSOABEO-AQZOCZKHSA-N.pdb
REMARK                            x       y       z     vdW  Elec       q    Type
REMARK                         _______ _______ _______ _____ _____    ______ ____
ROOT
ATOM      1  N   LIG    1       -2.764   4.005   0.000  0.00  0.00    -0.273 NA
ATOM      2  H   LIG    1       -3.066   3.289   0.000  0.00  0.00    +0.137 HD
ATOM      3  H   LIG    1       -2.194   4.454   0.000  0.00  0.00    +0.137 HD
ENDROOT
TORSDOF 0
REMARK  Name = molecules/IXORWGHGSOABEO-AQZOCZKHSA-N.pdb
REMARK                            x       y       z     vdW  Elec       q    Type
REMARK                         _______ _______ _______ _____ _____    ______ ____
ROOT
ATOM      1  C   LIG    1       -3.090   9.701   0.000  0.00  0.00    +0.024 C 
ENDROOT
BRANCH   1   2
ATOM      2  C   LIG    1       -2.170  10.885   0.000  0.00  0.00    -0.016 C 
ATOM      3  C   LIG    1       -1.250  12.070   0.000  0.00  0.00    +0.007 C 
ATOM      4  C   LIG    1       -3.355  11.805   0.000  0.00  0.00    +0.007 C 
ENDBRANCH   1   2
BRANCH   1   5
ATOM      5  C   LIG    1       -4.010   8.516   0.000  0.00  0.00    +0.088 C 
BRANCH   5   6
ATOM      6  N   LIG    1       -2.825   7.596   0.000  0.00  0.00    -0.252 NA
ATOM      7  H   LIG    1       -2.315   7.000   0.000  0.00  0.00    +0.141 HD
ENDBRANCH   5   6
ENDBRANCH   1   5
TORSDOF 3
REMARK  Name = molecules/IXORWGHGSOABEO-AQZOCZKHSA-N.pdb
REMARK                            x       y       z     vdW  Elec       q    Type
REMARK                         _______ _______ _______ _____ _____    ______ ____
ROOT
ATOM      1  N   LIG    1       -6.416   7.535   0.000  0.00  0.00    +0.000 NA
ENDROOT
TORSDOF 0
REMARK  Name = molecules/IXORWGHGSOABEO-AQZOCZKHSA-N.pdb
REMARK                            x       y       z     vdW  Elec       q    Type
REMARK                         _______ _______ _______ _____ _____    ______ ____
ROOT
ATOM      1  N   LIG    1       -6.355   3.945   0.000  0.00  0.00    -0.139 NA
ATOM      2  C   LIG    1       -5.490   4.731   0.000  0.00  0.00    +0.105 C 
ATOM      3  C   LIG    1       -6.151   5.431   0.000  0.00  0.00    +0.020 C 
ENDROOT
BRANCH   2   4
ATOM      4  C   LIG    1       -4.250   4.209   0.000  0.00  0.00    +0.013 C 
ATOM      5  C   LIG    1       -4.924   3.342   0.000  0.00  0.00    +0.001 C 
ENDBRANCH   2   4
TORSDOF 1
REMARK  Name = molecules/IXORWGHGSOABEO-AQZOCZKHSA-N.pdb
REMARK                            x       y       z     vdW  Elec       q    Type
REMARK                         _______ _______ _______ _____ _____    ______ ____
ROOT
ATOM      1  N   LIG    1       -5.524   0.451   0.000  0.00  0.00    -0.217 NA
ATOM      2  H   LIG    1       -5.792   1.537   0.000  0.00  0.00    +0.181 HD
ENDROOT
BRANCH   1   3
ATOM      3  C   LIG    1       -5.951  -0.099   0.000  0.00  0.00    +0.028 C 
ATOM      4  C   LIG    1       -6.444  -0.734   0.000  0.00  0.00    +0.008 C 
ENDBRANCH   1   3
TORSDOF 1
REMARK  Name = molecules/IXORWGHGSOABEO-AQZOCZKHSA-N.pdb
REMARK                            x       y       z     vdW  Elec       q    Type
REMARK                         _______ _______ _______ _____ _____    ______ ____
ROOT
ATOM      1  N   LIG    1       -9.018  -0.380   0.000  0.00  0.00    +0.000 NA
ENDROOT
TORSDOF 0
REMARK  Name = molecules/IXORWGHGSOABEO-AQZOCZKHSA-N.pdb
REMARK                            x       y       z     vdW  Elec       q    Type
REMARK                         _______ _______ _______ _____ _____    ______ ____
ROOT
ATOM      1  N   LIG    1       -9.849   3.113   0.000  0.00  0.00    -0.163 NA
ATOM      2  H   LIG    1      -11.058   3.125   0.000  0.00  0.00    +0.163 HD
ENDROOT
TORSDOF 0
REMARK  Name = molecules/IXORWGHGSOABEO-AQZOCZKHSA-N.pdb
REMARK                            x       y       z     vdW  Elec       q    Type
REMARK                         _______ _______ _______ _____ _____    ______ ____
ROOT
ATOM      1  N   LIG    1       -7.949   1.892   0.000  0.00  0.00    -0.273 NA
ATOM      2  H   LIG    1       -8.382   1.261   0.000  0.00  0.00    +0.137 HD
ATOM      3  H   LIG    1       -7.544   2.384   0.000  0.00  0.00    +0.137 HD
ENDROOT
TORSDOF 0
REMARK  Name = molecules/IXORWGHGSOABEO-AQZOCZKHSA-N.pdb
REMARK                            x       y       z     vdW  Elec       q    Type
REMARK                         _______ _______ _______ _____ _____    ______ ____
ROOT
ATOM      1  N   LIG    1       -7.117  -1.601   0.000  0.00  0.00    -0.163 NA
ATOM      2  H   LIG    1       -6.518  -2.232   0.000  0.00  0.00    +0.163 HD
ENDROOT
TORSDOF 0
REMARK  Name = molecules/IXORWGHGSOABEO-AQZOCZKHSA-N.pdb
REMARK                            x       y       z     vdW  Elec       q    Type
REMARK                         _______ _______ _______ _____ _____    ______ ____
ROOT
ATOM      1  N   LIG    1      -10.611  -2.433   0.000  0.00  0.00    -0.140 NA
ATOM      2  N   LIG    1       -9.770  -2.900   0.000  0.00  0.00    -0.024 NA
ATOM      3  H   LIG    1      -11.178  -3.417   0.000  0.00  0.00    +0.165 HD
ENDROOT
TORSDOF 0
REMARK  Name = molecules/IXORWGHGSOABEO-AQZOCZKHSA-N.pdb
REMARK                            x       y       z     vdW  Elec       q    Type
REMARK                         _______ _______ _______ _____ _____    ______ ____
ROOT
ATOM      1  N   LIG    1      -12.777   0.893   0.000  0.00  0.00    -0.163 NA
ATOM      2  H   LIG    1      -12.307   0.275   0.000  0.00  0.00    +0.163 HD
ENDROOT
TORSDOF 0
REMARK  Name = molecules/IXORWGHGSOABEO-AQZOCZKHSA-N.pdb
REMARK                            x       y       z     vdW  Elec       q    Type
REMARK                         _______ _______ _______ _____ _____    ______ ____
ROOT
ATOM      1  N   LIG    1      -16.367   0.833   0.000  0.00  0.00    -0.163 NA
ATOM      2  H   LIG    1      -16.879  -0.088   0.000  0.00  0.00    +0.163 HD
ENDROOT
TORSDOF 0
REMARK  Name = molecules/IXORWGHGSOABEO-AQZOCZKHSA-N.pdb
REMARK                            x       y       z     vdW  Elec       q    Type
REMARK                         _______ _______ _______ _____ _____    ______ ____
ROOT
ATOM      1  N   LIG    1      -19.693  -1.333   0.000  0.00  0.00    -0.301 NA
ATOM      2  H   LIG    1      -20.491  -1.998   0.000  0.00  0.00    +0.123 HD
ATOM      3  C   LIG    1      -19.558  -0.579   0.000  0.00  0.00    +0.091 C 
ENDROOT
BRANCH   1   4
ATOM      4  C   LIG    1      -18.991  -1.968   0.000  0.00  0.00    +0.068 C 
ATOM      5  C   LIG    1      -18.207  -1.537   0.000  0.00  0.00    +0.018 C 
ENDBRANCH   1   4
TORSDOF 1
REMARK  Name = molecules/IXORWGHGSOABEO-AQZOCZKHSA-N.pdb
REMARK                            x       y       z     vdW  Elec       q    Type
REMARK                         _______ _______ _______ _____ _____    ______ ____
ROOT
ATOM      1  N   LIG    1      -19.633  -4.923   0.000  0.00  0.00    -0.171 NA
ATOM      2  C   LIG    1      -20.278  -5.883   0.000  0.00  0.00    +0.088 C 
ENDROOT
BRANCH   1   3
ATOM      3  N   LIG    1      -19.814  -3.923   0.000  0.00  0.00    -0.172 NA
ATOM      4  H   LIG    1      -20.796  -4.475   0.000  0.00  0.00    +0.194 HD
ENDBRANCH   1   3
BRANCH   2   5
ATOM      5  C   LIG    1      -21.408  -5.975   0.000  0.00  0.00    +0.059 C 
ATOM      6  C   LIG    1      -20.787  -7.294   0.000  0.00  0.00    +0.002 C 
ENDBRANCH   2   5
TORSDOF 2
REMARK  Name = molecules/IXORWGHGSOABEO-AQZOCZKHSA-N.pdb
REMARK                            x       y       z     vdW  Elec       q    Type
REMARK                         _______ _______ _______ _____ _____    ______ ____
ROOT
ATOM      1  N   LIG    1      -17.467  -8.249   0.000  0.00  0.00    +0.000 NA
ENDROOT
TORSDOF 0
REMARK  Name = molecules/IXORWGHGSOABEO-AQZOCZKHSA-N.pdb
REMARK                            x       y       z     vdW  Elec       q    Type
REMARK                         _______ _______ _______ _____ _____    ______ ____
ROOT
ATOM      1  N   LIG    1      -20.841  -7.364   0.000  0.00  0.00    -0.163 NA
ATOM      2  H   LIG    1      -21.417  -8.655   0.000  0.00  0.00    +0.163 HD
ENDROOT
TORSDOF 0
REMARK  Name = molecules/IXORWGHGSOABEO-AQZOCZKHSA-N.pdb
REMARK                            x       y       z     vdW  Elec       q    Type
REMARK                         _______ _______ _______ _____ _____    ______ ____
ROOT
ATOM      1  N   LIG    1      -18.779  -5.931   0.000  0.00  0.00    +0.042 NA
ATOM      2  O   LIG    1      -19.404  -6.778   0.000  0.00  0.00    -0.246 OA
ATOM      3  C   LIG    1      -18.361  -7.371   0.000  0.00  0.00    +0.204 C 
ENDROOT
TORSDOF 0
REMARK  Name = molecules/IXORWGHGSOABEO-AQZOCZKHSA-N.pdb
REMARK                            x       y       z     vdW  Elec       q    Type
REMARK                         _______ _______ _______ _____ _____    ______ ____
ROOT
ATOM      1  N   LIG    1      -18.444  -9.968   0.000  0.00  0.00    -0.224 NA
ATOM      2  C   LIG    1      -18.789  -8.957   0.000  0.00  0.00    +0.105 C 
ATOM      3  C   LIG    1      -17.653  -8.694   0.000  0.00  0.00    +0.079 C 
ENDROOT
BRANCH   2   4
ATOM      4  C   LIG    1      -19.602  -8.214   0.000  0.00  0.00    +0.009 C 
ATOM      5  C   LIG    1      -19.355  -7.569   0.000  0.00  0.00    +0.006 C 
ENDBRANCH   2   4
BRANCH   3   6
ATOM      6  C   LIG    1      -16.385  -9.288   0.000  0.00  0.00    +0.023 C 
ATOM      7  C   LIG    1      -17.038 -10.638   0.000  0.00  0.00    +0.002 C 
ENDBRANCH   3   6
TORSDOF 2
REMARK  Name = molecules/IXORWGHGSOABEO-AQZOCZKHSA-N.pdb
REMARK                            x       y       z     vdW  Elec       q    Type
REMARK                         _______ _______ _______ _____ _____    ______ ____
ROOT
ATOM      1  C   LIG    1       12.676   2.316   0.000  0.00  0.00    +0.000 C 
ENDROOT
TORSDOF 0
REMARK  Name = molecules/IXORWGHGSOABEO-AQZOCZKHSA-N.pdb
REMARK                            x       y       z     vdW  Elec       q    Type
REMARK                         _______ _______ _______ _____ _____    ______ ____
ROOT
ATOM      1  O   HOH    1       13.992   3.036   0.000  0.00  0.00    -0.253 OA
ATOM      2  H   HOH    0       13.278   3.645   0.000  0.00  0.00    +0.253 HD
ENDROOT
TORSDOF 0
REMARK  Name = molecules/IXORWGHGSOABEO-AQZOCZKHSA-N.pdb
REMARK                            x       y       z     vdW  Elec       q    Type
REMARK                         _______ _______ _______ _____ _____    ______ ____
ROOT
ATOM      1  C   LIG    1       14.646   0.171   0.000  0.00  0.00    +0.000 C 
ENDROOT
TORSDOF 0
REMARK  Name = molecules/IXORWGHGSOABEO-AQZOCZKHSA-N.pdb
REMARK                            x       y       z     vdW  Elec       q    Type
REMARK                         _______ _______ _______ _____ _____    ______ ____
ROOT
ATOM      1  C   LIG    1       15.945   0.921   0.000  0.00  0.00    +0.290 C 
ATOM      2  O   LIG    1       15.945   2.421   0.000  0.00  0.00    -0.198 OA
ATOM      3  N   LIG    1       17.244   0.171   0.000  0.00  0.00    -0.093 NA
ENDROOT
TORSDOF 0
REMARK  Name = molecules/IXORWGHGSOABEO-AQZOCZKHSA-N.pdb
REMARK                            x       y       z     vdW  Elec       q    Type
REMARK                         _______ _______ _______ _____ _____    ______ ____
ROOT
ATOM      1  O   HOH    1       14.546  -2.347   0.000  0.00  0.00    -0.410 OA
ATOM      2  H   HOH    0       14.458  -1.587   0.000  0.00  0.00    +0.205 HD
ATOM      3  H   HOH    0       15.333  -2.590   0.000  0.00  0.00    +0.205 HD
ENDROOT
TORSDOF 0
REMARK  Name = molecules/IXORWGHGSOABEO-AQZOCZKHSA-N.pdb
REMARK                            x       y       z     vdW  Elec       q    Type
REMARK                         _______ _______ _______ _____ _____    ______ ____
ROOT
ATOM      1  C   LIG    1       15.721  -5.833   0.000  0.00  0.00    +0.008 C 
ATOM      2  C   LIG    1       14.287  -5.396   0.000  0.00  0.00    -0.008 C 
ENDROOT
TORSDOF 0
REMARK  Name = molecules/IXORWGHGSOABEO-AQZOCZKHSA-N.pdb
REMARK                            x       y       z     vdW  Elec       q    Type
REMARK                         _______ _______ _______ _____ _____    ______ ____
ROOT
ATOM      1  C   LIG    1       12.852  -4.958   0.000  0.00  0.00    +0.000 C 
ENDROOT
TORSDOF 0
REMARK  Name = molecules/IXORWGHGSOABEO-AQZOCZKHSA-N.pdb
REMARK                            x       y       z     vdW  Elec       q    Type
REMARK                         _______ _______ _______ _____ _____    ______ ____
ROOT
ATOM      1  C   LIG    1       14.724  -3.961   0.000  0.00  0.00    +0.000 C 
ENDROOT
TORSDOF 0
REMARK  Name = molecules/IXORWGHGSOABEO-AQZOCZKHSA-N.pdb
REMARK                            x       y       z     vdW  Elec       q    Type
REMARK                         _______ _______ _______ _____ _____    ______ ____
ROOT
ATOM      1  O   HOH    1       10.782  -6.691   0.000  0.00  0.00    -0.253 OA
ATOM      2  H   HOH    0       11.439  -6.021   0.000  0.00  0.00    +0.253 HD
ENDROOT
TORSDOF 0
REMARK  Name = molecules/IXORWGHGSOABEO-AQZOCZKHSA-N.pdb
REMARK                            x       y       z     vdW  Elec       q    Type
REMARK                         _______ _______ _______ _____ _____    ______ ____
ROOT
ATOM      1  C   LIG    1        7.879  -7.148   0.000  0.00  0.00    +0.225 C 
ATOM      2  O   LIG    1        8.538  -8.495   0.000  0.00  0.00    -0.225 OA
ENDROOT
TORSDOF 0
REMARK  Name = molecules/IXORWGHGSOABEO-AQZOCZKHSA-N.pdb
REMARK                            x       y       z     vdW  Elec       q    Type
REMARK                         _______ _______ _______ _____ _____    ______ ____
ROOT
ATOM      1  O   HOH    1        5.200  -6.818   0.000  0.00  0.00    -0.253 OA
ATOM      2  H   HOH    0        6.138  -6.840   0.000  0.00  0.00    +0.253 HD
ENDROOT
TORSDOF 0
REMARK  Name = molecules/IXORWGHGSOABEO-AQZOCZKHSA-N.pdb
REMARK                            x       y       z     vdW  Elec       q    Type
REMARK                         _______ _______ _______ _____ _____    ______ ____
ROOT
ATOM      1  C   LIG    1        2.698  -2.291   0.000  0.00  0.00    +0.000 C 
ENDROOT
TORSDOF 0
REMARK  Name = molecules/IXORWGHGSOABEO-AQZOCZKHSA-N.pdb
REMARK                            x       y       z     vdW  Elec       q    Type
REMARK                         _______ _______ _______ _____ _____    ______ ____
ROOT
ATOM      1  O   HOH    1        1.482  -4.474   0.000  0.00  0.00    -0.410 OA
ATOM      2  H   HOH    0        0.869  -4.768   0.000  0.00  0.00    +0.205 HD
ATOM      3  H   HOH    0        1.671  -3.701   0.000  0.00  0.00    +0.205 HD
ENDROOT
TORSDOF 0
REMARK  Name = molecules/IXORWGHGSOABEO-AQZOCZKHSA-N.pdb
REMARK                            x       y       z     vdW  Elec       q    Type
REMARK                         _______ _______ _______ _____ _____    ______ ____
ROOT
ATOM      1  C   LIG    1        2.349  -6.410   0.000  0.00  0.00    +0.005 C 
ATOM      2  C   LIG    1        1.144  -6.117   0.000  0.00  0.00    -0.005 C 
ENDROOT
TORSDOF 0
REMARK  Name = molecules/IXORWGHGSOABEO-AQZOCZKHSA-N.pdb
REMARK                            x       y       z     vdW  Elec       q    Type
REMARK                         _______ _______ _______ _____ _____    ______ ____
ROOT
ATOM      1  O   HOH    1        1.296  -2.825   0.000  0.00  0.00    -0.253 OA
ATOM      2  H   HOH    0        1.984  -3.166   0.000  0.00  0.00    +0.253 HD
ENDROOT
TORSDOF 0
REMARK  Name = molecules/IXORWGHGSOABEO-AQZOCZKHSA-N.pdb
REMARK                            x       y       z     vdW  Elec       q    Type
REMARK                         _______ _______ _______ _____ _____    ______ ____
ROOT
ATOM      1  C   LIG    1        2.898   2.093   0.000  0.00  0.00    +0.000 C 
ENDROOT
TORSDOF 0
REMARK  Name = molecules/IXORWGHGSOABEO-AQZOCZKHSA-N.pdb
REMARK                            x       y       z     vdW  Elec       q    Type
REMARK                         _______ _______ _______ _____ _____    ______ ____
ROOT
ATOM      1  C   LIG    1        0.011  -3.338   0.000  0.00  0.00    +0.000 C 
ENDROOT
TORSDOF 0
REMARK  Name = molecules/IXORWGHGSOABEO-AQZOCZKHSA-N.pdb
REMARK                            x       y       z     vdW  Elec       q    Type
REMARK                         _______ _______ _______ _____ _____    ______ ____
ROOT
ATOM      1  C   LIG    1       -1.828  -5.708   0.000  0.00  0.00    +0.035 C 
ENDROOT
BRANCH   1   2
ATOM      2  C   LIG    1       -0.811  -5.294   0.000  0.00  0.00    -0.014 C 
ATOM      3  C   LIG    1       -0.342  -5.912   0.000  0.00  0.00    -0.004 C 
ENDBRANCH   1   2
BRANCH   1   4
ATOM      4  C   LIG    1       -1.705  -4.414   0.000  0.00  0.00    -0.005 C 
ATOM      5  C   LIG    1       -2.394  -4.319   0.000  0.00  0.00    -0.013 C 
ENDBRANCH   1   4
TORSDOF 2
REMARK  Name = molecules/IXORWGHGSOABEO-AQZOCZKHSA-N.pdb
REMARK                            x       y       z     vdW  Elec       q    Type
REMARK                         _______ _______ _______ _____ _____    ______ ____
ROOT
ATOM      1  C   LIG    1        0.578  -4.727   0.000  0.00  0.00    +0.225 C 
ATOM      2  O   LIG    1       -0.520  -5.334   0.000  0.00  0.00    -0.225 OA
ENDROOT
TORSDOF 0
REMARK  Name = molecules/IXORWGHGSOABEO-AQZOCZKHSA-N.pdb
REMARK                            x       y       z     vdW  Elec       q    Type
REMARK                         _______ _______ _______ _____ _____    ______ ____
ROOT
ATOM      1  C   LIG    1       -1.784   1.599   0.000  0.00  0.00    -0.000 C 
ENDROOT
TORSDOF 0
REMARK  Name = molecules/IXORWGHGSOABEO-AQZOCZKHSA-N.pdb
REMARK                            x       y       z     vdW  Elec       q    Type
REMARK                         _______ _______ _______ _____ _____    ______ ____
ROOT
ATOM      1  C   LIG    1       -7.340  -0.665   0.000  0.00  0.00    +0.000 C 
ENDROOT
TORSDOF 0
REMARK  Name = molecules/IXORWGHGSOABEO-AQZOCZKHSA-N.pdb
REMARK                            x       y       z     vdW  Elec       q    Type
REMARK                         _______ _______ _______ _____ _____    ______ ____
ROOT
ATOM      1  C   LIG    1       -4.562   0.467   0.000  0.00  0.00    -0.000 C 
ENDROOT
TORSDOF 0
REMARK  Name = molecules/IXORWGHGSOABEO-AQZOCZKHSA-N.pdb
REMARK                            x       y       z     vdW  Elec       q    Type
REMARK                         _______ _______ _______ _____ _____    ______ ____
ROOT
ATOM      1  C   LIG    1       -3.173   1.033   0.000  0.00  0.00    +0.000 C 
ATOM      2  C   LIG    1       -4.190   0.619   0.000  0.00  0.00    +0.000 C 
ENDROOT
TORSDOF 0
REMARK  Name = molecules/IXORWGHGSOABEO-AQZOCZKHSA-N.pdb
REMARK                            x       y       z     vdW  Elec       q    Type
REMARK                         _______ _______ _______ _____ _____    ______ ____
ROOT
ATOM      1  C   LIG    1       -6.517   1.290   0.000  0.00  0.00    -0.010 C 
ATOM      2  C   LIG    1       -6.090   1.840   0.000  0.00  0.00    +0.010 C 
ENDROOT
TORSDOF 0
REMARK  Name = molecules/IXORWGHGSOABEO-AQZOCZKHSA-N.pdb
REMARK                            x       y       z     vdW  Elec       q    Type
REMARK                         _______ _______ _______ _____ _____    ______ ____
ROOT
ATOM      1  C   LIG    1        0.376   2.262   0.000  0.00  0.00    +0.000 C 
ENDROOT
TORSDOF 0
REMARK  Name = molecules/IXORWGHGSOABEO-AQZOCZKHSA-N.pdb
REMARK                            x       y       z     vdW  Elec       q    Type
REMARK                         _______ _______ _______ _____ _____    ______ ____
ROOT
ATOM      1  C   LIG    1       -0.757   5.040   0.000  0.00  0.00    +0.000 C 
ENDROOT
TORSDOF 0
REMARK  Name = molecules/IXORWGHGSOABEO-AQZOCZKHSA-N.pdb
REMARK                            x       y       z     vdW  Elec       q    Type
REMARK                         _______ _______ _______ _____ _____    ______ ____
ROOT
ATOM      1  O   HOH    1       -1.323   6.429   0.000  0.00  0.00    +0.000 OA
ENDROOT
TORSDOF 0
REMARK  Name = molecules/IXORWGHGSOABEO-AQZOCZKHSA-N.pdb
REMARK                            x       y       z     vdW  Elec       q    Type
REMARK                         _______ _______ _______ _____ _____    ______ ____
ROOT
ATOM      1  C   LIG    1       -0.191   3.651   0.000  0.00  0.00    +0.010 C 
ATOM      2  C   LIG    1        0.525   3.350   0.000  0.00  0.00    -0.010 C 
ENDROOT
TORSDOF 0
REMARK  Name = molecules/IXORWGHGSOABEO-AQZOCZKHSA-N.pdb
REMARK                            x       y       z     vdW  Elec       q    Type
REMARK                         _______ _______ _______ _____ _____    ______ ____
ROOT
ATOM      1  O   HOH    1        1.862   2.058   0.000  0.00  0.00    +0.000 OA
ENDROOT
TORSDOF 0
REMARK  Name = molecules/IXORWGHGSOABEO-AQZOCZKHSA-N.pdb
REMARK                            x       y       z     vdW  Elec       q    Type
REMARK                         _______ _______ _______ _____ _____    ______ ____
ROOT
ATOM      1  O   HOH    1       -2.655  -0.109   0.000  0.00  0.00    +0.000 OA
ENDROOT
TORSDOF 0
REMARK  Name = molecules/IXORWGHGSOABEO-AQZOCZKHSA-N.pdb
REMARK                            x       y       z     vdW  Elec       q    Type
REMARK                         _______ _______ _______ _____ _____    ______ ____
ROOT
ATOM      1  C   LIG    1       -3.527  -1.541   0.000  0.00  0.00    -0.000 C 
ATOM      2  C   LIG    1       -2.685  -2.008   0.000  0.00  0.00    -0.001 C 
ENDROOT
BRANCH   2   3
ATOM      3  C   LIG    1       -2.961  -2.930   0.000  0.00  0.00    -0.008 C 
ATOM      4  C   LIG    1       -4.074  -2.574   0.000  0.00  0.00    +0.009 C 
ENDBRANCH   2   3
TORSDOF 1
REMARK  Name = molecules/IXORWGHGSOABEO-AQZOCZKHSA-N.pdb
REMARK                            x       y       z     vdW  Elec       q    Type
REMARK                         _______ _______ _______ _____ _____    ______ ____
ROOT
ATOM      1  C   LIG    1        0.224  -7.301   0.000  0.00  0.00    -0.000 C 
ENDROOT
TORSDOF 0
REMARK  Name = molecules/IXORWGHGSOABEO-AQZOCZKHSA-N.pdb
REMARK                            x       y       z     vdW  Elec       q    Type
REMARK                         _______ _______ _______ _____ _____    ______ ____
ROOT
ATOM      1  C   LIG    1       -0.696  -8.486   0.000  0.00  0.00    +0.246 C 
ATOM      2  O   LIG    1       -0.130  -9.875   0.000  0.00  0.00    -0.297 OA
ATOM      3  C   LIG    1       -2.182  -8.282   0.000  0.00  0.00    +0.016 C 
ATOM      4  C   LIG    1       -2.748  -6.893   0.000  0.00  0.00    +0.034 C 
ENDROOT
TORSDOF 0
REMARK  Name = molecules/IXORWGHGSOABEO-AQZOCZKHSA-N.pdb
REMARK                            x       y       z     vdW  Elec       q    Type
REMARK                         _______ _______ _______ _____ _____    ______ ____
ROOT
ATOM      1  C   LIG    1       -6.968  -0.514   0.000  0.00  0.00    +0.000 C 
ENDROOT
TORSDOF 0
REMARK  Name = molecules/IXORWGHGSOABEO-AQZOCZKHSA-N.pdb
REMARK                            x       y       z     vdW  Elec       q    Type
REMARK                         _______ _______ _______ _____ _____    ______ ____
ROOT
ATOM      1  C   LIG    1       -7.629   0.186   0.000  0.00  0.00    +0.125 C 
ATOM      2  C   LIG    1       -7.010   0.655   0.000  0.00  0.00    +0.039 C 
ENDROOT
BRANCH   1   4
ATOM      3  C   LIG    1       -8.357  -1.080   0.000  0.00  0.00    +0.004 C 
ATOM      4  C   LIG    1       -7.930  -0.530   0.000  0.00  0.00    +0.046 C 
ENDBRANCH   1   4
BRANCH   1   5
ATOM      5  O   LIG    1       -8.067   0.846   0.000  0.00  0.00    -0.506 OA
ATOM      6  H   LIG    1       -8.492   0.295   0.000  0.00  0.00    +0.292 HD
ENDBRANCH   1   5
TORSDOF 2
REMARK  Name = molecules/IXORWGHGSOABEO-AQZOCZKHSA-N.pdb
REMARK                            x       y       z     vdW  Elec       q    Type
REMARK                         _______ _______ _______ _____ _____    ______ ____
ROOT
ATOM      1  C   LIG    1       -8.715  -2.536   0.000  0.00  0.00    -0.005 C 
ATOM      2  C   LIG    1       -8.037  -2.786   0.000  0.00  0.00    +0.005 C 
ENDROOT
TORSDOF 0
REMARK  Name = molecules/IXORWGHGSOABEO-AQZOCZKHSA-N.pdb
REMARK                            x       y       z     vdW  Elec       q    Type
REMARK                         _______ _______ _______ _____ _____    ______ ____
ROOT
ATOM      1  N   LIG    1      -10.211  -2.646   0.000  0.00  0.00    -0.163 NA
ATOM      2  H   LIG    1      -10.508  -2.014   0.000  0.00  0.00    +0.163 HD
ENDROOT
TORSDOF 0
REMARK  Name = molecules/IXORWGHGSOABEO-AQZOCZKHSA-N.pdb
REMARK                            x       y       z     vdW  Elec       q    Type
REMARK                         _______ _______ _______ _____ _____    ______ ____
ROOT
ATOM      1  C   LIG    1      -10.778  -1.256   0.000  0.00  0.00    +0.000 C 
ENDROOT
TORSDOF 0
REMARK  Name = molecules/IXORWGHGSOABEO-AQZOCZKHSA-N.pdb
REMARK                            x       y       z     vdW  Elec       q    Type
REMARK                         _______ _______ _______ _____ _____    ______ ____
ROOT
ATOM      1  C   LIG    1       -9.631  -0.289   0.000  0.00  0.00    +0.009 C 
ATOM      2  C   LIG    1      -10.203   0.539   0.000  0.00  0.00    +0.049 C 
ENDROOT
BRANCH   2   3
ATOM      3  C   LIG    1       -9.896   1.188   0.000  0.00  0.00    -0.068 C 
ATOM      4  C   LIG    1       -9.283   1.724   0.000  0.00  0.00    +0.009 C 
ENDBRANCH   2   3
TORSDOF 1
REMARK  Name = molecules/IXORWGHGSOABEO-AQZOCZKHSA-N.pdb
REMARK                            x       y       z     vdW  Elec       q    Type
REMARK                         _______ _______ _______ _____ _____    ______ ____
ROOT
ATOM      1  C   LIG    1      -11.307   1.696   0.000  0.00  0.00    -0.000 C 
ENDROOT
TORSDOF 0
REMARK  Name = molecules/IXORWGHGSOABEO-AQZOCZKHSA-N.pdb
REMARK                            x       y       z     vdW  Elec       q    Type
REMARK                         _______ _______ _______ _____ _____    ______ ____
ROOT
ATOM      1  C   LIG    1      -12.454   0.729   0.000  0.00  0.00    +0.000 C 
ENDROOT
TORSDOF 0
REMARK  Name = molecules/IXORWGHGSOABEO-AQZOCZKHSA-N.pdb
REMARK                            x       y       z     vdW  Elec       q    Type
REMARK                         _______ _______ _______ _____ _____    ______ ____
ROOT
ATOM      1  C   LIG    1      -12.189  -0.748   0.000  0.00  0.00    -0.048 C 
ATOM      2  C   LIG    1      -11.123  -0.645   0.000  0.00  0.00    +0.036 C 
ATOM      3  C   LIG    1      -12.981  -0.593   0.000  0.00  0.00    -0.009 C 
ATOM      4  C   LIG    1      -11.796  -1.513   0.000  0.00  0.00    +0.021 C 
ENDROOT
TORSDOF 0
REMARK  Name = molecules/IXORWGHGSOABEO-AQZOCZKHSA-N.pdb
REMARK                            x       y       z     vdW  Elec       q    Type
REMARK                         _______ _______ _______ _____ _____    ______ ____
ROOT
ATOM      1  C   LIG    1       -5.579   0.052   0.000  0.00  0.00    +0.000 C 
ENDROOT
TORSDOF 0
REMARK  Name = molecules/IXORWGHGSOABEO-AQZOCZKHSA-N.pdb
REMARK                            x       y       z     vdW  Elec       q    Type
REMARK                         _______ _______ _______ _____ _____    ______ ____
ROOT
ATOM      1  C   LIG    1       -4.250   4.209   0.000  0.00  0.00    +0.000 C 
ENDROOT
TORSDOF 0
REMARK  Name = molecules/IXORWGHGSOABEO-AQZOCZKHSA-N.pdb
REMARK                            x       y       z     vdW  Elec       q    Type
REMARK                         _______ _______ _______ _____ _____    ______ ____
ROOT
ATOM      1  C   LIG    1       -5.170   3.025   0.000  0.00  0.00    +0.000 C 
ENDROOT
TORSDOF 0
REMARK  Name = molecules/IXORWGHGSOABEO-AQZOCZKHSA-N.pdb
REMARK                            x       y       z     vdW  Elec       q    Type
REMARK                         _______ _______ _______ _____ _____    ______ ____
ROOT
ATOM      1  C   LIG    1       -8.850  -1.715   0.000  0.00  0.00    +0.000 C 
ENDROOT
TORSDOF 0
REMARK  Name = molecules/IXORWGHGSOABEO-AQZOCZKHSA-N.pdb
REMARK                            x       y       z     vdW  Elec       q    Type
REMARK                         _______ _______ _______ _____ _____    ______ ____
ROOT
ATOM      1  O   HOH    1       -4.464   5.694   0.000  0.00  0.00    +0.000 OA
ENDROOT
TORSDOF 0
REMARK  Name = molecules/IXORWGHGSOABEO-AQZOCZKHSA-N.pdb
REMARK                            x       y       z     vdW  Elec       q    Type
REMARK                         _______ _______ _______ _____ _____    ______ ____
ROOT
ATOM      1  C   LIG    1       -3.029   6.110   0.000  0.00  0.00    -0.007 C 
ATOM      2  C   LIG    1       -3.330   5.394   0.000  0.00  0.00    -0.020 C 
ATOM      3  C   LIG    1       -2.518   4.323   0.000  0.00  0.00    +0.034 C 
ENDROOT
BRANCH   2   4
ATOM      4  C   LIG    1       -4.570   5.916   0.000  0.00  0.00    +0.159 C 
BRANCH   4   5
ATOM      5  O   LIG    1       -3.897   6.783   0.000  0.00  0.00    -0.378 OA
ATOM      6  H   LIG    1       -4.783   7.401   0.000  0.00  0.00    +0.211 HD
ENDBRANCH   4   5
ENDBRANCH   2   4
TORSDOF 2
REMARK  Name = molecules/IXORWGHGSOABEO-AQZOCZKHSA-N.pdb
REMARK                            x       y       z     vdW  Elec       q    Type
REMARK                         _______ _______ _______ _____ _____    ______ ____
ROOT
ATOM      1  C   LIG    1       -0.660   4.270   0.000  0.00  0.00    +0.000 C 
ENDROOT
TORSDOF 0
REMARK  Name = molecules/IXORWGHGSOABEO-AQZOCZKHSA-N.pdb
REMARK                            x       y       z     vdW  Elec       q    Type
REMARK                         _______ _______ _______ _____ _____    ______ ____
ROOT
ATOM      1  O   HOH    1        1.914   3.916   0.000  0.00  0.00    -0.410 OA
ATOM      2  H   HOH    0        1.020   4.537   0.000  0.00  0.00    +0.205 HD
ATOM      3  H   HOH    0        2.452   3.526   0.000  0.00  0.00    +0.205 HD
ENDROOT
TORSDOF 0
REMARK  Name = molecules/IXORWGHGSOABEO-AQZOCZKHSA-N.pdb
REMARK                            x       y       z     vdW  Elec       q    Type
REMARK                         _______ _______ _______ _____ _____    ______ ____
ROOT
ATOM      1  O   HOH    1        0.867   1.890   0.000  0.00  0.00    +0.000 OA
ENDROOT
TORSDOF 0
REMARK  Name = molecules/IXORWGHGSOABEO-AQZOCZKHSA-N.pdb
REMARK                            x       y       z     vdW  Elec       q    Type
REMARK                         _______ _______ _______ _____ _____    ______ ____
ROOT
ATOM      1  C   LIG    1       -1.845   5.190   0.000  0.00  0.00    +0.000 C 
ENDROOT
TORSDOF 0
REMARK  Name = molecules/IXORWGHGSOABEO-AQZOCZKHSA-N.pdb
REMARK                            x       y       z     vdW  Elec       q    Type
REMARK                         _______ _______ _______ _____ _____    ______ ____
ROOT
ATOM      1  O   LIG    1       -4.529   6.079   0.000  0.00  0.00    +0.000 OA
ATOM      2  O   LIG    1       -3.903   6.237   0.000  0.00  0.00    +0.000 OA
ATOM      3  O   LIG    1       -5.057   6.457   0.000  0.00  0.00    +0.000 OA
ENDROOT
TORSDOF 0
REMARK  Name = molecules/IXORWGHGSOABEO-AQZOCZKHSA-N.pdb
REMARK                            x       y       z     vdW  Elec       q    Type
REMARK                         _______ _______ _______ _____ _____    ______ ____
ROOT
ATOM      1  C   LIG    1       -4.930   7.331   0.000  0.00  0.00    +0.000 C 
ENDROOT
TORSDOF 0
REMARK  Name = molecules/IXORWGHGSOABEO-AQZOCZKHSA-N.pdb
REMARK                            x       y       z     vdW  Elec       q    Type
REMARK                         _______ _______ _______ _____ _____    ______ ____
ROOT
ATOM      1  C   LIG    1       -8.521   7.270   0.000  0.00  0.00    +0.000 C 
ENDROOT
TORSDOF 0
REMARK  Name = molecules/IXORWGHGSOABEO-AQZOCZKHSA-N.pdb
REMARK                            x       y       z     vdW  Elec       q    Type
REMARK                         _______ _______ _______ _____ _____    ______ ____
ROOT
ATOM      1  C   LIG    1       -9.705   8.190   0.000  0.00  0.00    +0.000 C 
ENDROOT
TORSDOF 0
REMARK  Name = molecules/IXORWGHGSOABEO-AQZOCZKHSA-N.pdb
REMARK                            x       y       z     vdW  Elec       q    Type
REMARK                         _______ _______ _______ _____ _____    ______ ____
ROOT
ATOM      1  N   LIG    1       -9.501   9.676   0.000  0.00  0.00    +0.000 NA
ENDROOT
TORSDOF 0
REMARK  Name = molecules/IXORWGHGSOABEO-AQZOCZKHSA-N.pdb
REMARK                            x       y       z     vdW  Elec       q    Type
REMARK                         _______ _______ _______ _____ _____    ______ ____
ROOT
ATOM      1  O   HOH    1      -11.153   7.798   0.000  0.00  0.00    -0.253 OA
ATOM      2  H   HOH    0      -10.379   7.323   0.000  0.00  0.00    +0.253 HD
ENDROOT
TORSDOF 0
REMARK  Name = molecules/IXORWGHGSOABEO-AQZOCZKHSA-N.pdb
REMARK                            x       y       z     vdW  Elec       q    Type
REMARK                         _______ _______ _______ _____ _____    ______ ____
ROOT
ATOM      1  C   LIG    1       -7.336   6.350   0.000  0.00  0.00    +0.000 C 
ENDROOT
TORSDOF 0
REMARK  Name = molecules/IXORWGHGSOABEO-AQZOCZKHSA-N.pdb
REMARK                            x       y       z     vdW  Elec       q    Type
REMARK                         _______ _______ _______ _____ _____    ______ ____
ROOT
ATOM      1  C   LIG    1       -6.090   1.840   0.000  0.00  0.00    +0.000 C 
ENDROOT
TORSDOF 0
REMARK  Name = molecules/IXORWGHGSOABEO-AQZOCZKHSA-N.pdb
REMARK                            x       y       z     vdW  Elec       q    Type
REMARK                         _______ _______ _______ _____ _____    ______ ____
ROOT
ATOM      1  N   LIG    1       -1.845   5.190   0.000  0.00  0.00    +0.000 NA
ENDROOT
TORSDOF 0
REMARK  Name = molecules/IXORWGHGSOABEO-AQZOCZKHSA-N.pdb
REMARK                            x       y       z     vdW  Elec       q    Type
REMARK                         _______ _______ _______ _____ _____    ______ ____
ROOT
ATOM      1  C   LIG    1       -5.170   3.025   0.000  0.00  0.00    +0.000 C 
ENDROOT
TORSDOF 0
REMARK  Name = molecules/IXORWGHGSOABEO-AQZOCZKHSA-N.pdb
REMARK                            x       y       z     vdW  Elec       q    Type
REMARK                         _______ _______ _______ _____ _____    ______ ____
ROOT
ATOM      1  O   HOH    1       -7.540   2.224   0.000  0.00  0.00    -0.253 OA
ATOM      2  H   HOH    0       -8.009   1.442   0.000  0.00  0.00    +0.253 HD
ENDROOT
TORSDOF 0
REMARK  Name = molecules/IXORWGHGSOABEO-AQZOCZKHSA-N.pdb
REMARK                            x       y       z     vdW  Elec       q    Type
REMARK                         _______ _______ _______ _____ _____    ______ ____
ROOT
ATOM      1  C   LIG    1       -5.259  -1.654   0.000  0.00  0.00    +0.000 C 
ENDROOT
TORSDOF 0
REMARK  Name = molecules/IXORWGHGSOABEO-AQZOCZKHSA-N.pdb
REMARK                            x       y       z     vdW  Elec       q    Type
REMARK                         _______ _______ _______ _____ _____    ______ ____
ROOT
ATOM      1  C   LIG    1       -1.500  -2.928   0.000  0.00  0.00    +0.000 C 
ENDROOT
TORSDOF 0
REMARK  Name = molecules/IXORWGHGSOABEO-AQZOCZKHSA-N.pdb
REMARK                            x       y       z     vdW  Elec       q    Type
REMARK                         _______ _______ _______ _____ _____    ______ ____
ROOT
ATOM      1  C   LIG    1       -3.094  -4.980   0.000  0.00  0.00    +0.000 C 
ENDROOT
TORSDOF 0
REMARK  Name = molecules/IXORWGHGSOABEO-AQZOCZKHSA-N.pdb
REMARK                            x       y       z     vdW  Elec       q    Type
REMARK                         _______ _______ _______ _____ _____    ______ ____
ROOT
ATOM      1  C   LIG    1       -4.279  -4.060   0.000  0.00  0.00    -0.000 C 
ENDROOT
TORSDOF 0
REMARK  Name = molecules/IXORWGHGSOABEO-AQZOCZKHSA-N.pdb
REMARK                            x       y       z     vdW  Elec       q    Type
REMARK                         _______ _______ _______ _____ _____    ______ ____
ROOT
ATOM      1  O   LIG    1       -7.071   1.578   0.000  0.00  0.00    -0.386 OA
ATOM      2  C   LIG    1       -6.764   0.972   0.000  0.00  0.00    +0.176 C 
ATOM      3  H   LIG    1       -7.568   2.096   0.000  0.00  0.00    +0.210 HD
ENDROOT
TORSDOF 0
REMARK  Name = molecules/IXORWGHGSOABEO-AQZOCZKHSA-N.pdb
REMARK                            x       y       z     vdW  Elec       q    Type
REMARK                         _______ _______ _______ _____ _____    ______ ____
ROOT
ATOM      1  C   LIG    1      -12.043  -1.830   0.000  0.00  0.00    +0.000 C 
ENDROOT
TORSDOF 0
REMARK  Name = molecules/IXORWGHGSOABEO-AQZOCZKHSA-N.pdb
REMARK                            x       y       z     vdW  Elec       q    Type
REMARK                         _______ _______ _______ _____ _____    ______ ____
ROOT
ATOM      1  C   LIG    1      -13.542  -1.782   0.000  0.00  0.00    +0.000 C 
ENDROOT
TORSDOF 0
REMARK  Name = molecules/IXORWGHGSOABEO-AQZOCZKHSA-N.pdb
REMARK                            x       y       z     vdW  Elec       q    Type
REMARK                         _______ _______ _______ _____ _____    ______ ____
ROOT
ATOM      1  N   LIG    1      -14.050  -3.193   0.000  0.00  0.00    -0.136 NA
ATOM      2  C   LIG    1      -12.866  -4.113   0.000  0.00  0.00    +0.136 C 
ENDROOT
TORSDOF 0
REMARK  Name = molecules/IXORWGHGSOABEO-AQZOCZKHSA-N.pdb
REMARK                            x       y       z     vdW  Elec       q    Type
REMARK                         _______ _______ _______ _____ _____    ______ ____
ROOT
ATOM      1  N   LIG    1      -11.625  -3.271   0.000  0.00  0.00    -0.163 NA
ATOM      2  H   LIG    1      -10.995  -3.883   0.000  0.00  0.00    +0.163 HD
ENDROOT
TORSDOF 0
REMARK  Name = molecules/IXORWGHGSOABEO-AQZOCZKHSA-N.pdb
REMARK                            x       y       z     vdW  Elec       q    Type
REMARK                         _______ _______ _______ _____ _____    ______ ____
ROOT
ATOM      1  C   LIG    1       -7.744   3.378   0.000  0.00  0.00    +0.000 C 
ENDROOT
TORSDOF 0
REMARK  Name = molecules/IXORWGHGSOABEO-AQZOCZKHSA-N.pdb
REMARK                            x       y       z     vdW  Elec       q    Type
REMARK                         _______ _______ _______ _____ _____    ______ ____
ROOT
ATOM      1  C   LIG    1      -11.299   6.138   0.000  0.00  0.00    +0.082 C 
ENDROOT
BRANCH   1   3
ATOM      2  C   LIG    1      -10.114   5.218   0.000  0.00  0.00    +0.075 C 
ATOM      3  S   LIG    1      -11.202   5.368   0.000  0.00  0.00    -0.140 S 
ENDBRANCH   1   3
BRANCH   1   4
ATOM      4  C   LIG    1      -11.768   6.757   0.000  0.00  0.00    -0.031 C 
ATOM      5  C   LIG    1      -12.483   7.058   0.000  0.00  0.00    +0.014 C 
ENDBRANCH   1   4
TORSDOF 2
REMARK  Name = molecules/IXORWGHGSOABEO-AQZOCZKHSA-N.pdb
REMARK                            x       y       z     vdW  Elec       q    Type
REMARK                         _______ _______ _______ _____ _____    ______ ____
ROOT
ATOM      1  N   LIG    1      -13.668   7.978   0.000  0.00  0.00    +0.139 NA
ATOM      2  C   LIG    1      -15.057   7.412   0.000  0.00  0.00    +0.574 C 
ATOM      3  N   LIG    1      -15.262   5.926   0.000  0.00  0.00    +0.139 NA
ATOM      4  N   LIG    1      -16.242   8.332   0.000  0.00  0.00    +0.139 NA
ENDROOT
TORSDOF 0
REMARK  Name = molecules/IXORWGHGSOABEO-AQZOCZKHSA-N.pdb
REMARK                            x       y       z     vdW  Elec       q    Type
REMARK                         _______ _______ _______ _____ _____    ______ ____
ROOT
ATOM      1  C   LIG    1       -8.929   4.298   0.000  0.00  0.00    +0.000 C 
ENDROOT
TORSDOF 0
REMARK  Name = molecules/IXORWGHGSOABEO-AQZOCZKHSA-N.pdb
REMARK                            x       y       z     vdW  Elec       q    Type
REMARK                         _______ _______ _______ _____ _____    ______ ____
ROOT
ATOM      1  O   HOH    1       -6.650   4.405   0.000  0.00  0.00    -0.253 OA
ATOM      2  H   HOH    0       -6.458   3.793   0.000  0.00  0.00    +0.253 HD
ENDROOT
TORSDOF 0
REMARK  Name = molecules/IXORWGHGSOABEO-AQZOCZKHSA-N.pdb
REMARK                            x       y       z     vdW  Elec       q    Type
REMARK                         _______ _______ _______ _____ _____    ______ ____
ROOT
ATOM      1  C   LIG    1       -7.684  -0.212   0.000  0.00  0.00    +0.000 C 
ENDROOT
TORSDOF 0
REMARK  Name = molecules/IXORWGHGSOABEO-AQZOCZKHSA-N.pdb
REMARK                            x       y       z     vdW  Elec       q    Type
REMARK                         _______ _______ _______ _____ _____    ______ ____
ROOT
ATOM      1  C   LIG    1       -5.844   2.157   0.000  0.00  0.00    +0.000 C 
ENDROOT
TORSDOF 0
REMARK  Name = molecules/IXORWGHGSOABEO-AQZOCZKHSA-N.pdb
REMARK                            x       y       z     vdW  Elec       q    Type
REMARK                         _______ _______ _______ _____ _____    ______ ____
ROOT
ATOM      1  C   LIG    1       -3.084   5.712   0.000  0.00  0.00    +0.000 C 
ENDROOT
TORSDOF 0
REMARK  Name = molecules/IXORWGHGSOABEO-AQZOCZKHSA-N.pdb
REMARK                            x       y       z     vdW  Elec       q    Type
REMARK                         _______ _______ _______ _____ _____    ______ ____
ROOT
ATOM      1  C   LIG    1       -3.438   3.138   0.000  0.00  0.00    +0.000 C 
ENDROOT
TORSDOF 0
REMARK  Name = molecules/IXORWGHGSOABEO-AQZOCZKHSA-N.pdb
REMARK                            x       y       z     vdW  Elec       q    Type
REMARK                         _______ _______ _______ _____ _____    ______ ____
ROOT
ATOM      1  O   LIG    1       -9.076   0.345   0.000  0.00  0.00    +0.000 OA
ATOM      2  O   LIG    1       -9.200  -0.366   0.000  0.00  0.00    +0.000 OA
ENDROOT
TORSDOF 0
REMARK  Name = molecules/IXORWGHGSOABEO-AQZOCZKHSA-N.pdb
REMARK                            x       y       z     vdW  Elec       q    Type
REMARK                         _______ _______ _______ _____ _____    ______ ____
ROOT
ATOM      1  C   LIG    1       -9.222  -1.866   0.000  0.00  0.00    +0.000 C 
ENDROOT
TORSDOF 0
REMARK  Name = molecules/IXORWGHGSOABEO-AQZOCZKHSA-N.pdb
REMARK                            x       y       z     vdW  Elec       q    Type
REMARK                         _______ _______ _______ _____ _____    ______ ____
ROOT
ATOM      1  C   LIG    1       -6.853  -3.706   0.000  0.00  0.00    -0.000 C 
ENDROOT
TORSDOF 0
REMARK  Name = molecules/IXORWGHGSOABEO-AQZOCZKHSA-N.pdb
REMARK                            x       y       z     vdW  Elec       q    Type
REMARK                         _______ _______ _______ _____ _____    ______ ____
ROOT
ATOM      1  O   HOH    1       -5.668  -4.626   0.000  0.00  0.00    +0.000 OA
ENDROOT
TORSDOF 0
REMARK  Name = molecules/IXORWGHGSOABEO-AQZOCZKHSA-N.pdb
REMARK                            x       y       z     vdW  Elec       q    Type
REMARK                         _______ _______ _______ _____ _____    ______ ____
ROOT
ATOM      1  O   HOH    1      -14.370  -1.159   0.000  0.00  0.00    -0.253 OA
ATOM      2  H   HOH    0      -13.535  -1.409   0.000  0.00  0.00    +0.253 HD
ENDROOT
TORSDOF 0
REMARK  Name = molecules/IXORWGHGSOABEO-AQZOCZKHSA-N.pdb
REMARK                            x       y       z     vdW  Elec       q    Type
REMARK                         _______ _______ _______ _____ _____    ______ ____
ROOT
ATOM      1  C   LIG    1      -14.881   0.628   0.000  0.00  0.00    +0.000 C 
ENDROOT
TORSDOF 0
REMARK  Name = molecules/IXORWGHGSOABEO-AQZOCZKHSA-N.pdb
REMARK                            x       y       z     vdW  Elec       q    Type
REMARK                         _______ _______ _______ _____ _____    ______ ____
ROOT
ATOM      1  C   LIG    1      -12.122   4.183   0.000  0.00  0.00    +0.000 C 
ENDROOT
TORSDOF 0
REMARK  Name = molecules/IXORWGHGSOABEO-AQZOCZKHSA-N.pdb
REMARK                            x       y       z     vdW  Elec       q    Type
REMARK                         _______ _______ _______ _____ _____    ______ ____
ROOT
ATOM      1  C   LIG    1      -13.041   2.998   0.000  0.00  0.00    -0.004 C 
ATOM      2  C   LIG    1      -13.961   1.813   0.000  0.00  0.00    +0.004 C 
ENDROOT
TORSDOF 0
REMARK  Name = molecules/IXORWGHGSOABEO-AQZOCZKHSA-N.pdb
REMARK                            x       y       z     vdW  Elec       q    Type
REMARK                         _______ _______ _______ _____ _____    ______ ____
ROOT
ATOM      1  O   HOH    1      -14.668  -0.856   0.000  0.00  0.00    +0.000 OA
ENDROOT
TORSDOF 0
REMARK  Name = molecules/IXORWGHGSOABEO-AQZOCZKHSA-N.pdb
REMARK                            x       y       z     vdW  Elec       q    Type
REMARK                         _______ _______ _______ _____ _____    ______ ____
ROOT
ATOM      1  C   LIG    1      -17.287  -0.352   0.000  0.00  0.00    +0.225 C 
ATOM      2  O   LIG    1      -17.602  -1.402   0.000  0.00  0.00    -0.225 OA
ENDROOT
TORSDOF 0
REMARK  Name = molecules/IXORWGHGSOABEO-AQZOCZKHSA-N.pdb
REMARK                            x       y       z     vdW  Elec       q    Type
REMARK                         _______ _______ _______ _____ _____    ______ ____
ROOT
ATOM      1  O   LIG    1      -17.322  -2.748   0.000  0.00  0.00    -0.035 OA
ATOM      2  O   LIG    1      -18.119  -2.706   0.000  0.00  0.00    -0.196 OA
ENDROOT
BRANCH   2   3
ATOM      3  C   LIG    1      -18.425  -3.357   0.000  0.00  0.00    +0.200 C 
ATOM      4  C   LIG    1      -19.428  -3.437   0.000  0.00  0.00    +0.031 C 
ENDBRANCH   2   3
TORSDOF 1
REMARK  Name = molecules/IXORWGHGSOABEO-AQZOCZKHSA-N.pdb
REMARK                            x       y       z     vdW  Elec       q    Type
REMARK                         _______ _______ _______ _____ _____    ______ ____
ROOT
ATOM      1  C   LIG    1      -21.798  -1.598   0.000  0.00  0.00    +0.000 C 
ENDROOT
TORSDOF 0
REMARK  Name = molecules/IXORWGHGSOABEO-AQZOCZKHSA-N.pdb
REMARK                            x       y       z     vdW  Elec       q    Type
REMARK                         _______ _______ _______ _____ _____    ______ ____
ROOT
ATOM      1  C   LIG    1      -22.983  -0.678   0.000  0.00  0.00    -0.018 A 
ATOM      2  C   LIG    1      -24.372  -1.244   0.000  0.00  0.00    +0.008 A 
ATOM      3  C   LIG    1      -25.556  -0.324   0.000  0.00  0.00    +0.001 A 
ATOM      4  C   LIG    1      -25.352   1.162   0.000  0.00  0.00    +0.000 A 
ATOM      5  C   LIG    1      -23.963   1.728   0.000  0.00  0.00    +0.001 A 
ATOM      6  C   LIG    1      -22.778   0.808   0.000  0.00  0.00    +0.008 A 
ENDROOT
TORSDOF 0
REMARK  Name = molecules/IXORWGHGSOABEO-AQZOCZKHSA-N.pdb
REMARK                            x       y       z     vdW  Elec       q    Type
REMARK                         _______ _______ _______ _____ _____    ______ ____
ROOT
ATOM      1  C   LIG    1      -20.613  -2.518   0.000  0.00  0.00    +0.000 C 
ENDROOT
TORSDOF 0
REMARK  Name = molecules/IXORWGHGSOABEO-AQZOCZKHSA-N.pdb
REMARK                            x       y       z     vdW  Elec       q    Type
REMARK                         _______ _______ _______ _____ _____    ______ ____
ROOT
ATOM      1  C   LIG    1      -17.263  -6.763   0.000  0.00  0.00    +0.000 C 
ENDROOT
TORSDOF 0
REMARK  Name = molecules/IXORWGHGSOABEO-AQZOCZKHSA-N.pdb
REMARK                            x       y       z     vdW  Elec       q    Type
REMARK                         _______ _______ _______ _____ _____    ______ ____
ROOT
ATOM      1  C   LIG    1      -18.448  -5.843   0.000  0.00  0.00    +0.208 C 
ATOM      2  O   LIG    1      -18.298  -6.505   0.000  0.00  0.00    -0.288 OA
ATOM      3  C   LIG    1      -17.859  -4.746   0.000  0.00  0.00    +0.080 C 
ENDROOT
TORSDOF 0
REMARK  Name = molecules/IXORWGHGSOABEO-AQZOCZKHSA-N.pdb
REMARK                            x       y       z     vdW  Elec       q    Type
REMARK                         _______ _______ _______ _____ _____    ______ ____
ROOT
ATOM      1  O   LIG    1      -15.874  -6.197   0.000  0.00  0.00    -0.253 OA
ATOM      2  H   LIG    1      -17.150  -6.486   0.000  0.00  0.00    +0.253 HD
ENDROOT
BRANCH   1   3
ATOM      3  O   LIG    1      -16.373  -4.950   0.000  0.00  0.00    -0.253 OA
ATOM      4  H   LIG    1      -17.268  -4.916   0.000  0.00  0.00    +0.253 HD
ENDBRANCH   1   3
TORSDOF 1
REMARK  Name = molecules/IXORWGHGSOABEO-AQZOCZKHSA-N.pdb
REMARK                            x       y       z     vdW  Elec       q    Type
REMARK                         _______ _______ _______ _____ _____    ______ ____
ROOT
ATOM      1  C   LIG    1      -18.524 -10.434   0.000  0.00  0.00    +0.000 C 
ENDROOT
TORSDOF 0
REMARK  Name = molecules/IXORWGHGSOABEO-AQZOCZKHSA-N.pdb
REMARK                            x       y       z     vdW  Elec       q    Type
REMARK                         _______ _______ _______ _____ _____    ______ ____
ROOT
ATOM      1  C   LIG    1      -20.019  -5.409   0.000  0.00  0.00    +0.000 C 
ENDROOT
TORSDOF 0
REMARK  Name = molecules/IXORWGHGSOABEO-AQZOCZKHSA-N.pdb
REMARK                            x       y       z     vdW  Elec       q    Type
REMARK                         _______ _______ _______ _____ _____    ______ ____
ROOT
ATOM      1  C   LIG    1      -25.575  -7.673   0.000  0.00  0.00    +0.356 C 
ATOM      2  O   LIG    1      -25.779  -9.160   0.000  0.00  0.00    -0.246 OA
ATOM      3  O   LIG    1      -26.760  -6.754   0.000  0.00  0.00    -0.246 OA
ENDROOT
BRANCH   1   5
ATOM      4  C   LIG    1      -22.797  -6.541   0.000  0.00  0.00    +0.012 C 
ATOM      5  C   LIG    1      -24.186  -7.107   0.000  0.00  0.00    +0.125 C 
ENDBRANCH   1   5
TORSDOF 1
REMARK  Name = molecules/IXORWGHGSOABEO-AQZOCZKHSA-N.pdb
REMARK                            x       y       z     vdW  Elec       q    Type
REMARK                         _______ _______ _______ _____ _____    ______ ____
ROOT
ATOM      1  O   HOH    1      -16.210  -9.103   0.000  0.00  0.00    -0.253 OA
ATOM      2  H   HOH    0      -15.465  -8.103   0.000  0.00  0.00    +0.253 HD
ENDROOT
TORSDOF 0
REMARK  Name = molecules/IXORWGHGSOABEO-AQZOCZKHSA-N.pdb
REMARK                            x       y       z     vdW  Elec       q    Type
REMARK                         _______ _______ _______ _____ _____    ______ ____
ROOT
ATOM      1  H   UNK    1        7.542   7.770   0.000  0.00  0.00    +0.000 HD
ENDROOT
TORSDOF 0
REMARK  Name = molecules/IXORWGHGSOABEO-AQZOCZKHSA-N.pdb
REMARK                            x       y       z     vdW  Elec       q    Type
REMARK                         _______ _______ _______ _____ _____    ______ ____
ROOT
ATOM      1  H   UNK    1        5.385   6.504   0.000  0.00  0.00    +0.000 HD
ENDROOT
TORSDOF 0
REMARK  Name = molecules/IXORWGHGSOABEO-AQZOCZKHSA-N.pdb
REMARK                            x       y       z     vdW  Elec       q    Type
REMARK                         _______ _______ _______ _____ _____    ______ ____
ROOT
ATOM      1  H   UNK    1        1.014  -1.492   0.000  0.00  0.00    +0.000 HD
ENDROOT
TORSDOF 0
REMARK  Name = molecules/IXORWGHGSOABEO-AQZOCZKHSA-N.pdb
REMARK                            x       y       z     vdW  Elec       q    Type
REMARK                         _______ _______ _______ _____ _____    ______ ____
ROOT
ATOM      1  H   UNK    1       -2.551   2.520   0.000  0.00  0.00    +0.000 HD
ENDROOT
TORSDOF 0
REMARK  Name = molecules/IXORWGHGSOABEO-AQZOCZKHSA-N.pdb
REMARK                            x       y       z     vdW  Elec       q    Type
REMARK                         _______ _______ _______ _____ _____    ______ ____
ROOT
ATOM      1  H   UNK    1       -1.377   7.988   0.000  0.00  0.00    +0.000 HD
ENDROOT
TORSDOF 0
REMARK  Name = molecules/IXORWGHGSOABEO-AQZOCZKHSA-N.pdb
REMARK                            x       y       z     vdW  Elec       q    Type
REMARK                         _______ _______ _______ _____ _____    ______ ____
ROOT
ATOM      1  H   UNK    1       -6.808   8.983   0.000  0.00  0.00    +0.000 HD
ENDROOT
TORSDOF 0
REMARK  Name = molecules/IXORWGHGSOABEO-AQZOCZKHSA-N.pdb
REMARK                            x       y       z     vdW  Elec       q    Type
REMARK                         _______ _______ _______ _____ _____    ______ ____
ROOT
ATOM      1  H   UNK    1       -7.744   3.378   0.000  0.00  0.00    +0.000 HD
ENDROOT
TORSDOF 0
REMARK  Name = molecules/IXORWGHGSOABEO-AQZOCZKHSA-N.pdb
REMARK                            x       y       z     vdW  Elec       q    Type
REMARK                         _______ _______ _______ _____ _____    ______ ____
ROOT
ATOM      1  H   UNK    1       -9.338   1.326   0.000  0.00  0.00    +0.000 HD
ENDROOT
TORSDOF 0
REMARK  Name = molecules/IXORWGHGSOABEO-AQZOCZKHSA-N.pdb
REMARK                            x       y       z     vdW  Elec       q    Type
REMARK                         _______ _______ _______ _____ _____    ______ ____
ROOT
ATOM      1  H   UNK    1      -11.566   1.779   0.000  0.00  0.00    +0.000 HD
ENDROOT
TORSDOF 0
REMARK  Name = molecules/IXORWGHGSOABEO-AQZOCZKHSA-N.pdb
REMARK                            x       y       z     vdW  Elec       q    Type
REMARK                         _______ _______ _______ _____ _____    ______ ____
ROOT
ATOM      1  H   UNK    1      -16.933   2.222   0.000  0.00  0.00    +0.000 HD
ENDROOT
TORSDOF 0
REMARK  Name = molecules/IXORWGHGSOABEO-AQZOCZKHSA-N.pdb
REMARK                            x       y       z     vdW  Elec       q    Type
REMARK                         _______ _______ _______ _____ _____    ______ ____
ROOT
ATOM      1  H   UNK    1      -21.761  -8.549   0.000  0.00  0.00    +0.000 HD
ENDROOT
TORSDOF 0
REMARK  Name = molecules/IXORWGHGSOABEO-AQZOCZKHSA-N.pdb
REMARK                            x       y       z     vdW  Elec       q    Type
REMARK                         _______ _______ _______ _____ _____    ______ ____
ROOT
ATOM      1  H   UNK    1      -19.943  -9.920   0.000  0.00  0.00    +0.000 HD
ENDROOT
TORSDOF 0
REMARK  Name = molecules/IXORWGHGSOABEO-AQZOCZKHSA-N.pdb
REMARK                            x       y       z     vdW  Elec       q    Type
REMARK                         _______ _______ _______ _____ _____    ______ ____
ROOT
ATOM      1  H   UNK    1       13.614   4.825   0.000  0.00  0.00    +0.000 HD
ENDROOT
TORSDOF 0
REMARK  Name = molecules/IXORWGHGSOABEO-AQZOCZKHSA-N.pdb
REMARK                            x       y       z     vdW  Elec       q    Type
REMARK                         _______ _______ _______ _____ _____    ______ ____
ROOT
ATOM      1  H   UNK    1       13.895   6.882   0.000  0.00  0.00    +0.000 HD
ENDROOT
TORSDOF 0
REMARK  Name = molecules/IXORWGHGSOABEO-AQZOCZKHSA-N.pdb
REMARK                            x       y       z     vdW  Elec       q    Type
REMARK                         _______ _______ _______ _____ _____    ______ ____
ROOT
ATOM      1  H   UNK    1       15.549  -1.027   0.000  0.00  0.00    +0.000 HD
ENDROOT
TORSDOF 0
REMARK  Name = molecules/IXORWGHGSOABEO-AQZOCZKHSA-N.pdb
REMARK                            x       y       z     vdW  Elec       q    Type
REMARK                         _______ _______ _______ _____ _____    ______ ____
ROOT
ATOM      1  H   UNK    1       18.543   0.921   0.000  0.00  0.00    +0.000 HD
ENDROOT
TORSDOF 0
REMARK  Name = molecules/IXORWGHGSOABEO-AQZOCZKHSA-N.pdb
REMARK                            x       y       z     vdW  Elec       q    Type
REMARK                         _______ _______ _______ _____ _____    ______ ____
ROOT
ATOM      1  H   UNK    1       17.244  -1.329   0.000  0.00  0.00    +0.000 HD
ENDROOT
TORSDOF 0
REMARK  Name = molecules/IXORWGHGSOABEO-AQZOCZKHSA-N.pdb
REMARK                            x       y       z     vdW  Elec       q    Type
REMARK                         _______ _______ _______ _____ _____    ______ ____
ROOT
ATOM      1  H   UNK    1       12.592  -6.436   0.000  0.00  0.00    +0.000 HD
ENDROOT
TORSDOF 0
REMARK  Name = molecules/IXORWGHGSOABEO-AQZOCZKHSA-N.pdb
REMARK                            x       y       z     vdW  Elec       q    Type
REMARK                         _______ _______ _______ _____ _____    ______ ____
ROOT
ATOM      1  H   UNK    1       16.201  -4.220   0.000  0.00  0.00    +0.000 HD
ENDROOT
TORSDOF 0
REMARK  Name = molecules/IXORWGHGSOABEO-AQZOCZKHSA-N.pdb
REMARK                            x       y       z     vdW  Elec       q    Type
REMARK                         _______ _______ _______ _____ _____    ______ ____
ROOT
ATOM      1  H   UNK    1        6.622  -7.967   0.000  0.00  0.00    +0.000 HD
ENDROOT
TORSDOF 0
REMARK  Name = molecules/IXORWGHGSOABEO-AQZOCZKHSA-N.pdb
REMARK                            x       y       z     vdW  Elec       q    Type
REMARK                         _______ _______ _______ _____ _____    ______ ____
ROOT
ATOM      1  H   UNK    1        7.701  -9.740   0.000  0.00  0.00    +0.000 HD
ENDROOT
TORSDOF 0
REMARK  Name = molecules/IXORWGHGSOABEO-AQZOCZKHSA-N.pdb
REMARK                            x       y       z     vdW  Elec       q    Type
REMARK                         _______ _______ _______ _____ _____    ______ ____
ROOT
ATOM      1  H   UNK    1        1.072  -5.917   0.000  0.00  0.00    +0.000 HD
ENDROOT
TORSDOF 0
REMARK  Name = molecules/IXORWGHGSOABEO-AQZOCZKHSA-N.pdb
REMARK                            x       y       z     vdW  Elec       q    Type
REMARK                         _______ _______ _______ _____ _____    ______ ____
ROOT
ATOM      1  H   UNK    1        2.170  -7.899   0.000  0.00  0.00    +0.000 HD
ENDROOT
TORSDOF 0
REMARK  Name = molecules/IXORWGHGSOABEO-AQZOCZKHSA-N.pdb
REMARK                            x       y       z     vdW  Elec       q    Type
REMARK                         _______ _______ _______ _____ _____    ______ ____
ROOT
ATOM      1  H   UNK    1        3.751  -6.944   0.000  0.00  0.00    +0.000 HD
ENDROOT
TORSDOF 0
REMARK  Name = molecules/IXORWGHGSOABEO-AQZOCZKHSA-N.pdb
REMARK                            x       y       z     vdW  Elec       q    Type
REMARK                         _______ _______ _______ _____ _____    ______ ____
ROOT
ATOM      1  H   UNK    1        1.398   2.106   0.000  0.00  0.00    +0.000 HD
ENDROOT
TORSDOF 0
REMARK  Name = molecules/IXORWGHGSOABEO-AQZOCZKHSA-N.pdb
REMARK                            x       y       z     vdW  Elec       q    Type
REMARK                         _______ _______ _______ _____ _____    ______ ____
ROOT
ATOM      1  H   UNK    1        1.464   1.819   0.000  0.00  0.00    +0.000 HD
ENDROOT
TORSDOF 0
REMARK  Name = molecules/IXORWGHGSOABEO-AQZOCZKHSA-N.pdb
REMARK                            x       y       z     vdW  Elec       q    Type
REMARK                         _______ _______ _______ _____ _____    ______ ____
ROOT
ATOM      1  H   UNK    1        1.401  -2.772   0.000  0.00  0.00    +0.000 HD
ENDROOT
TORSDOF 0
REMARK  Name = molecules/IXORWGHGSOABEO-AQZOCZKHSA-N.pdb
REMARK                            x       y       z     vdW  Elec       q    Type
REMARK                         _______ _______ _______ _____ _____    ______ ____
ROOT
ATOM      1  H   UNK    1       -1.697  -4.083   0.000  0.00  0.00    +0.000 HD
ENDROOT
TORSDOF 0
REMARK  Name = molecules/IXORWGHGSOABEO-AQZOCZKHSA-N.pdb
REMARK                            x       y       z     vdW  Elec       q    Type
REMARK                         _______ _______ _______ _____ _____    ______ ____
ROOT
ATOM      1  H   UNK    1       -6.609  -1.975   0.000  0.00  0.00    +0.000 HD
ENDROOT
TORSDOF 0
REMARK  Name = molecules/IXORWGHGSOABEO-AQZOCZKHSA-N.pdb
REMARK                            x       y       z     vdW  Elec       q    Type
REMARK                         _______ _______ _______ _____ _____    ______ ____
ROOT
ATOM      1  H   UNK    1       -5.220  -1.409   0.000  0.00  0.00    +0.000 HD
ENDROOT
TORSDOF 0
REMARK  Name = molecules/IXORWGHGSOABEO-AQZOCZKHSA-N.pdb
REMARK                            x       y       z     vdW  Elec       q    Type
REMARK                         _______ _______ _______ _____ _____    ______ ____
ROOT
ATOM      1  H   UNK    1        0.553   5.772   0.000  0.00  0.00    +0.000 HD
ENDROOT
TORSDOF 0
REMARK  Name = molecules/IXORWGHGSOABEO-AQZOCZKHSA-N.pdb
REMARK                            x       y       z     vdW  Elec       q    Type
REMARK                         _______ _______ _______ _____ _____    ______ ____
ROOT
ATOM      1  H   UNK    1       -2.637   7.153   0.000  0.00  0.00    +0.000 HD
ENDROOT
TORSDOF 0
REMARK  Name = molecules/IXORWGHGSOABEO-AQZOCZKHSA-N.pdb
REMARK                            x       y       z     vdW  Elec       q    Type
REMARK                         _______ _______ _______ _____ _____    ______ ____
ROOT
ATOM      1  H   UNK    1       -1.050 -11.060   0.000  0.00  0.00    +0.000 HD
ENDROOT
TORSDOF 0
REMARK  Name = molecules/IXORWGHGSOABEO-AQZOCZKHSA-N.pdb
REMARK                            x       y       z     vdW  Elec       q    Type
REMARK                         _______ _______ _______ _____ _____    ______ ____
ROOT
ATOM      1  H   UNK    1       -4.234  -6.689   0.000  0.00  0.00    +0.000 HD
ENDROOT
TORSDOF 0
REMARK  Name = molecules/IXORWGHGSOABEO-AQZOCZKHSA-N.pdb
REMARK                            x       y       z     vdW  Elec       q    Type
REMARK                         _______ _______ _______ _____ _____    ______ ____
ROOT
ATOM      1  H   UNK    1      -10.493  -4.119   0.000  0.00  0.00    +0.000 HD
ENDROOT
TORSDOF 0
REMARK  Name = molecules/IXORWGHGSOABEO-AQZOCZKHSA-N.pdb
REMARK                            x       y       z     vdW  Elec       q    Type
REMARK                         _______ _______ _______ _____ _____    ______ ____
ROOT
ATOM      1  H   UNK    1       -9.302   0.076   0.000  0.00  0.00    +0.000 HD
ENDROOT
TORSDOF 0
REMARK  Name = molecules/IXORWGHGSOABEO-AQZOCZKHSA-N.pdb
REMARK                            x       y       z     vdW  Elec       q    Type
REMARK                         _______ _______ _______ _____ _____    ______ ____
ROOT
ATOM      1  H   UNK    1       -9.377  -4.347   0.000  0.00  0.00    +0.000 HD
ENDROOT
TORSDOF 0
REMARK  Name = molecules/IXORWGHGSOABEO-AQZOCZKHSA-N.pdb
REMARK                            x       y       z     vdW  Elec       q    Type
REMARK                         _______ _______ _______ _____ _____    ______ ____
ROOT
ATOM      1  H   UNK    1       -8.074  -2.998   0.000  0.00  0.00    +0.000 HD
ENDROOT
TORSDOF 0
REMARK  Name = molecules/IXORWGHGSOABEO-AQZOCZKHSA-N.pdb
REMARK                            x       y       z     vdW  Elec       q    Type
REMARK                         _______ _______ _______ _____ _____    ______ ____
ROOT
ATOM      1  H   UNK    1       -1.580   3.085   0.000  0.00  0.00    +0.000 HD
ENDROOT
TORSDOF 0
REMARK  Name = molecules/IXORWGHGSOABEO-AQZOCZKHSA-N.pdb
REMARK                            x       y       z     vdW  Elec       q    Type
REMARK                         _______ _______ _______ _____ _____    ______ ____
ROOT
ATOM      1  H   UNK    1        0.398   5.334   0.000  0.00  0.00    +0.000 HD
ENDROOT
TORSDOF 0
REMARK  Name = molecules/IXORWGHGSOABEO-AQZOCZKHSA-N.pdb
REMARK                            x       y       z     vdW  Elec       q    Type
REMARK                         _______ _______ _______ _____ _____    ______ ____
ROOT
ATOM      1  H   UNK    1       -1.410   6.626   0.000  0.00  0.00    +0.000 HD
ENDROOT
TORSDOF 0
REMARK  Name = molecules/IXORWGHGSOABEO-AQZOCZKHSA-N.pdb
REMARK                            x       y       z     vdW  Elec       q    Type
REMARK                         _______ _______ _______ _____ _____    ______ ____
ROOT
ATOM      1  H   UNK    1       -7.752   8.558   0.000  0.00  0.00    +0.000 HD
ENDROOT
TORSDOF 0
REMARK  Name = molecules/IXORWGHGSOABEO-AQZOCZKHSA-N.pdb
REMARK                            x       y       z     vdW  Elec       q    Type
REMARK                         _______ _______ _______ _____ _____    ______ ____
ROOT
ATOM      1  H   UNK    1      -10.686  10.596   0.000  0.00  0.00    +0.000 HD
ENDROOT
TORSDOF 0
REMARK  Name = molecules/IXORWGHGSOABEO-AQZOCZKHSA-N.pdb
REMARK                            x       y       z     vdW  Elec       q    Type
REMARK                         _______ _______ _______ _____ _____    ______ ____
ROOT
ATOM      1  H   UNK    1       -8.112  10.242   0.000  0.00  0.00    +0.000 HD
ENDROOT
TORSDOF 0
REMARK  Name = molecules/IXORWGHGSOABEO-AQZOCZKHSA-N.pdb
REMARK                            x       y       z     vdW  Elec       q    Type
REMARK                         _______ _______ _______ _____ _____    ______ ____
ROOT
ATOM      1  H   UNK    1       -1.076   6.478   0.000  0.00  0.00    +0.000 HD
ENDROOT
TORSDOF 0
REMARK  Name = molecules/IXORWGHGSOABEO-AQZOCZKHSA-N.pdb
REMARK                            x       y       z     vdW  Elec       q    Type
REMARK                         _______ _______ _______ _____ _____    ______ ____
ROOT
ATOM      1  H   UNK    1       -3.735   2.591   0.000  0.00  0.00    +0.000 HD
ENDROOT
TORSDOF 0
REMARK  Name = molecules/IXORWGHGSOABEO-AQZOCZKHSA-N.pdb
REMARK                            x       y       z     vdW  Elec       q    Type
REMARK                         _______ _______ _______ _____ _____    ______ ____
ROOT
ATOM      1  H   UNK    1       -5.865  -3.026   0.000  0.00  0.00    +0.000 HD
ENDROOT
TORSDOF 0
REMARK  Name = molecules/IXORWGHGSOABEO-AQZOCZKHSA-N.pdb
REMARK                            x       y       z     vdW  Elec       q    Type
REMARK                         _______ _______ _______ _____ _____    ______ ____
ROOT
ATOM      1  H   UNK    1      -15.491  -3.611   0.000  0.00  0.00    +0.000 HD
ENDROOT
TORSDOF 0
REMARK  Name = molecules/IXORWGHGSOABEO-AQZOCZKHSA-N.pdb
REMARK                            x       y       z     vdW  Elec       q    Type
REMARK                         _______ _______ _______ _____ _____    ______ ____
ROOT
ATOM      1  H   UNK    1      -13.663   6.131   0.000  0.00  0.00    +0.000 HD
ENDROOT
TORSDOF 0
REMARK  Name = molecules/IXORWGHGSOABEO-AQZOCZKHSA-N.pdb
REMARK                            x       y       z     vdW  Elec       q    Type
REMARK                         _______ _______ _______ _____ _____    ______ ____
ROOT
ATOM      1  H   UNK    1      -11.878   8.430   0.000  0.00  0.00    +0.000 HD
ENDROOT
TORSDOF 0
REMARK  Name = molecules/IXORWGHGSOABEO-AQZOCZKHSA-N.pdb
REMARK                            x       y       z     vdW  Elec       q    Type
REMARK                         _______ _______ _______ _____ _____    ______ ____
ROOT
ATOM      1  H   UNK    1      -13.464   9.464   0.000  0.00  0.00    +0.000 HD
ENDROOT
TORSDOF 0
REMARK  Name = molecules/IXORWGHGSOABEO-AQZOCZKHSA-N.pdb
REMARK                            x       y       z     vdW  Elec       q    Type
REMARK                         _______ _______ _______ _____ _____    ______ ____
ROOT
ATOM      1  H   UNK    1      -16.651   5.359   0.000  0.00  0.00    +0.000 HD
ENDROOT
TORSDOF 0
REMARK  Name = molecules/IXORWGHGSOABEO-AQZOCZKHSA-N.pdb
REMARK                            x       y       z     vdW  Elec       q    Type
REMARK                         _______ _______ _______ _____ _____    ______ ____
ROOT
ATOM      1  H   UNK    1      -13.973   5.157   0.000  0.00  0.00    +0.000 HD
ENDROOT
TORSDOF 0
REMARK  Name = molecules/IXORWGHGSOABEO-AQZOCZKHSA-N.pdb
REMARK                            x       y       z     vdW  Elec       q    Type
REMARK                         _______ _______ _______ _____ _____    ______ ____
ROOT
ATOM      1  H   UNK    1      -17.631   7.766   0.000  0.00  0.00    +0.000 HD
ENDROOT
TORSDOF 0
REMARK  Name = molecules/IXORWGHGSOABEO-AQZOCZKHSA-N.pdb
REMARK                            x       y       z     vdW  Elec       q    Type
REMARK                         _______ _______ _______ _____ _____    ______ ____
ROOT
ATOM      1  H   UNK    1       -5.700  -0.085   0.000  0.00  0.00    +0.000 HD
ENDROOT
TORSDOF 0
REMARK  Name = molecules/IXORWGHGSOABEO-AQZOCZKHSA-N.pdb
REMARK                            x       y       z     vdW  Elec       q    Type
REMARK                         _______ _______ _______ _____ _____    ______ ____
ROOT
ATOM      1  H   UNK    1       -7.772  -4.891   0.000  0.00  0.00    +0.000 HD
ENDROOT
TORSDOF 0
REMARK  Name = molecules/IXORWGHGSOABEO-AQZOCZKHSA-N.pdb
REMARK                            x       y       z     vdW  Elec       q    Type
REMARK                         _______ _______ _______ _____ _____    ______ ____
ROOT
ATOM      1  H   UNK    1       -5.484  -3.092   0.000  0.00  0.00    +0.000 HD
ENDROOT
TORSDOF 0
REMARK  Name = molecules/IXORWGHGSOABEO-AQZOCZKHSA-N.pdb
REMARK                            x       y       z     vdW  Elec       q    Type
REMARK                         _______ _______ _______ _____ _____    ______ ____
ROOT
ATOM      1  H   UNK    1       -8.806  -4.074   0.000  0.00  0.00    +0.000 HD
ENDROOT
TORSDOF 0
REMARK  Name = molecules/IXORWGHGSOABEO-AQZOCZKHSA-N.pdb
REMARK                            x       y       z     vdW  Elec       q    Type
REMARK                         _______ _______ _______ _____ _____    ______ ____
ROOT
ATOM      1  H   UNK    1      -13.306   5.103   0.000  0.00  0.00    +0.000 HD
ENDROOT
TORSDOF 0
REMARK  Name = molecules/IXORWGHGSOABEO-AQZOCZKHSA-N.pdb
REMARK                            x       y       z     vdW  Elec       q    Type
REMARK                         _______ _______ _______ _____ _____    ______ ____
ROOT
ATOM      1  H   UNK    1      -10.379   7.323   0.000  0.00  0.00    +0.000 HD
ENDROOT
TORSDOF 0
REMARK  Name = molecules/IXORWGHGSOABEO-AQZOCZKHSA-N.pdb
REMARK                            x       y       z     vdW  Elec       q    Type
REMARK                         _______ _______ _______ _____ _____    ______ ____
ROOT
ATOM      1  H   UNK    1      -16.102  -1.272   0.000  0.00  0.00    +0.000 HD
ENDROOT
TORSDOF 0
REMARK  Name = molecules/IXORWGHGSOABEO-AQZOCZKHSA-N.pdb
REMARK                            x       y       z     vdW  Elec       q    Type
REMARK                         _______ _______ _______ _____ _____    ______ ____
ROOT
ATOM      1  H   UNK    1      -18.351   0.705   0.000  0.00  0.00    +0.000 HD
ENDROOT
TORSDOF 0
REMARK  Name = molecules/IXORWGHGSOABEO-AQZOCZKHSA-N.pdb
REMARK                            x       y       z     vdW  Elec       q    Type
REMARK                         _______ _______ _______ _____ _____    ______ ____
ROOT
ATOM      1  H   UNK    1      -21.192  -0.226   0.000  0.00  0.00    +0.000 HD
ENDROOT
TORSDOF 0
REMARK  Name = molecules/IXORWGHGSOABEO-AQZOCZKHSA-N.pdb
REMARK                            x       y       z     vdW  Elec       q    Type
REMARK                         _______ _______ _______ _____ _____    ______ ____
ROOT
ATOM      1  H   UNK    1      -22.718  -2.783   0.000  0.00  0.00    +0.000 HD
ENDROOT
TORSDOF 0
REMARK  Name = molecules/IXORWGHGSOABEO-AQZOCZKHSA-N.pdb
REMARK                            x       y       z     vdW  Elec       q    Type
REMARK                         _______ _______ _______ _____ _____    ______ ____
ROOT
ATOM      1  H   UNK    1      -21.671  -3.581   0.000  0.00  0.00    +0.000 HD
ENDROOT
TORSDOF 0
REMARK  Name = molecules/IXORWGHGSOABEO-AQZOCZKHSA-N.pdb
REMARK                            x       y       z     vdW  Elec       q    Type
REMARK                         _______ _______ _______ _____ _____    ______ ____
ROOT
ATOM      1  H   UNK    1      -20.230  -9.375   0.000  0.00  0.00    +0.000 HD
ENDROOT
TORSDOF 0
REMARK  Name = molecules/IXORWGHGSOABEO-AQZOCZKHSA-N.pdb
REMARK                            x       y       z     vdW  Elec       q    Type
REMARK                         _______ _______ _______ _____ _____    ______ ____
ROOT
ATOM      1  H   UNK    1      -19.996 -10.725   0.000  0.00  0.00    +0.000 HD
ENDROOT
TORSDOF 0
REMARK  Name = molecules/IXORWGHGSOABEO-AQZOCZKHSA-N.pdb
REMARK                            x       y       z     vdW  Elec       q    Type
REMARK                         _______ _______ _______ _____ _____    ______ ____
ROOT
ATOM      1  H   UNK    1      -18.572 -11.933   0.000  0.00  0.00    +0.000 HD
ENDROOT
TORSDOF 0
REMARK  Name = molecules/IXORWGHGSOABEO-AQZOCZKHSA-N.pdb
REMARK                            x       y       z     vdW  Elec       q    Type
REMARK                         _______ _______ _______ _____ _____    ______ ____
ROOT
ATOM      1  H   UNK    1      -17.217 -12.128   0.000  0.00  0.00    +0.000 HD
ENDROOT
TORSDOF 0
REMARK  Name = molecules/IXORWGHGSOABEO-AQZOCZKHSA-N.pdb
REMARK                            x       y       z     vdW  Elec       q    Type
REMARK                         _______ _______ _______ _____ _____    ______ ____
ROOT
ATOM      1  H   UNK    1      -22.404  -7.989   0.000  0.00  0.00    +0.000 HD
ENDROOT
TORSDOF 0
REMARK  Name = molecules/IXORWGHGSOABEO-AQZOCZKHSA-N.pdb
REMARK                            x       y       z     vdW  Elec       q    Type
REMARK                         _______ _______ _______ _____ _____    ______ ____
ROOT
ATOM      1  H   UNK    1      -23.363  -5.152   0.000  0.00  0.00    +0.000 HD
ENDROOT
TORSDOF 0
REMARK  Name = molecules/IXORWGHGSOABEO-AQZOCZKHSA-N.pdb
REMARK                            x       y       z     vdW  Elec       q    Type
REMARK                         _______ _______ _______ _____ _____    ______ ____
ROOT
ATOM      1  H   UNK    1      -27.168  -9.726   0.000  0.00  0.00    +0.000 HD
ENDROOT
TORSDOF 0
REMARK  Name = molecules/IXORWGHGSOABEO-AQZOCZKHSA-N.pdb
REMARK                            x       y       z     vdW  Elec       q    Type
REMARK                         _______ _______ _______ _____ _____    ______ ____
ROOT
ATOM      1  H   UNK    1      -21.974  -4.586   0.000  0.00  0.00    +0.000 HD
ENDROOT
TORSDOF 0
REMARK  Name = molecules/IXORWGHGSOABEO-AQZOCZKHSA-N.pdb
REMARK                            x       y       z     vdW  Elec       q    Type
REMARK                         _______ _______ _______ _____ _____    ______ ____
ROOT
ATOM      1  H   UNK    1      -19.950   0.869   0.000  0.00  0.00    +0.000 HD
ENDROOT
TORSDOF 0
REMARK  Name = molecules/IXORWGHGSOABEO-AQZOCZKHSA-N.pdb
REMARK                            x       y       z     vdW  Elec       q    Type
REMARK                         _______ _______ _______ _____ _____    ______ ____
ROOT
ATOM      1  H   UNK    1      -20.765  -9.161   0.000  0.00  0.00    +0.000 HD
ENDROOT
TORSDOF 0
