REMARK  Name = molecules/IXOXBSCIXZEQEQ-UHTZMRCNSA-N.pdb
REMARK                            x       y       z     vdW  Elec       q    Type
REMARK                         _______ _______ _______ _____ _____    ______ ____
ROOT
ATOM      1  N   LIG    1       -0.030  -0.700  -0.744  0.00  0.00    -0.285 N 
ATOM      2  C   LIG    1        1.126  -0.109  -0.442  0.00  0.00    +0.171 A 
ATOM      3  N   LIG    1        1.477   1.104   0.034  0.00  0.00    -0.195 NA
ATOM      4  C   LIG    1        2.738   1.481   0.264  0.00  0.00    +0.218 A 
ATOM      5  N   LIG    1        3.726   0.606   0.010  0.00  0.00    -0.178 NA
ATOM      6  C   LIG    1        3.499  -0.632  -0.466  0.00  0.00    +0.247 A 
ATOM      7  C   LIG    1        2.186  -0.988  -0.692  0.00  0.00    +0.169 A 
ATOM      8  N   LIG    1        1.581  -2.104  -1.150  0.00  0.00    -0.229 NA
ATOM      9  C   LIG    1        0.244  -1.940  -1.185  0.00  0.00    +0.203 A 
ENDROOT
BRANCH   1  14
ATOM     10  C2* LIG    1       -2.445  -1.101  -0.555  0.00  0.00    +0.195 C 
ATOM     11  C3* LIG    1       -3.579  -0.207  -0.063  0.00  0.00    +0.178 C 
ATOM     12  C4* LIG    1       -2.818   0.984   0.454  0.00  0.00    +0.177 C 
ATOM     13  O4* LIG    1       -1.492   0.569   0.605  0.00  0.00    -0.346 OA
ATOM     14  C1* LIG    1       -1.319  -0.113  -0.619  0.00  0.00    +0.253 C 
BRANCH  10  15
ATOM     15  O2* LIG    1       -2.219  -2.046   0.436  0.00  0.00    -0.385 OA
ATOM     16  H2* LIG    1       -2.371  -2.966   0.153  0.00  0.00    +0.210 HD
ENDBRANCH  10  15
BRANCH  11  17
ATOM     17  O3* LIG    1       -4.342   0.121  -1.184  0.00  0.00    -0.386 OA
ATOM     18  H3* LIG    1       -4.213   1.052  -1.483  0.00  0.00    +0.210 HD
ENDBRANCH  11  17
BRANCH  12  19
ATOM     19  C5* LIG    1       -3.387   1.543   1.729  0.00  0.00    +0.190 C 
BRANCH  19  20
ATOM     20  O5* LIG    1       -3.388   0.632   2.771  0.00  0.00    -0.392 OA
ATOM     21  H5* LIG    1       -4.232   0.113   2.777  0.00  0.00    +0.210 HD
ENDBRANCH  19  20
ENDBRANCH  12  19
ENDBRANCH   1  14
BRANCH   4  22
ATOM     22  N   LIG    1        2.977   2.790   0.767  0.00  0.00    -0.327 N 
ATOM     23  H   LIG    1        3.409   2.906   1.690  0.00  0.00    +0.145 HD
ATOM     24  H   LIG    1        2.711   3.621   0.195  0.00  0.00    +0.145 HD
ENDBRANCH   4  22
BRANCH   6  25
ATOM     25  O   LIG    1        4.522  -1.534  -0.727  0.00  0.00    -0.478 OA
ATOM     26  C   LIG    1        5.874  -1.267  -0.531  0.00  0.00    +0.279 C 
ENDBRANCH   6  25
TORSDOF 7
