REMARK  Name = molecules/IYDYFVUFSPQPPV-PEXOCOHZSA-N.pdb
REMARK                            x       y       z     vdW  Elec       q    Type
REMARK                         _______ _______ _______ _____ _____    ______ ____
ROOT
ATOM      1  C   LIG    1        0.207  -1.037  -0.519  0.00  0.00    +0.175 C 
ATOM      2  C   LIG    1        1.090  -0.433   0.524  0.00  0.00    +0.170 C 
ATOM      3  C   LIG    1        0.445  -0.668   1.856  0.00  0.00    +0.084 C 
ATOM      4  C   LIG    1       -0.866   0.072   1.963  0.00  0.00    +0.046 C 
ATOM      5  C   LIG    1       -1.524   0.370   0.655  0.00  0.00    +0.106 C 
ATOM      6  C   LIG    1       -1.164  -0.466  -0.503  0.00  0.00    +0.173 C 
ENDROOT
BRANCH   5   7
ATOM      7  N   LIG    1       -1.436   1.791   0.395  0.00  0.00    -0.308 N 
ATOM      8  C   LIG    1       -2.559   2.624   0.546  0.00  0.00    +0.242 C 
ATOM      9  O   LIG    1       -3.677   2.173   0.912  0.00  0.00    -0.273 OA
ATOM     10  H   LIG    1       -0.552   2.200   0.092  0.00  0.00    +0.149 HD
BRANCH   8  11
ATOM     11  C   LIG    1       -2.495   4.084   0.284  0.00  0.00    +0.201 C 
BRANCH  11  12
ATOM     12  O   LIG    1       -1.206   4.470  -0.093  0.00  0.00    -0.383 OA
ATOM     13  H   LIG    1       -1.083   4.260  -1.048  0.00  0.00    +0.210 HD
ENDBRANCH  11  12
BRANCH  11  14
ATOM     14  C   LIG    1       -3.366   4.331  -0.956  0.00  0.00    +0.056 C 
BRANCH  14  15
ATOM     15  C   LIG    1       -3.296   5.826  -1.217  0.00  0.00    +0.080 C 
BRANCH  15  16
ATOM     16  N   LIG    1       -3.815   6.501  -0.053  0.00  0.00    -0.330 NA
ATOM     17  H   LIG    1       -4.398   5.855   0.544  0.00  0.00    +0.118 HD
ATOM     18  H   LIG    1       -4.443   7.282  -0.367  0.00  0.00    +0.118 HD
ENDBRANCH  15  16
ENDBRANCH  14  15
ENDBRANCH  11  14
ENDBRANCH   8  11
ENDBRANCH   5   7
BRANCH   3  19
ATOM     19  N   LIG    1        1.317  -0.257   2.924  0.00  0.00    -0.325 NA
ATOM     20  H   LIG    1        1.966  -1.004   3.234  0.00  0.00    +0.119 HD
ATOM     21  H   LIG    1        1.829   0.624   2.684  0.00  0.00    +0.119 HD
ENDBRANCH   3  19
BRANCH   1  22
ATOM     22  O   LIG    1        0.810  -0.927  -1.789  0.00  0.00    -0.387 OA
ATOM     23  H   LIG    1        1.541  -1.582  -1.795  0.00  0.00    +0.210 HD
ENDBRANCH   1  22
BRANCH   6  24
ATOM     24  O   LIG    1       -2.136  -1.432  -0.811  0.00  0.00    -0.341 OA
BRANCH  24  25
ATOM     25  C   LIG    1       -2.709  -1.288  -2.047  0.00  0.00    +0.281 C 
ATOM     26  C   LIG    1       -4.191  -1.192  -1.926  0.00  0.00    +0.190 C 
ATOM     27  C   LIG    1       -4.933  -2.423  -1.553  0.00  0.00    +0.121 C 
ATOM     28  C   LIG    1       -4.333  -3.659  -2.144  0.00  0.00    +0.104 C 
ATOM     29  C   LIG    1       -4.773  -4.902  -1.371  0.00  0.00    +0.045 C 
ATOM     30  C   LIG    1       -2.831  -3.565  -2.156  0.00  0.00    +0.199 C 
ATOM     31  O   LIG    1       -2.462  -2.424  -2.857  0.00  0.00    -0.346 OA
BRANCH  27  32
ATOM     32  N   LIG    1       -6.305  -2.213  -2.015  0.00  0.00    -0.311 NA
ATOM     33  C   LIG    1       -7.232  -3.220  -1.643  0.00  0.00    +0.101 C 
ATOM     34  H   LIG    1       -6.659  -1.294  -1.661  0.00  0.00    +0.122 HD
ENDBRANCH  27  32
BRANCH  28  35
ATOM     35  O   LIG    1       -4.742  -3.852  -3.473  0.00  0.00    -0.385 OA
ATOM     36  H   LIG    1       -4.633  -4.809  -3.738  0.00  0.00    +0.210 HD
ENDBRANCH  28  35
BRANCH  26  37
ATOM     37  O   LIG    1       -4.520  -0.146  -1.034  0.00  0.00    -0.385 OA
ATOM     38  H   LIG    1       -4.225   0.681  -1.498  0.00  0.00    +0.210 HD
ENDBRANCH  26  37
ENDBRANCH  24  25
ENDBRANCH   6  24
BRANCH   2  39
ATOM     39  O   LIG    1        2.397  -0.877   0.457  0.00  0.00    -0.333 OA
BRANCH  39  40
ATOM     40  C   LIG    1        3.328   0.117   0.228  0.00  0.00    +0.324 C 
ATOM     41  O   LIG    1        4.175   0.126   1.364  0.00  0.00    -0.465 OA
ATOM     42  C   LIG    1        5.544  -0.155   1.308  0.00  0.00    +0.111 C 
ATOM     43  C   LIG    1        6.201   0.079   0.189  0.00  0.00    +0.017 C 
ATOM     44  C   LIG    1        5.417   0.631  -0.936  0.00  0.00    +0.055 C 
ATOM     45  C   LIG    1        4.145  -0.228  -0.974  0.00  0.00    +0.124 C 
BRANCH  45  46
ATOM     46  N   LIG    1        4.617  -1.616  -0.841  0.00  0.00    -0.322 NA
ATOM     47  H   LIG    1        4.406  -1.984   0.115  0.00  0.00    +0.119 HD
ATOM     48  H   LIG    1        5.630  -1.709  -1.088  0.00  0.00    +0.119 HD
ENDBRANCH  45  46
BRANCH  42  49
ATOM     49  C   LIG    1        6.288  -0.709   2.465  0.00  0.00    +0.155 C 
BRANCH  49  50
ATOM     50  N   LIG    1        6.269   0.113   3.626  0.00  0.00    -0.307 NA
ATOM     51  H   LIG    1        6.299  -0.380   4.524  0.00  0.00    +0.122 HD
BRANCH  50  52
ATOM     52  C   LIG    1        6.966   1.346   3.570  0.00  0.00    +0.109 C 
BRANCH  52  53
ATOM     53  C   LIG    1        8.455   1.272   3.495  0.00  0.00    +0.171 C 
BRANCH  53  54
ATOM     54  O   LIG    1        8.959   0.604   2.395  0.00  0.00    -0.394 OA
ATOM     55  H   LIG    1        9.801   0.997   2.047  0.00  0.00    +0.209 HD
ENDBRANCH  53  54
ENDBRANCH  52  53
ENDBRANCH  50  52
ENDBRANCH  49  50
ENDBRANCH  42  49
ENDBRANCH  39  40
ENDBRANCH   2  39
TORSDOF 21
