REMARK  Name = molecules/IYIKLHRQXLHMJQ-UHFFFAOYSA-N.pdb
REMARK                            x       y       z     vdW  Elec       q    Type
REMARK                         _______ _______ _______ _____ _____    ______ ____
ROOT
ATOM      1  C   LIG    1        0.955   1.127   0.217  0.00  0.00    -0.002 A 
ATOM      2  C   LIG    1       -0.068   2.085   0.334  0.00  0.00    +0.025 A 
ATOM      3  C   LIG    1       -1.289   1.960  -0.323  0.00  0.00    +0.056 A 
ATOM      4  I   LIG    1       -2.642   3.571  -0.038  0.00  0.00    -0.040 I 
ATOM      5  C   LIG    1       -1.554   0.882  -1.127  0.00  0.00    +0.147 A 
ATOM      6  C   LIG    1       -0.525  -0.077  -1.242  0.00  0.00    +0.056 A 
ATOM      7  I   LIG    1       -0.898  -1.761  -2.461  0.00  0.00    -0.040 I 
ATOM      8  C   LIG    1        0.670   0.048  -0.598  0.00  0.00    +0.025 A 
ENDROOT
BRANCH   1   9
ATOM      9  C   LIG    1        2.171   1.301   0.970  0.00  0.00    +0.198 C 
ATOM     10  O   LIG    1        1.959   1.989   2.087  0.00  0.00    -0.213 OA
BRANCH   9  11
ATOM     11  C   LIG    1        3.513   0.901   0.776  0.00  0.00    +0.044 A 
ATOM     12  C   LIG    1        4.188  -0.284   1.027  0.00  0.00    +0.113 A 
ATOM     13  O   LIG    1        5.461  -0.098   0.842  0.00  0.00    -0.459 OA
ATOM     14  C   LIG    1        5.728   1.141   0.472  0.00  0.00    +0.136 A 
ATOM     15  C   LIG    1        6.913   1.795   0.162  0.00  0.00    +0.047 A 
ATOM     16  C   LIG    1        6.891   3.130  -0.203  0.00  0.00    +0.004 A 
ATOM     17  C   LIG    1        5.684   3.833  -0.262  0.00  0.00    +0.001 A 
ATOM     18  C   LIG    1        4.541   3.146   0.051  0.00  0.00    +0.012 A 
ATOM     19  C   LIG    1        4.525   1.817   0.413  0.00  0.00    +0.027 A 
BRANCH  12  20
ATOM     20  C   LIG    1        3.543  -1.525   1.418  0.00  0.00    +0.075 C 
BRANCH  20  21
ATOM     21  C   LIG    1        3.452  -2.606   0.399  0.00  0.00    +0.007 C 
BRANCH  21  22
ATOM     22  C   LIG    1        4.751  -3.271   0.012  0.00  0.00    -0.003 C 
ATOM     23  C   LIG    1        5.788  -2.490  -0.670  0.00  0.00    +0.004 C 
ENDBRANCH  21  22
ENDBRANCH  20  21
ENDBRANCH  12  20
ENDBRANCH   9  11
ENDBRANCH   1   9
BRANCH   5  24
ATOM     24  O   LIG    1       -2.729   0.685  -1.794  0.00  0.00    -0.489 OA
BRANCH  24  25
ATOM     25  C   LIG    1       -3.838  -0.057  -1.452  0.00  0.00    +0.244 C 
BRANCH  25  26
ATOM     26  C   LIG    1       -4.572   0.333  -0.213  0.00  0.00    +0.125 C 
BRANCH  26  27
ATOM     27  N   LIG    1       -5.704  -0.489   0.089  0.00  0.00    -0.300 NA
BRANCH  27  28
ATOM     28  C   LIG    1       -6.665   0.132   0.930  0.00  0.00    +0.081 C 
ATOM     29  C   LIG    1       -7.343   1.284   0.162  0.00  0.00    +0.020 C 
ENDBRANCH  27  28
BRANCH  27  30
ATOM     30  C   LIG    1       -5.982  -1.606  -0.652  0.00  0.00    +0.081 C 
ATOM     31  C   LIG    1       -7.174  -2.373  -0.076  0.00  0.00    +0.020 C 
ENDBRANCH  27  30
ENDBRANCH  26  27
ENDBRANCH  25  26
ENDBRANCH  24  25
ENDBRANCH   5  24
TORSDOF 11
