REMARK  Name = molecules/IYIYMCASGKQOCZ-DJRRULDNSA-N.pdb
REMARK                            x       y       z     vdW  Elec       q    Type
REMARK                         _______ _______ _______ _____ _____    ______ ____
ROOT
ATOM      1  C   LIG    1       -0.131  -1.355   0.213  0.00  0.00    -0.068 C 
ATOM      2  C   LIG    1        0.836  -0.439   0.638  0.00  0.00    -0.001 C 
ATOM      3  C   LIG    1        0.335  -2.600  -0.396  0.00  0.00    +0.039 C 
ENDROOT
BRANCH   2   4
ATOM      4  C   LIG    1        2.114  -1.050   0.635  0.00  0.00    +0.000 C 
ATOM      5  C   LIG    1        3.148  -0.011   0.632  0.00  0.00    +0.003 C 
BRANCH   5   6
ATOM      6  C   LIG    1        4.420  -0.659   0.651  0.00  0.00    -0.046 C 
ATOM      7  C   LIG    1        4.615  -2.095   1.015  0.00  0.00    +0.044 C 
ATOM      8  C   LIG    1        5.407   0.048   0.348  0.00  0.00    +0.070 C 
BRANCH   8   9
ATOM      9  C   LIG    1        6.774  -0.474   0.341  0.00  0.00    +0.237 C 
ATOM     10  N   LIG    1        7.638  -1.220   0.691  0.00  0.00    -0.312 N 
ATOM     11  H   LIG    1        8.043  -2.011   1.213  0.00  0.00    +0.149 HD
ATOM     12  O   LIG    1        7.266   0.476  -0.806  0.00  0.00    -0.271 OA
BRANCH  10  13
ATOM     13  C   LIG    1        9.082  -0.821  -0.226  0.00  0.00    +0.101 C 
ATOM     14  C   LIG    1        9.246   0.629   0.043  0.00  0.00    +0.024 C 
ENDBRANCH  10  13
ENDBRANCH   8   9
ENDBRANCH   5   6
ENDBRANCH   2   4
BRANCH   1  15
ATOM     15  C   LIG    1       -1.300  -0.644   0.247  0.00  0.00    +0.030 C 
BRANCH  15  16
ATOM     16  C   LIG    1       -2.349  -0.139   0.252  0.00  0.00    +0.035 C 
BRANCH  16  17
ATOM     17  C   LIG    1       -3.748   0.224   0.199  0.00  0.00    -0.037 A 
ATOM     18  C   LIG    1       -4.171   1.419   0.467  0.00  0.00    -0.040 A 
ATOM     19  C   LIG    1       -3.406   2.661   0.880  0.00  0.00    +0.044 C 
ATOM     20  C   LIG    1       -5.505   1.694   0.066  0.00  0.00    -0.006 A 
ATOM     21  C   LIG    1       -6.125   2.935   0.715  0.00  0.00    +0.048 C 
ATOM     22  C   LIG    1       -6.355   0.890  -0.547  0.00  0.00    +0.123 A 
ATOM     23  C   LIG    1       -5.969  -0.512  -0.876  0.00  0.00    +0.049 A 
ATOM     24  C   LIG    1       -4.620  -0.664  -0.442  0.00  0.00    -0.043 A 
ATOM     25  C   LIG    1       -3.950  -2.004  -0.915  0.00  0.00    +0.044 C 
BRANCH  22  26
ATOM     26  O   LIG    1       -7.497   1.509  -0.820  0.00  0.00    -0.495 OA
ATOM     27  C   LIG    1       -8.644   2.034  -1.132  0.00  0.00    +0.277 C 
ENDBRANCH  22  26
ENDBRANCH  16  17
ENDBRANCH  15  16
ENDBRANCH   1  15
TORSDOF 8
