REMARK  Name = molecules/IYMMESGOJVNCKV-JOYOIKCWSA-N.pdb
REMARK                            x       y       z     vdW  Elec       q    Type
REMARK                         _______ _______ _______ _____ _____    ______ ____
ROOT
ATOM      1  C   LIG    1       -0.069  -1.061  -0.042  0.00  0.00    +0.161 C 
ENDROOT
BRANCH   1   2
ATOM      2  C   LIG    1       -1.156  -0.132   0.363  0.00  0.00    +0.087 C 
ATOM      3  C   LIG    1       -2.459  -0.848   0.644  0.00  0.00    +0.021 C 
ATOM      4  C   LIG    1       -3.510  -0.496  -0.395  0.00  0.00    +0.003 C 
ATOM      5  C   LIG    1       -3.769   0.982  -0.469  0.00  0.00    +0.015 C 
ATOM      6  C   LIG    1       -2.472   1.751  -0.338  0.00  0.00    +0.081 C 
ATOM      7  N   LIG    1       -1.320   0.935  -0.567  0.00  0.00    -0.311 NA
ATOM      8  H   LIG    1       -1.207   0.653  -1.567  0.00  0.00    +0.122 HD
ENDBRANCH   1   2
BRANCH   1   9
ATOM      9  C   LIG    1        1.299  -0.468  -0.037  0.00  0.00    -0.014 A 
ATOM     10  C   LIG    1        1.521   0.870   0.157  0.00  0.00    +0.010 A 
ATOM     11  C   LIG    1        2.793   1.398   0.171  0.00  0.00    +0.049 A 
ATOM     12  C   LIG    1        3.886   0.550  -0.016  0.00  0.00    +0.158 A 
ATOM     13  C   LIG    1        3.688  -0.797  -0.212  0.00  0.00    +0.159 A 
ATOM     14  C   LIG    1        2.382  -1.297  -0.220  0.00  0.00    +0.055 A 
BRANCH  12  15
ATOM     15  O   LIG    1        5.173   1.079  -0.003  0.00  0.00    -0.503 OA
ATOM     16  H   LIG    1        5.985   0.515  -0.132  0.00  0.00    +0.292 HD
ENDBRANCH  12  15
BRANCH  13  17
ATOM     17  O   LIG    1        4.746  -1.699  -0.406  0.00  0.00    -0.503 OA
ATOM     18  H   LIG    1        5.688  -1.403  -0.410  0.00  0.00    +0.292 HD
ENDBRANCH  13  17
ENDBRANCH   1   9
BRANCH   1  19
ATOM     19  O   LIG    1        0.027  -2.134   0.886  0.00  0.00    -0.386 OA
ATOM     20  H   LIG    1        0.296  -1.687   1.746  0.00  0.00    +0.210 HD
ENDBRANCH   1  19
TORSDOF 5
