REMARK  Name = molecules/IYVFNTXFRYQLRP-VVSTWUKXSA-N.pdb
REMARK                            x       y       z     vdW  Elec       q    Type
REMARK                         _______ _______ _______ _____ _____    ______ ____
ROOT
ATOM      1  C   LIG    1       -0.631   0.907   0.165  0.00  0.00    +0.214 A 
ATOM      2  C   LIG    1       -0.373   2.279   0.094  0.00  0.00    +0.238 A 
ATOM      3  O   LIG    1        0.747   2.753   0.368  0.00  0.00    -0.283 OA
ATOM      4  C   LIG    1       -1.394   3.127  -0.292  0.00  0.00    +0.109 A 
ATOM      5  C   LIG    1       -1.213   4.487  -0.382  0.00  0.00    +0.135 A 
ATOM      6  C   LIG    1       -2.216   5.342  -0.761  0.00  0.00    +0.092 A 
ATOM      7  C   LIG    1       -3.472   4.870  -1.073  0.00  0.00    +0.128 A 
ATOM      8  C   LIG    1       -3.653   3.483  -0.982  0.00  0.00    +0.092 A 
ATOM      9  C   LIG    1       -2.644   2.642  -0.604  0.00  0.00    +0.147 A 
ATOM     10  O   LIG    1       -2.827   1.350  -0.523  0.00  0.00    -0.451 OA
ATOM     11  C   LIG    1       -1.871   0.491  -0.157  0.00  0.00    +0.181 A 
ENDROOT
BRANCH  11  12
ATOM     12  C   LIG    1       -2.235  -0.915  -0.129  0.00  0.00    +0.025 A 
ATOM     13  C   LIG    1       -3.594  -1.233  -0.059  0.00  0.00    +0.061 A 
ATOM     14  C   LIG    1       -4.062  -2.520  -0.108  0.00  0.00    +0.163 A 
ATOM     15  C   LIG    1       -3.152  -3.601  -0.234  0.00  0.00    +0.162 A 
ATOM     16  C   LIG    1       -1.812  -3.239  -0.300  0.00  0.00    +0.050 A 
ATOM     17  C   LIG    1       -1.355  -1.952  -0.251  0.00  0.00    +0.015 A 
BRANCH  15  18
ATOM     18  O   LIG    1       -3.558  -4.807  -0.279  0.00  0.00    -0.486 OA
BRANCH  18  19
ATOM     19  C   LIG    1       -3.682  -6.106  -0.352  0.00  0.00    +0.257 C 
BRANCH  19  20
ATOM     20  C   LIG    1       -3.150  -6.760  -1.642  0.00  0.00    +0.196 C 
BRANCH  20  21
ATOM     21  O   LIG    1       -3.409  -8.138  -1.453  0.00  0.00    -0.392 OA
ATOM     22  H   LIG    1       -4.416  -8.174  -1.336  0.00  0.00    +0.210 HD
ENDBRANCH  20  21
ENDBRANCH  19  20
ENDBRANCH  18  19
ENDBRANCH  15  18
BRANCH  14  23
ATOM     23  O   LIG    1       -5.370  -2.903  -0.049  0.00  0.00    -0.486 OA
BRANCH  23  24
ATOM     24  C   LIG    1       -6.474  -2.089   0.033  0.00  0.00    +0.257 C 
BRANCH  24  25
ATOM     25  C   LIG    1       -6.750  -1.193  -1.127  0.00  0.00    +0.196 C 
BRANCH  25  26
ATOM     26  O   LIG    1       -6.947  -1.932  -2.315  0.00  0.00    -0.392 OA
ATOM     27  H   LIG    1       -7.580  -2.678  -2.170  0.00  0.00    +0.210 HD
ENDBRANCH  25  26
ENDBRANCH  24  25
ENDBRANCH  23  24
ENDBRANCH  14  23
ENDBRANCH  11  12
BRANCH   5  28
ATOM     28  O   LIG    1        0.040   5.021  -0.075  0.00  0.00    -0.506 OA
ATOM     29  H   LIG    1        0.207   6.002  -0.128  0.00  0.00    +0.292 HD
ENDBRANCH   5  28
BRANCH   1  30
ATOM     30  O   LIG    1        0.432   0.131   0.586  0.00  0.00    -0.453 OA
BRANCH  30  31
ATOM     31  C   LIG    1        0.799   0.023   1.938  0.00  0.00    +0.340 C 
ATOM     32  C   LIG    1        0.452  -1.255   2.585  0.00  0.00    +0.214 C 
ATOM     33  C   LIG    1        1.388  -2.393   2.365  0.00  0.00    +0.180 C 
ATOM     34  C   LIG    1        2.761  -1.845   1.909  0.00  0.00    +0.177 C 
ATOM     35  C   LIG    1        2.948  -0.558   2.619  0.00  0.00    +0.179 C 
ATOM     36  O   LIG    1        2.109   0.446   2.152  0.00  0.00    -0.331 OA
BRANCH  33  37
ATOM     37  O   LIG    1        1.002  -3.339   1.457  0.00  0.00    -0.386 OA
ATOM     38  H   LIG    1        1.516  -3.282   0.621  0.00  0.00    +0.210 HD
ENDBRANCH  33  37
BRANCH  34  39
ATOM     39  O   LIG    1        3.670  -2.811   2.358  0.00  0.00    -0.386 OA
ATOM     40  H   LIG    1        3.987  -3.314   1.589  0.00  0.00    +0.210 HD
ENDBRANCH  34  39
BRANCH  32  41
ATOM     41  O   LIG    1        0.299  -1.038   4.013  0.00  0.00    -0.383 OA
ATOM     42  H   LIG    1       -0.090  -0.127   4.032  0.00  0.00    +0.210 HD
ENDBRANCH  32  41
BRANCH  35  43
ATOM     43  C   LIG    1        4.332  -0.069   2.797  0.00  0.00    +0.197 C 
BRANCH  43  44
ATOM     44  O   LIG    1        5.027   0.464   1.793  0.00  0.00    -0.346 OA
BRANCH  44  45
ATOM     45  C   LIG    1        5.401  -0.187   0.683  0.00  0.00    +0.282 C 
ATOM     46  O   LIG    1        6.802  -0.319   0.573  0.00  0.00    -0.343 OA
ATOM     47  C   LIG    1        7.363   0.342  -0.480  0.00  0.00    +0.149 C 
ATOM     48  C   LIG    1        8.860  -0.022  -0.453  0.00  0.00    +0.041 C 
ATOM     49  C   LIG    1        6.855  -0.136  -1.827  0.00  0.00    +0.174 C 
ATOM     50  C   LIG    1        5.370  -0.503  -1.722  0.00  0.00    +0.179 C 
ATOM     51  C   LIG    1        4.857   0.415  -0.604  0.00  0.00    +0.201 C 
BRANCH  51  52
ATOM     52  O   LIG    1        3.495   0.503  -0.597  0.00  0.00    -0.384 OA
ATOM     53  H   LIG    1        3.230   1.073  -1.383  0.00  0.00    +0.210 HD
ENDBRANCH  51  52
BRANCH  49  54
ATOM     54  O   LIG    1        6.916   0.930  -2.717  0.00  0.00    -0.387 OA
ATOM     55  H   LIG    1        7.580   1.605  -2.510  0.00  0.00    +0.210 HD
ENDBRANCH  49  54
BRANCH  50  56
ATOM     56  O   LIG    1        5.353  -1.798  -1.206  0.00  0.00    -0.386 OA
ATOM     57  H   LIG    1        5.982  -2.395  -1.687  0.00  0.00    +0.210 HD
ENDBRANCH  50  56
ENDBRANCH  44  45
ENDBRANCH  43  44
ENDBRANCH  35  43
ENDBRANCH  30  31
ENDBRANCH   1  30
BRANCH   7  58
ATOM     58  O   LIG    1       -4.531   5.646  -1.460  0.00  0.00    -0.489 OA
BRANCH  58  59
ATOM     59  C   LIG    1       -4.678   6.996  -1.616  0.00  0.00    +0.256 C 
BRANCH  59  60
ATOM     60  C   LIG    1       -4.527   7.855  -0.397  0.00  0.00    +0.196 C 
BRANCH  60  61
ATOM     61  O   LIG    1       -4.715   9.202  -0.777  0.00  0.00    -0.392 OA
ATOM     62  H   LIG    1       -4.681   9.794   0.037  0.00  0.00    +0.210 HD
ENDBRANCH  60  61
ENDBRANCH  59  60
ENDBRANCH  58  59
ENDBRANCH   7  58
TORSDOF 25
