REMARK  Name = molecules/IZBNNCFOBMGTQX-UHFFFAOYSA-N.pdb
REMARK                            x       y       z     vdW  Elec       q    Type
REMARK                         _______ _______ _______ _____ _____    ______ ____
ROOT
ATOM      1  C   LIG    1        0.531   0.581   2.524  0.00  0.00    +0.086 C 
ENDROOT
BRANCH   1   2
ATOM      2  N   LIG    1        1.486   0.447   1.470  0.00  0.00    -0.299 NA
ATOM      3  C   LIG    1        2.817   0.850   1.914  0.00  0.00    +0.103 C 
ATOM      4  C   LIG    1        3.711   0.989   0.721  0.00  0.00    +0.120 C 
ATOM      5  N   LIG    1        3.691  -0.164  -0.129  0.00  0.00    -0.327 N 
ATOM      6  C   LIG    1        2.583  -1.074  -0.145  0.00  0.00    +0.120 C 
ATOM      7  C   LIG    1        1.595  -0.889   0.952  0.00  0.00    +0.103 C 
BRANCH   5   8
ATOM      8  C   LIG    1        4.825  -0.401  -1.002  0.00  0.00    +0.031 A 
ATOM      9  C   LIG    1        5.879   0.479  -1.088  0.00  0.00    +0.043 A 
ATOM     10  C   LIG    1        6.954   0.205  -1.943  0.00  0.00    +0.043 A 
ATOM     11 CL   LIG    1        8.303   1.319  -2.061  0.00  0.00    -0.083 Cl
ATOM     12  C   LIG    1        6.991  -0.935  -2.715  0.00  0.00    +0.020 A 
ATOM     13  C   LIG    1        5.941  -1.821  -2.635  0.00  0.00    +0.003 A 
ATOM     14  C   LIG    1        4.876  -1.540  -1.781  0.00  0.00    +0.023 A 
ENDBRANCH   5   8
ENDBRANCH   1   2
BRANCH   1  15
ATOM     15  C   LIG    1       -0.834   0.197   2.067  0.00  0.00    +0.039 C 
BRANCH  15  16
ATOM     16  C   LIG    1       -1.243   1.103   0.903  0.00  0.00    +0.150 C 
BRANCH  16  20
ATOM     17  N   LIG    1       -4.769   0.586   0.454  0.00  0.00    -0.280 N 
ATOM     18  C   LIG    1       -3.716   1.191   1.033  0.00  0.00    +0.347 A 
ATOM     19  O   LIG    1       -3.768   2.090   1.918  0.00  0.00    -0.245 OA
ATOM     20  N   LIG    1       -2.583   0.676   0.507  0.00  0.00    -0.213 N 
ATOM     21  N   LIG    1       -2.925  -0.231  -0.382  0.00  0.00    -0.154 NA
ATOM     22  C   LIG    1       -4.271  -0.305  -0.431  0.00  0.00    +0.134 A 
BRANCH  17  23
ATOM     23  C   LIG    1       -6.151   0.878   0.766  0.00  0.00    +0.125 C 
ATOM     24  C   LIG    1       -6.676   1.979  -0.127  0.00  0.00    +0.027 C 
ENDBRANCH  17  23
BRANCH  22  25
ATOM     25  C   LIG    1       -5.070  -1.190  -1.290  0.00  0.00    +0.073 C 
ATOM     26  C   LIG    1       -4.148  -2.036  -2.140  0.00  0.00    +0.012 C 
ENDBRANCH  22  25
ENDBRANCH  16  20
ENDBRANCH  15  16
ENDBRANCH   1  15
TORSDOF 7
