REMARK  Name = molecules/IZLPZXSZLLELBJ-OAQYLSRUSA-N.pdb
REMARK                            x       y       z     vdW  Elec       q    Type
REMARK                         _______ _______ _______ _____ _____    ______ ____
ROOT
ATOM      1  C   LIG    1       -1.460  -1.454  -1.827  0.00  0.00    +0.106 C 
ENDROOT
BRANCH   1   2
ATOM      2  C   LIG    1       -1.814  -2.259  -0.619  0.00  0.00    -0.030 A 
ATOM      3  C   LIG    1       -1.742  -1.739   0.645  0.00  0.00    +0.005 A 
ATOM      4  C   LIG    1       -2.082  -2.487   1.743  0.00  0.00    +0.000 A 
ATOM      5  C   LIG    1       -2.507  -3.789   1.578  0.00  0.00    +0.000 A 
ATOM      6  C   LIG    1       -2.581  -4.311   0.314  0.00  0.00    +0.000 A 
ATOM      7  C   LIG    1       -2.237  -3.559  -0.793  0.00  0.00    +0.005 A 
ENDBRANCH   1   2
BRANCH   1   8
ATOM      8  C   LIG    1       -0.078  -0.907  -1.685  0.00  0.00    -0.030 A 
ATOM      9  C   LIG    1        1.012  -1.685  -1.380  0.00  0.00    +0.006 A 
ATOM     10  C   LIG    1        2.262  -1.093  -1.287  0.00  0.00    +0.015 A 
ATOM     11  C   LIG    1        2.479   0.252  -1.486  0.00  0.00    +0.008 A 
ATOM     12  C   LIG    1        1.365   1.028  -1.793  0.00  0.00    +0.015 A 
ATOM     13  C   LIG    1        0.107   0.439  -1.888  0.00  0.00    +0.006 A 
BRANCH  11  14
ATOM     14  S   LIG    1        4.090   1.015  -1.367  0.00  0.00    -0.125 S 
BRANCH  14  15
ATOM     15  C   LIG    1        4.467   1.616   0.274  0.00  0.00    +0.074 C 
BRANCH  15  16
ATOM     16  C   LIG    1        4.594   0.444   1.225  0.00  0.00    +0.011 C 
BRANCH  16  17
ATOM     17  C   LIG    1        5.700  -0.489   0.780  0.00  0.00    -0.003 C 
ATOM     18  C   LIG    1        7.000   0.298   0.761  0.00  0.00    +0.004 C 
ENDBRANCH  16  17
ENDBRANCH  15  16
ENDBRANCH  14  15
ENDBRANCH  11  14
ENDBRANCH   1   8
BRANCH   1  19
ATOM     19  S   LIG    1       -2.706  -0.192  -2.063  0.00  0.00    -0.147 S 
BRANCH  19  20
ATOM     20  C   LIG    1       -3.020   0.829  -0.635  0.00  0.00    +0.085 C 
BRANCH  20  21
ATOM     21  C   LIG    1       -4.021   1.911  -1.001  0.00  0.00    +0.094 C 
BRANCH  21  22
ATOM     22  N   LIG    1       -4.330   2.775   0.099  0.00  0.00    -0.308 NA
ATOM     23  C   LIG    1       -5.089   2.171   1.148  0.00  0.00    +0.104 C 
ATOM     24  C   LIG    1       -3.249   3.611   0.523  0.00  0.00    +0.104 C 
ENDBRANCH  21  22
ENDBRANCH  20  21
ENDBRANCH  19  20
ENDBRANCH   1  19
TORSDOF 10
