REMARK  Name = molecules/IZOYMGQQVNAMHS-UHFFFAOYSA-N.pdb
REMARK                            x       y       z     vdW  Elec       q    Type
REMARK                         _______ _______ _______ _____ _____    ______ ____
ROOT
ATOM      1  S   LIG    1       -0.113  -0.461  -2.114  0.00  0.00    +0.074 S 
ATOM      2  O   LIG    1        0.105  -1.908  -2.544  0.00  0.00    -0.150 OA
ATOM      3  O   LIG    1       -0.589   0.293  -3.339  0.00  0.00    -0.150 OA
ENDROOT
BRANCH   1   4
ATOM      4  C   LIG    1       -1.425  -0.497  -0.975  0.00  0.00    +0.109 A 
ATOM      5  C   LIG    1       -1.714  -1.518  -0.120  0.00  0.00    +0.030 A 
ATOM      6  C   LIG    1       -2.777  -1.443   0.746  0.00  0.00    +0.024 A 
ATOM      7  C   LIG    1       -3.591  -0.331   0.781  0.00  0.00    +0.025 A 
ATOM      8  C   LIG    1       -3.316   0.730  -0.085  0.00  0.00    +0.024 A 
ATOM      9  C   LIG    1       -2.249   0.621  -0.934  0.00  0.00    +0.030 A 
BRANCH   7  10
ATOM     10  N   LIG    1       -4.691  -0.224   1.660  0.00  0.00    -0.358 N 
ATOM     11  H   LIG    1       -4.579   0.240   2.575  0.00  0.00    +0.142 HD
ATOM     12  H   LIG    1       -5.613  -0.608   1.398  0.00  0.00    +0.142 HD
ENDBRANCH   7  10
ENDBRANCH   1   4
BRANCH   1  13
ATOM     13  N   LIG    1        1.311   0.244  -1.529  0.00  0.00    -0.195 N 
ATOM     14  H   LIG    1        1.696   1.091  -1.980  0.00  0.00    +0.175 HD
BRANCH  13  15
ATOM     15  C   LIG    1        2.002  -0.312  -0.414  0.00  0.00    +0.210 A 
ATOM     16  N   LIG    1        1.521  -1.415   0.190  0.00  0.00    -0.170 NA
ATOM     17  S   LIG    1        2.608  -1.733   1.429  0.00  0.00    +0.121 S 
ATOM     18  N   LIG    1        3.660  -0.458   1.162  0.00  0.00    -0.153 NA
ATOM     19  C   LIG    1        3.141   0.180   0.120  0.00  0.00    +0.266 A 
BRANCH  19  20
ATOM     20  O   LIG    1        3.796   1.330  -0.376  0.00  0.00    -0.477 OA
ATOM     21  C   LIG    1        4.965   1.847   0.161  0.00  0.00    +0.279 C 
ENDBRANCH  19  20
ENDBRANCH  13  15
ENDBRANCH   1  13
TORSDOF 5
