REMARK  Name = molecules/IZYQCDNLUPLXOO-UHFFFAOYSA-N.pdb
REMARK                            x       y       z     vdW  Elec       q    Type
REMARK                         _______ _______ _______ _____ _____    ______ ____
ROOT
ATOM      1  O   LIG    1        0.146   0.742   0.206  0.00  0.00    -0.419 OA
ENDROOT
BRANCH   1   2
ATOM      2  C   LIG    1       -1.156   1.186  -0.036  0.00  0.00    +0.173 A 
ATOM      3  C   LIG    1       -2.244   0.412   0.365  0.00  0.00    +0.162 A 
ATOM      4  C   LIG    1       -3.538   0.807   0.149  0.00  0.00    +0.049 A 
ATOM      5  C   LIG    1       -3.753   2.013  -0.488  0.00  0.00    +0.004 A 
ATOM      6  C   LIG    1       -2.714   2.796  -0.894  0.00  0.00    +0.004 A 
ATOM      7  C   LIG    1       -1.429   2.382  -0.668  0.00  0.00    +0.050 A 
BRANCH   3   8
ATOM      8  O   LIG    1       -2.011  -0.793   1.001  0.00  0.00    -0.491 OA
ATOM      9  C   LIG    1       -3.061  -1.619   1.429  0.00  0.00    +0.277 C 
ENDBRANCH   3   8
ENDBRANCH   1   2
BRANCH   1  10
ATOM     10  C   LIG    1        0.854  -0.032  -0.680  0.00  0.00    +0.345 C 
ATOM     11  O   LIG    1        0.291  -0.351  -1.759  0.00  0.00    -0.245 OA
BRANCH  10  12
ATOM     12  C   LIG    1        2.217  -0.498  -0.429  0.00  0.00    +0.059 A 
ATOM     13  C   LIG    1        2.897  -0.188   0.730  0.00  0.00    +0.015 A 
ATOM     14  C   LIG    1        4.189  -0.626   0.975  0.00  0.00    +0.001 A 
ATOM     15  C   LIG    1        4.822  -1.392   0.043  0.00  0.00    +0.000 A 
ATOM     16  C   LIG    1        4.173  -1.720  -1.127  0.00  0.00    +0.001 A 
ATOM     17  C   LIG    1        2.876  -1.274  -1.359  0.00  0.00    +0.015 A 
ENDBRANCH  10  12
ENDBRANCH   1  10
TORSDOF 4
