REMARK  Name = molecules/JAJLKEVKNDUJBG-UHFFFAOYSA-N.pdb
REMARK                            x       y       z     vdW  Elec       q    Type
REMARK                         _______ _______ _______ _____ _____    ______ ____
ROOT
ATOM      1  N   LIG    1       -0.169   0.196   0.209  0.00  0.00    -0.107 NA
ENDROOT
BRANCH   1   2
ATOM      2  C   LIG    1        1.270   0.310   0.108  0.00  0.00    +0.386 C 
ATOM      3  F   LIG    1        1.706   1.424   0.789  0.00  0.00    -0.180 F 
ATOM      4  F   LIG    1        1.509   0.453  -1.273  0.00  0.00    -0.180 F 
BRANCH   2   5
ATOM      5  C   LIG    1        2.131  -0.789   0.560  0.00  0.00    +0.417 C 
ATOM      6  F   LIG    1        2.150  -1.043   1.905  0.00  0.00    -0.187 F 
ATOM      7  F   LIG    1        2.146  -1.928  -0.240  0.00  0.00    -0.187 F 
BRANCH   5   8
ATOM      8  C   LIG    1        3.590  -0.284   0.305  0.00  0.00    +0.462 C 
ATOM      9  F   LIG    1        3.873   0.776   1.131  0.00  0.00    -0.165 F 
ATOM     10  F   LIG    1        4.395  -1.341   0.699  0.00  0.00    -0.165 F 
ATOM     11  F   LIG    1        3.773  -0.018  -1.023  0.00  0.00    -0.165 F 
ENDBRANCH   5   8
ENDBRANCH   2   5
ENDBRANCH   1   2
BRANCH   1  12
ATOM     12  C   LIG    1       -0.600  -1.163   0.071  0.00  0.00    +0.386 C 
ATOM     13  F   LIG    1        0.005  -2.002   1.005  0.00  0.00    -0.180 F 
ATOM     14  F   LIG    1       -0.177  -1.696  -1.169  0.00  0.00    -0.180 F 
BRANCH  12  15
ATOM     15  C   LIG    1       -2.033  -1.501   0.199  0.00  0.00    +0.417 C 
ATOM     16  F   LIG    1       -2.639  -1.237   1.377  0.00  0.00    -0.187 F 
ATOM     17  F   LIG    1       -2.806  -1.158  -0.933  0.00  0.00    -0.187 F 
BRANCH  15  18
ATOM     18  C   LIG    1       -2.153  -3.062   0.065  0.00  0.00    +0.462 C 
ATOM     19  F   LIG    1       -1.403  -3.593   1.085  0.00  0.00    -0.165 F 
ATOM     20  F   LIG    1       -3.463  -3.427   0.172  0.00  0.00    -0.165 F 
ATOM     21  F   LIG    1       -1.589  -3.377  -1.149  0.00  0.00    -0.165 F 
ENDBRANCH  15  18
ENDBRANCH  12  15
ENDBRANCH   1  12
BRANCH   1  22
ATOM     22  C   LIG    1       -0.768   1.009  -0.777  0.00  0.00    +0.386 C 
ATOM     23  F   LIG    1       -2.174   1.046  -0.598  0.00  0.00    -0.180 F 
ATOM     24  F   LIG    1       -0.559   0.580  -2.054  0.00  0.00    -0.180 F 
BRANCH  22  25
ATOM     25  C   LIG    1       -0.521   2.489  -0.711  0.00  0.00    +0.417 C 
ATOM     26  F   LIG    1        0.738   2.867  -1.094  0.00  0.00    -0.187 F 
ATOM     27  F   LIG    1       -1.327   2.993  -1.730  0.00  0.00    -0.187 F 
BRANCH  25  28
ATOM     28  C   LIG    1       -1.019   3.169   0.519  0.00  0.00    +0.462 C 
ATOM     29  F   LIG    1       -0.745   2.656   1.719  0.00  0.00    -0.165 F 
ATOM     30  F   LIG    1       -0.708   4.514   0.427  0.00  0.00    -0.165 F 
ATOM     31  F   LIG    1       -2.433   3.139   0.405  0.00  0.00    -0.165 F 
ENDBRANCH  25  28
ENDBRANCH  22  25
ENDBRANCH   1  22
TORSDOF 9
