REMARK  Name = molecules/JAONZGLTYYUPCT-UHFFFAOYSA-K.pdb
REMARK                            x       y       z     vdW  Elec       q    Type
REMARK                         _______ _______ _______ _____ _____    ______ ____
ROOT
ATOM      1  C   LIG    1       -0.568  -1.470   0.054  0.00  0.00    +0.000 A 
ATOM      2  C   LIG    1        0.760  -1.502   0.384  0.00  0.00    +0.000 A 
ATOM      3  C   LIG    1        1.514  -0.368   0.238  0.00  0.00    +0.000 A 
ATOM      4  C   LIG    1        0.881   0.752  -0.239  0.00  0.00    +0.000 A 
ATOM      5  C   LIG    1       -0.504   0.793  -0.585  0.00  0.00    +0.000 A 
ATOM      6  O   LIG    1       -1.029   1.992  -1.059  0.00  0.00    +0.000 OA
ATOM      7 BI   LIG    1       -3.153   1.709  -0.780  0.00  0.00    +0.000 Bi
ATOM      8  O   LIG    1       -2.574  -0.377  -0.746  0.00  0.00    +0.000 OA
ATOM      9  C   LIG    1       -1.217  -0.296  -0.441  0.00  0.00    +0.000 A 
ENDROOT
BRANCH   1  10
ATOM     10  O   LIG    1       -1.260  -2.660   0.231  0.00  0.00    +0.000 OA
ATOM     11  H   LIG    1       -0.812  -3.476   0.575  0.00  0.00    +0.000 HD
ENDBRANCH   1  10
BRANCH   3  12
ATOM     12  C   LIG    1        2.925  -0.369   0.579  0.00  0.00    +0.000 C 
ATOM     13  O   LIG    1        3.461  -1.403   1.007  0.00  0.00    +0.000 OA
BRANCH  12  14
ATOM     14  O   LIG    1        3.673   0.772   0.429  0.00  0.00    +0.000 OA
ATOM     15  H   LIG    1        3.597   1.572   1.039  0.00  0.00    +0.000 HD
ENDBRANCH  12  14
ENDBRANCH   3  12
BRANCH   7  16
ATOM     16  O   LIG    1       -3.774   2.357   1.116  0.00  0.00    +0.000 OA
ATOM     17  H   LIG    1       -4.696   2.752   1.076  0.00  0.00    +0.000 HD
ENDBRANCH   7  16
TORSDOF 4
