REMARK  Name = molecules/JAPHQRWPEGVNBT-UTUOFQBUSA-N.pdb
REMARK                            x       y       z     vdW  Elec       q    Type
REMARK                         _______ _______ _______ _____ _____    ______ ____
ROOT
ATOM      1  O   LIG    1        1.587   2.737  -1.283  0.00  0.00    -0.273 OA
ATOM      2  C   LIG    1        1.794   1.819  -0.483  0.00  0.00    +0.242 C 
ATOM      3  CA  LIG    1        1.095   1.125   0.615  0.00  0.00    +0.180 C 
ATOM      4  C   LIG    1        2.421   0.609   1.131  0.00  0.00    +0.111 C 
ATOM      5  C   LIG    1        2.558  -0.828   1.435  0.00  0.00    +0.031 C 
ATOM      6  C   LIG    1        3.164  -1.671   0.349  0.00  0.00    +0.051 C 
ATOM      7  C   LIG    1        4.234  -0.978  -0.381  0.00  0.00    +0.047 C 
ATOM      8  CA  LIG    1        4.090   0.310  -0.664  0.00  0.00    +0.136 C 
ATOM      9 CL   LIG    1        5.706  -1.767  -0.902  0.00  0.00    -0.086 Cl
ATOM     10  N   LIG    1        2.892   0.936  -0.231  0.00  0.00    -0.258 N 
ENDROOT
BRANCH   3  11
ATOM     11  N   LIG    1        0.127   0.141   0.270  0.00  0.00    -0.301 N 
ATOM     12  C   LIG    1       -1.169   0.164   0.875  0.00  0.00    +0.235 C 
ATOM     13  O   LIG    1       -1.478   1.046   1.715  0.00  0.00    -0.274 OA
ATOM     14  H   LIG    1        0.327  -0.609  -0.419  0.00  0.00    +0.150 HD
BRANCH  12  15
ATOM     15  CA  LIG    1       -2.197  -0.845   0.537  0.00  0.00    +0.168 C 
BRANCH  15  16
ATOM     16  C   LIG    1       -3.418  -0.285  -0.077  0.00  0.00    -0.022 A 
ATOM     17  C   LIG    1       -3.726   1.032  -0.193  0.00  0.00    +0.005 A 
ATOM     18  C   LIG    1       -4.899   1.445  -0.792  0.00  0.00    +0.000 A 
ATOM     19  C   LIG    1       -5.772   0.525  -1.280  0.00  0.00    +0.000 A 
ATOM     20  C   LIG    1       -5.477  -0.819  -1.171  0.00  0.00    +0.000 A 
ATOM     21  C   LIG    1       -4.311  -1.241  -0.577  0.00  0.00    +0.005 A 
ENDBRANCH  15  16
BRANCH  15  22
ATOM     22  N   LIG    1       -1.691  -1.851  -0.375  0.00  0.00    -0.316 NA
ATOM     23  H1  LIG    1       -2.173  -2.745  -0.156  0.00  0.00    +0.119 HD
ATOM     24  H2  LIG    1       -1.947  -1.558  -1.339  0.00  0.00    +0.119 HD
ENDBRANCH  15  22
ENDBRANCH  12  15
ENDBRANCH   3  11
BRANCH   8  25
ATOM     25  C   LIG    1        5.099   1.054  -1.406  0.00  0.00    +0.352 C 
ATOM     26  O   LIG    1        6.153   0.507  -1.806  0.00  0.00    -0.244 OA
BRANCH  25  27
ATOM     27  OXT LIG    1        4.905   2.388  -1.681  0.00  0.00    -0.476 OA
ATOM     28  HXT LIG    1        5.451   3.144  -1.299  0.00  0.00    +0.295 HD
ENDBRANCH  25  27
ENDBRANCH   8  25
TORSDOF 6
