REMARK  Name = molecules/JAQUASYNZVUNQP-USXIJHARSA-N.pdb
REMARK                            x       y       z     vdW  Elec       q    Type
REMARK                         _______ _______ _______ _____ _____    ______ ____
ROOT
ATOM      1  C   LIG    1       -2.312  -2.117   2.058  0.00  0.00    +0.105 C 
ATOM      2  N   LIG    1       -1.035  -1.556   1.651  0.00  0.00    -0.302 NA
ATOM      3  C   LIG    1       -0.837  -0.338   2.354  0.00  0.00    +0.085 C 
ATOM      4  C   LIG    1        0.225   0.558   1.778  0.00  0.00    +0.027 C 
ATOM      5  C   LIG    1        0.098   0.702   0.279  0.00  0.00    +0.002 C 
ATOM      6  C   LIG    1       -1.173   0.024  -0.116  0.00  0.00    +0.017 C 
ATOM      7  C   LIG    1       -1.544   0.288  -1.548  0.00  0.00    +0.006 C 
ATOM      8  C   LIG    1       -2.012   1.748  -1.581  0.00  0.00    +0.000 C 
ATOM      9  C   LIG    1       -1.414   2.548  -0.459  0.00  0.00    +0.001 C 
ATOM     10  C   LIG    1        0.029   2.137  -0.167  0.00  0.00    +0.012 C 
ATOM     11  C   LIG    1        1.301   0.093  -0.327  0.00  0.00    -0.034 A 
ATOM     12  C   LIG    1        2.410   0.892  -0.569  0.00  0.00    +0.049 A 
ATOM     13  C   LIG    1        3.521   0.303  -1.135  0.00  0.00    +0.117 A 
ATOM     14  C   LIG    1        3.540  -1.042  -1.455  0.00  0.00    +0.045 A 
ATOM     15  C   LIG    1        2.420  -1.807  -1.201  0.00  0.00    +0.007 A 
ATOM     16  C   LIG    1        1.280  -1.232  -0.627  0.00  0.00    -0.042 A 
ATOM     17  C   LIG    1        0.131  -2.103  -0.387  0.00  0.00    +0.054 C 
ATOM     18  C   LIG    1       -1.054  -1.435   0.215  0.00  0.00    +0.065 C 
ENDROOT
BRANCH  13  19
ATOM     19  O   LIG    1        4.638   1.073  -1.386  0.00  0.00    -0.507 OA
ATOM     20  H   LIG    1        5.367   1.173  -0.671  0.00  0.00    +0.292 HD
ENDBRANCH  13  19
TORSDOF 1
