REMARK  Name = molecules/JAUOIFJMECXRGI-UHFFFAOYSA-N.pdb
REMARK                            x       y       z     vdW  Elec       q    Type
REMARK                         _______ _______ _______ _____ _____    ______ ____
ROOT
ATOM      1 CL   LIG    1       -2.314   5.299   1.015  0.00  0.00    -0.084 Cl
ATOM      2  C   LIG    1       -1.684   3.682   0.755  0.00  0.00    +0.041 A 
ATOM      3  C   LIG    1       -0.631   3.248   1.576  0.00  0.00    +0.020 A 
ATOM      4  C   LIG    1       -0.123   1.985   1.388  0.00  0.00    +0.010 A 
ATOM      5  C   LIG    1       -0.678   1.194   0.386  0.00  0.00    -0.013 A 
ATOM      6  C   LIG    1        0.000  -0.102   0.338  0.00  0.00    +0.007 C 
ATOM      7  C   LIG    1        1.287  -0.124   0.330  0.00  0.00    -0.057 C 
ATOM      8  C   LIG    1        2.043  -1.439   0.405  0.00  0.00    +0.046 C 
ATOM      9  C   LIG    1        3.527  -1.075   0.458  0.00  0.00    +0.085 C 
ATOM     10  N   LIG    1        3.926  -0.315  -0.697  0.00  0.00    -0.315 NA
ATOM     11  H   LIG    1        4.930  -0.095  -0.597  0.00  0.00    +0.122 HD
ATOM     12  C   LIG    1        3.131   0.858  -0.877  0.00  0.00    +0.085 C 
ATOM     13  C   LIG    1        2.169   1.047   0.336  0.00  0.00    +0.046 C 
ATOM     14  C   LIG    1       -0.788  -1.361   0.135  0.00  0.00    +0.075 A 
ATOM     15  N   LIG    1       -0.128  -2.418   0.530  0.00  0.00    -0.255 NA
ATOM     16  C   LIG    1       -0.644  -3.651   0.409  0.00  0.00    +0.111 A 
ATOM     17  C   LIG    1       -1.904  -3.840  -0.143  0.00  0.00    +0.020 A 
ATOM     18  C   LIG    1       -2.615  -2.735  -0.565  0.00  0.00    +0.007 A 
ATOM     19  C   LIG    1       -2.061  -1.469  -0.430  0.00  0.00    -0.021 A 
ATOM     20  C   LIG    1       -2.989  -0.446  -0.926  0.00  0.00    +0.042 C 
ATOM     21  C   LIG    1       -2.404   0.816  -1.462  0.00  0.00    +0.040 C 
ATOM     22  C   LIG    1       -1.713   1.643  -0.403  0.00  0.00    -0.038 A 
ATOM     23  C   LIG    1       -2.237   2.900  -0.233  0.00  0.00    +0.024 A 
ENDROOT
TORSDOF 0
