REMARK  Name = molecules/JAZBEHYOTPTENJ-JLNKQSITSA-N.pdb
REMARK                            x       y       z     vdW  Elec       q    Type
REMARK                         _______ _______ _______ _____ _____    ______ ____
ROOT
ATOM      1  C   LIG    1        2.196   0.014  -2.337  0.00  0.00    -0.027 C 
ATOM      2  C   LIG    1        0.944   0.199  -2.048  0.00  0.00    -0.027 C 
ENDROOT
BRANCH   1   3
ATOM      3  C   LIG    1        3.255  -0.332  -1.371  0.00  0.00    +0.053 C 
BRANCH   3   4
ATOM      4  C   LIG    1        4.262   0.761  -1.444  0.00  0.00    -0.027 C 
ATOM      5  C   LIG    1        4.607   1.508  -0.428  0.00  0.00    -0.031 C 
BRANCH   5   6
ATOM      6  C   LIG    1        4.046   1.364   0.913  0.00  0.00    +0.027 C 
BRANCH   6   7
ATOM      7  C   LIG    1        5.222   1.051   1.865  0.00  0.00    +0.015 C 
BRANCH   7   8
ATOM      8  C   LIG    1        5.829  -0.240   1.359  0.00  0.00    +0.121 C 
BRANCH   8   9
ATOM      9  C   LIG    1        6.979  -0.668   2.187  0.00  0.00    +0.305 C 
ATOM     10  O   LIG    1        6.766  -1.205   3.294  0.00  0.00    -0.251 OA
BRANCH   9  11
ATOM     11  O   LIG    1        8.286  -0.489   1.766  0.00  0.00    -0.481 OA
ATOM     12  H   LIG    1        8.565  -0.246   0.830  0.00  0.00    +0.295 HD
ENDBRANCH   9  11
ENDBRANCH   8   9
ENDBRANCH   7   8
ENDBRANCH   6   7
ENDBRANCH   5   6
ENDBRANCH   3   4
ENDBRANCH   1   3
BRANCH   2  13
ATOM     13  C   LIG    1        0.492   0.060  -0.613  0.00  0.00    +0.053 C 
BRANCH  13  14
ATOM     14  C   LIG    1       -0.500  -1.027  -0.563  0.00  0.00    -0.027 C 
ATOM     15  C   LIG    1       -1.730  -0.960  -0.153  0.00  0.00    -0.027 C 
BRANCH  15  16
ATOM     16  C   LIG    1       -2.316   0.289   0.347  0.00  0.00    +0.053 C 
BRANCH  16  17
ATOM     17  C   LIG    1       -2.812   0.122   1.750  0.00  0.00    -0.027 C 
ATOM     18  C   LIG    1       -4.073   0.288   2.074  0.00  0.00    -0.027 C 
BRANCH  18  19
ATOM     19  C   LIG    1       -5.106   0.649   1.091  0.00  0.00    +0.053 C 
BRANCH  19  20
ATOM     20  C   LIG    1       -6.116  -0.415   1.089  0.00  0.00    -0.027 C 
ATOM     21  C   LIG    1       -6.405  -1.113   0.032  0.00  0.00    -0.031 C 
BRANCH  21  22
ATOM     22  C   LIG    1       -5.765  -0.921  -1.262  0.00  0.00    +0.023 C 
ATOM     23  C   LIG    1       -6.840  -0.552  -2.281  0.00  0.00    +0.008 C 
ENDBRANCH  21  22
ENDBRANCH  19  20
ENDBRANCH  18  19
ENDBRANCH  16  17
ENDBRANCH  15  16
ENDBRANCH  13  14
ENDBRANCH   2  13
TORSDOF 14
