REMARK  Name = molecules/JBDGDEWWOUBZPM-XYPYZODXSA-N.pdb
REMARK                            x       y       z     vdW  Elec       q    Type
REMARK                         _______ _______ _______ _____ _____    ______ ____
ROOT
ATOM      1  C   LIG    1       -0.965   0.354  -0.455  0.00  0.00    +0.118 C 
ENDROOT
BRANCH   1   2
ATOM      2  C   LIG    1       -2.341  -0.035   0.006  0.00  0.00    -0.011 A 
ATOM      3  C   LIG    1       -2.484  -1.233   0.638  0.00  0.00    +0.022 A 
ATOM      4  C   LIG    1       -3.766  -1.581   1.058  0.00  0.00    +0.019 A 
ATOM      5 BR   LIG    1       -4.014  -3.255   1.948  0.00  0.00    -0.050 Br
ATOM      6  C   LIG    1       -4.816  -0.739   0.832  0.00  0.00    +0.032 A 
ATOM      7  C   LIG    1       -4.666   0.464   0.196  0.00  0.00    +0.040 A 
ATOM      8 BR   LIG    1       -6.129   1.644  -0.119  0.00  0.00    -0.048 Br
ATOM      9  C   LIG    1       -3.401   0.812  -0.220  0.00  0.00    +0.043 A 
BRANCH   9  10
ATOM     10  N   LIG    1       -3.162   2.036  -0.887  0.00  0.00    -0.357 N 
ATOM     11  H   LIG    1       -3.223   2.968  -0.440  0.00  0.00    +0.142 HD
ATOM     12  H   LIG    1       -2.908   1.996  -1.898  0.00  0.00    +0.142 HD
ENDBRANCH   9  10
ENDBRANCH   1   2
BRANCH   1  13
ATOM     13  N   LIG    1        0.000  -0.657  -0.125  0.00  0.00    -0.309 NA
ATOM     14  H   LIG    1       -0.004  -0.821   0.909  0.00  0.00    +0.123 HD
BRANCH  13  15
ATOM     15  C   LIG    1        1.295  -0.298  -0.593  0.00  0.00    +0.054 C 
ATOM     16  C   LIG    1        1.844   0.926   0.038  0.00  0.00    +0.021 C 
ATOM     17  C   LIG    1        2.575   0.488   1.319  0.00  0.00    +0.033 C 
ATOM     18  C   LIG    1        3.928  -0.008   0.855  0.00  0.00    +0.115 C 
ATOM     19  C   LIG    1        3.693  -0.842  -0.381  0.00  0.00    +0.033 C 
ATOM     20  C   LIG    1        2.304  -1.435  -0.369  0.00  0.00    +0.021 C 
BRANCH  18  21
ATOM     21  O   LIG    1        4.684   1.131   0.526  0.00  0.00    -0.392 OA
ATOM     22  H   LIG    1        4.202   1.974   0.724  0.00  0.00    +0.210 HD
ENDBRANCH  18  21
ENDBRANCH  13  15
ENDBRANCH   1  13
TORSDOF 5
