REMARK  Name = molecules/JBMKAUGHUNFTOL-UHFFFAOYSA-N.pdb
REMARK                            x       y       z     vdW  Elec       q    Type
REMARK                         _______ _______ _______ _____ _____    ______ ____
ROOT
ATOM      1  C   LIG    1       -1.427  -0.546  -0.025  0.00  0.00    +0.125 A 
ATOM      2  C   LIG    1       -0.987  -1.579   0.788  0.00  0.00    +0.069 A 
ATOM      3 CL   LIG    1       -2.187  -2.759   1.277  0.00  0.00    -0.081 Cl
ATOM      4  C   LIG    1        0.323  -1.676   1.193  0.00  0.00    +0.051 A 
ATOM      5  C   LIG    1        1.290  -0.737   0.806  0.00  0.00    +0.093 A 
ATOM      6  N   LIG    1        2.601  -0.920   1.269  0.00  0.00    -0.237 NA
ATOM      7  C   LIG    1        3.588  -0.150   1.003  0.00  0.00    +0.203 C 
ATOM      8  N   LIG    1        3.505   1.008   0.197  0.00  0.00    -0.206 N 
ATOM      9  H   LIG    1        4.316   1.583   0.017  0.00  0.00    +0.175 HD
ATOM     10  S   LIG    1        2.015   1.478  -0.507  0.00  0.00    +0.075 S 
ATOM     11  O   LIG    1        1.600   2.863  -0.117  0.00  0.00    -0.150 OA
ATOM     12  O   LIG    1        2.114   1.369  -2.008  0.00  0.00    -0.150 OA
ATOM     13  C   LIG    1        0.835   0.278   0.001  0.00  0.00    +0.136 A 
ATOM     14  C   LIG    1       -0.474   0.374  -0.403  0.00  0.00    +0.061 A 
ENDROOT
BRANCH   1  15
ATOM     15  S   LIG    1       -3.085  -0.447  -0.521  0.00  0.00    +0.057 S 
ATOM     16  O   LIG    1       -4.019  -0.379   0.671  0.00  0.00    -0.153 OA
ATOM     17  O   LIG    1       -3.453  -1.683  -1.314  0.00  0.00    -0.153 OA
BRANCH  15  18
ATOM     18  N   LIG    1       -3.359   0.915  -1.514  0.00  0.00    -0.203 NA
ATOM     19  H   LIG    1       -3.380   1.811  -0.978  0.00  0.00    +0.144 HD
ATOM     20  H   LIG    1       -4.269   0.846  -2.024  0.00  0.00    +0.144 HD
ENDBRANCH  15  18
ENDBRANCH   1  15
TORSDOF 2
