REMARK  Name = molecules/JBOOHWBSLUXBQW-SDNWHVSQSA-N.pdb
REMARK                            x       y       z     vdW  Elec       q    Type
REMARK                         _______ _______ _______ _____ _____    ______ ____
ROOT
ATOM      1  O   LIG    1       -3.344  -1.817  -0.644  0.00  0.00    -0.287 OA
ATOM      2  C   LIG    1       -2.285  -1.195  -0.388  0.00  0.00    +0.190 C 
ATOM      3  C   LIG    1       -2.322   0.178   0.125  0.00  0.00    +0.031 A 
ATOM      4  C   LIG    1       -1.135   0.827   0.394  0.00  0.00    +0.014 A 
ATOM      5  C   LIG    1       -1.115   2.119   0.877  0.00  0.00    +0.011 A 
ATOM      6  C   LIG    1       -2.331   2.747   1.085  0.00  0.00    +0.001 A 
ATOM      7  C   LIG    1       -3.527   2.115   0.822  0.00  0.00    +0.001 A 
ATOM      8  C   LIG    1        0.138   0.142   0.165  0.00  0.00    +0.111 C 
ATOM      9  N   LIG    1        1.255   0.696   0.398  0.00  0.00    -0.084 NA
ATOM     10  C   LIG    1        0.122  -1.224  -0.346  0.00  0.00    +0.038 C 
ATOM     11  C   LIG    1       -3.536   0.827   0.340  0.00  0.00    +0.012 A 
ATOM     12  C   LIG    1       -1.011  -1.865  -0.611  0.00  0.00    -0.001 C 
ATOM     13  C   LIG    1       -0.945  -3.268  -1.134  0.00  0.00    +0.048 C 
ENDROOT
BRANCH   9  14
ATOM     14  O   LIG    1        2.485   0.105   0.203  0.00  0.00    -0.382 OA
BRANCH  14  15
ATOM     15  C   LIG    1        3.557   0.989  -0.075  0.00  0.00    +0.382 C 
BRANCH  15  16
ATOM     16  C   LIG    1        4.825   0.275  -0.267  0.00  0.00    +0.345 C 
ATOM     17  O   LIG    1        5.867   0.921  -0.522  0.00  0.00    -0.247 OA
BRANCH  16  18
ATOM     18  O   LIG    1        4.866  -1.090  -0.168  0.00  0.00    -0.478 OA
ATOM     19  H   LIG    1        4.702  -1.612   0.683  0.00  0.00    +0.295 HD
ENDBRANCH  16  18
ENDBRANCH  15  16
ENDBRANCH  14  15
ENDBRANCH   9  14
TORSDOF 4
