REMARK  Name = molecules/JCBQCKFFSPGEDY-OAQYLSRUSA-N.pdb
REMARK                            x       y       z     vdW  Elec       q    Type
REMARK                         _______ _______ _______ _____ _____    ______ ____
ROOT
ATOM      1  N   LIG    1        0.396   0.005  -0.639  0.00  0.00    -0.295 N 
ATOM      2  C   LIG    1        0.968  -1.230  -0.168  0.00  0.00    +0.037 A 
ATOM      3  C   LIG    1        1.756  -1.342   0.959  0.00  0.00    -0.026 A 
ATOM      4  C   LIG    1        2.199  -0.305   1.903  0.00  0.00    +0.042 C 
ATOM      5  C   LIG    1        2.739   0.950   1.364  0.00  0.00    +0.042 C 
ATOM      6  C   LIG    1        2.084   1.604   0.235  0.00  0.00    -0.026 A 
ATOM      7  C   LIG    1        2.638   2.870   0.043  0.00  0.00    +0.005 A 
ATOM      8  C   LIG    1        2.199   3.689  -0.996  0.00  0.00    +0.000 A 
ATOM      9  C   LIG    1        1.220   3.297  -1.862  0.00  0.00    +0.002 A 
ATOM     10  C   LIG    1        0.650   2.057  -1.704  0.00  0.00    +0.024 A 
ATOM     11  C   LIG    1        2.215  -2.640   1.248  0.00  0.00    +0.005 A 
ATOM     12  C   LIG    1        1.857  -3.686   0.409  0.00  0.00    +0.000 A 
ATOM     13  C   LIG    1        1.055  -3.518  -0.724  0.00  0.00    +0.002 A 
ATOM     14  C   LIG    1        0.613  -2.260  -1.001  0.00  0.00    +0.024 A 
ATOM     15  C   LIG    1        1.100   1.282  -0.679  0.00  0.00    +0.037 A 
ENDROOT
BRANCH   1  16
ATOM     16  C   LIG    1       -0.919  -0.020  -1.114  0.00  0.00    +0.096 C 
ATOM     17  C   LIG    1       -1.627   1.219  -0.566  0.00  0.00    +0.107 C 
ATOM     18  N   LIG    1       -2.620   0.976   0.484  0.00  0.00    -0.301 NA
ATOM     19  C   LIG    1       -1.926   0.208   1.500  0.00  0.00    +0.085 C 
ATOM     20  C   LIG    1       -1.864  -1.171   0.939  0.00  0.00    +0.021 C 
ATOM     21  C   LIG    1       -3.790   0.320  -0.027  0.00  0.00    +0.085 C 
ATOM     22  C   LIG    1       -3.272  -0.653  -1.060  0.00  0.00    +0.021 C 
ATOM     23  C   LIG    1       -1.848  -1.092  -0.598  0.00  0.00    +0.013 C 
ENDBRANCH   1  16
TORSDOF 1
