REMARK  Name = molecules/JCLHQFUTFHUXNN-UHFFFAOYSA-N.pdb
REMARK                            x       y       z     vdW  Elec       q    Type
REMARK                         _______ _______ _______ _____ _____    ______ ____
ROOT
ATOM      1  C   LIG    1        0.084   0.383  -1.060  0.00  0.00    +0.179 C 
ENDROOT
BRANCH   1   2
ATOM      2  C   LIG    1        1.314  -0.306  -0.663  0.00  0.00    +0.097 A 
ATOM      3  C   LIG    1        1.378  -1.601  -0.209  0.00  0.00    +0.345 A 
ATOM      4  O   LIG    1        2.510  -2.130   0.123  0.00  0.00    -0.422 OA
ATOM      5  C   LIG    1        3.647  -1.456   0.042  0.00  0.00    +0.143 A 
ATOM      6  C   LIG    1        4.834  -2.099   0.422  0.00  0.00    +0.047 A 
ATOM      7  C   LIG    1        6.038  -1.441   0.355  0.00  0.00    +0.004 A 
ATOM      8  C   LIG    1        6.032  -0.143  -0.093  0.00  0.00    +0.001 A 
ATOM      9  C   LIG    1        4.880   0.509  -0.470  0.00  0.00    +0.015 A 
ATOM     10  C   LIG    1        3.666  -0.152  -0.404  0.00  0.00    +0.059 A 
ATOM     11  O   LIG    1        0.277  -2.235  -0.138  0.00  0.00    -0.245 OA
ATOM     12  C   LIG    1        2.487   0.465  -0.773  0.00  0.00    +0.139 A 
BRANCH  12  13
ATOM     13  O   LIG    1        2.442   1.757  -1.226  0.00  0.00    -0.506 OA
ATOM     14  H   LIG    1        3.206   2.357  -1.332  0.00  0.00    +0.292 HD
ENDBRANCH  12  13
ENDBRANCH   1   2
BRANCH   1  15
ATOM     15  C   LIG    1       -1.167  -0.344  -0.920  0.00  0.00    +0.097 A 
ATOM     16  C   LIG    1       -1.775  -0.539   0.307  0.00  0.00    +0.139 A 
ATOM     17  C   LIG    1       -2.962  -1.240   0.364  0.00  0.00    +0.059 A 
ATOM     18  C   LIG    1       -3.634  -1.477   1.561  0.00  0.00    +0.015 A 
ATOM     19  C   LIG    1       -4.826  -2.192   1.537  0.00  0.00    +0.001 A 
ATOM     20  C   LIG    1       -5.334  -2.656   0.358  0.00  0.00    +0.004 A 
ATOM     21  C   LIG    1       -4.706  -2.447  -0.850  0.00  0.00    +0.047 A 
ATOM     22  C   LIG    1       -3.517  -1.732  -0.813  0.00  0.00    +0.143 A 
ATOM     23  O   LIG    1       -2.901  -1.521  -1.958  0.00  0.00    -0.422 OA
ATOM     24  C   LIG    1       -1.775  -0.859  -2.034  0.00  0.00    +0.345 A 
ATOM     25  O   LIG    1       -1.256  -0.709  -3.200  0.00  0.00    -0.245 OA
BRANCH  16  26
ATOM     26  O   LIG    1       -1.198  -0.037   1.462  0.00  0.00    -0.506 OA
ATOM     27  H   LIG    1       -1.558  -0.127   2.376  0.00  0.00    +0.292 HD
ENDBRANCH  16  26
ENDBRANCH   1  15
BRANCH   1  28
ATOM     28  C   LIG    1       -0.035   1.684  -0.301  0.00  0.00    +0.320 C 
ATOM     29  O   LIG    1        0.702   1.923   0.679  0.00  0.00    -0.250 OA
BRANCH  28  30
ATOM     30  O   LIG    1       -0.975   2.619  -0.703  0.00  0.00    -0.464 OA
BRANCH  30  31
ATOM     31  C   LIG    1       -1.161   3.860  -0.064  0.00  0.00    +0.229 C 
ATOM     32  C   LIG    1       -1.542   3.736   1.371  0.00  0.00    +0.048 C 
ENDBRANCH  30  31
ENDBRANCH  28  30
ENDBRANCH   1  28
TORSDOF 7
