REMARK  Name = molecules/JCRIVQIOJSSCQD-VIFPVBQESA-N.pdb
REMARK                            x       y       z     vdW  Elec       q    Type
REMARK                         _______ _______ _______ _____ _____    ______ ____
ROOT
ATOM      1  C   LIG    1       -1.758  -1.476   0.313  0.00  0.00    +0.003 C 
ATOM      2  C   LIG    1       -0.579  -0.533   0.594  0.00  0.00    -0.010 C 
ATOM      3  C   LIG    1       -0.951   0.895   0.435  0.00  0.00    +0.003 C 
ATOM      4  C   LIG    1       -2.405   1.225   0.398  0.00  0.00    +0.000 C 
ATOM      5  C   LIG    1       -3.248   0.267  -0.389  0.00  0.00    +0.000 C 
ATOM      6  C   LIG    1       -2.447  -0.911  -0.904  0.00  0.00    +0.000 C 
ENDROOT
BRANCH   2   7
ATOM      7  C   LIG    1        0.526  -1.009  -0.276  0.00  0.00    +0.022 C 
BRANCH   7   8
ATOM      8  C   LIG    1        1.829  -0.319  -0.220  0.00  0.00    +0.051 C 
ATOM      9  C   LIG    1        2.670  -0.658   0.995  0.00  0.00    +0.024 C 
BRANCH   8  10
ATOM     10  N   LIG    1        1.841   1.087  -0.542  0.00  0.00    -0.316 NA
ATOM     11  H   LIG    1        1.684   1.674   0.318  0.00  0.00    +0.122 HD
ATOM     12  C   LIG    1        3.210   1.388  -1.000  0.00  0.00    +0.101 C 
ENDBRANCH   8  10
ENDBRANCH   7   8
ENDBRANCH   2   7
TORSDOF 3
