REMARK  Name = molecules/JCYZMTMYPZHVBF-NOZJJQNGSA-N.pdb
REMARK                            x       y       z     vdW  Elec       q    Type
REMARK                         _______ _______ _______ _____ _____    ______ ____
ROOT
ATOM      1  N   LIG    1        2.635  -1.303   0.038  0.00  0.00    +0.000 N 
ATOM      2  H   LIG    1        2.821  -2.313  -0.247  0.00  0.00    +0.000 HD
ENDROOT
BRANCH   1   7
ATOM      3  C   LIG    1        6.109  -0.285  -0.144  0.00  0.00    +0.000 A 
ATOM      4  N   LIG    1        6.038   1.008   0.200  0.00  0.00    +0.000 NA
ATOM      5  C   LIG    1        4.842   1.586   0.503  0.00  0.00    +0.000 A 
ATOM      6  N   LIG    1        3.760   0.825   0.445  0.00  0.00    +0.000 NA
ATOM      7  C   LIG    1        3.753  -0.460   0.113  0.00  0.00    +0.000 A 
ATOM      8  N   LIG    1        4.975  -0.990  -0.181  0.00  0.00    +0.000 NA
BRANCH   3   9
ATOM      9  N   LIG    1        7.384  -0.879  -0.461  0.00  0.00    +0.000 N 
ATOM     10  H   LIG    1        7.492  -1.894  -0.300  0.00  0.00    +0.000 HD
ATOM     11  H   LIG    1        8.132  -0.257  -0.836  0.00  0.00    +0.000 HD
ENDBRANCH   3   9
BRANCH   5  12
ATOM     12  N   LIG    1        4.816   2.971   0.865  0.00  0.00    +0.000 N 
ATOM     13  H   LIG    1        5.050   3.251   1.841  0.00  0.00    +0.000 HD
ATOM     14  H   LIG    1        4.572   3.725   0.197  0.00  0.00    +0.000 HD
ENDBRANCH   5  12
ENDBRANCH   1   7
BRANCH   1  15
ATOM     15  C   LIG    1        1.299  -0.968   0.296  0.00  0.00    +0.000 A 
ATOM     16  C   LIG    1        0.851   0.277   0.675  0.00  0.00    +0.000 A 
ATOM     17  C   LIG    1       -0.509   0.470   0.899  0.00  0.00    +0.000 A 
ATOM     18  C   LIG    1       -1.448  -0.511   0.766  0.00  0.00    +0.000 A 
ATOM     19  C   LIG    1       -1.013  -1.746   0.391  0.00  0.00    +0.000 A 
ATOM     20  C   LIG    1        0.324  -1.975   0.161  0.00  0.00    +0.000 A 
BRANCH  18  21
ATOM     21 AS   LIG    1       -3.296  -0.069   1.117  0.00  0.00    +0.000 As
ATOM     22  S   LIG    1       -4.669  -1.754   0.374  0.00  0.00    +0.000 S 
ATOM     23  C   LIG    1       -5.208  -0.942  -1.186  0.00  0.00    +0.000 C 
ATOM     24  C   LIG    1       -5.617   0.455  -0.831  0.00  0.00    +0.000 C 
ATOM     25  S   LIG    1       -4.076   1.396  -0.481  0.00  0.00    +0.000 S 
BRANCH  24  26
ATOM     26  C   LIG    1       -6.413   0.499   0.478  0.00  0.00    +0.000 C 
BRANCH  26  27
ATOM     27  O   LIG    1       -6.728   1.855   0.687  0.00  0.00    +0.000 OA
ATOM     28  H   LIG    1       -5.867   2.347   0.607  0.00  0.00    +0.000 HD
ENDBRANCH  26  27
ENDBRANCH  24  26
ENDBRANCH  18  21
ENDBRANCH   1  15
TORSDOF 7
