REMARK  Name = molecules/JDLSRXWHEBFHNC-UHFFFAOYSA-N.pdb
REMARK                            x       y       z     vdW  Elec       q    Type
REMARK                         _______ _______ _______ _____ _____    ______ ____
ROOT
ATOM      1  C   LIG    1        1.062   1.048  -0.269  0.00  0.00    +0.045 A 
ATOM      2  C   LIG    1       -0.137   1.712  -0.121  0.00  0.00    +0.080 A 
ATOM      3  C   LIG    1       -0.178   3.130  -0.246  0.00  0.00    +0.017 A 
ATOM      4  C   LIG    1        0.957   3.844  -0.522  0.00  0.00    +0.001 A 
ATOM      5  C   LIG    1        2.144   3.173  -0.679  0.00  0.00    +0.002 A 
ATOM      6  C   LIG    1        2.208   1.816  -0.562  0.00  0.00    +0.024 A 
ENDROOT
BRANCH   1   7
ATOM      7  N   LIG    1        1.129  -0.322   0.065  0.00  0.00    -0.314 N 
ATOM      8  H   LIG    1        0.244  -0.835   0.259  0.00  0.00    +0.152 HD
BRANCH   7   9
ATOM      9  C   LIG    1        2.287  -1.091   0.182  0.00  0.00    +0.032 A 
ATOM     10  C   LIG    1        3.558  -0.644   0.484  0.00  0.00    +0.035 A 
ATOM     11  C   LIG    1        4.691  -1.448   0.560  0.00  0.00    +0.057 A 
ATOM     12  C   LIG    1        4.562  -2.768   0.330  0.00  0.00    +0.012 A 
ATOM     13  C   LIG    1        3.320  -3.317   0.017  0.00  0.00    +0.002 A 
ATOM     14  C   LIG    1        2.236  -2.485  -0.050  0.00  0.00    +0.023 A 
BRANCH  11  15
ATOM     15  C   LIG    1        6.031  -0.786   0.845  0.00  0.00    +0.417 C 
ATOM     16  F   LIG    1        6.506  -0.992   2.087  0.00  0.00    -0.166 F 
ATOM     17  F   LIG    1        5.899   0.581   0.609  0.00  0.00    -0.166 F 
ATOM     18  F   LIG    1        6.873  -1.314  -0.162  0.00  0.00    -0.166 F 
ENDBRANCH  11  15
ENDBRANCH   7   9
ENDBRANCH   1   7
BRANCH   2  19
ATOM     19  C   LIG    1       -1.423   1.052  -0.202  0.00  0.00    +0.341 C 
ATOM     20  O   LIG    1       -1.508  -0.162  -0.480  0.00  0.00    -0.245 OA
BRANCH  19  21
ATOM     21  O   LIG    1       -2.629   1.728   0.011  0.00  0.00    -0.461 OA
BRANCH  21  22
ATOM     22  C   LIG    1       -3.881   1.182  -0.139  0.00  0.00    +0.232 C 
BRANCH  22  23
ATOM     23  C   LIG    1       -4.251  -0.103   0.493  0.00  0.00    +0.041 C 
BRANCH  23  24
ATOM     24  C   LIG    1       -5.673  -0.421  -0.016  0.00  0.00    -0.000 C 
ATOM     25  C   LIG    1       -6.087  -1.771   0.488  0.00  0.00    +0.004 C 
ENDBRANCH  23  24
ENDBRANCH  22  23
ENDBRANCH  21  22
ENDBRANCH  19  21
ENDBRANCH   2  19
TORSDOF 8
