REMARK  Name = molecules/JEECQCWWSTZDCK-IQZGDKDPSA-N.pdb
REMARK                            x       y       z     vdW  Elec       q    Type
REMARK                         _______ _______ _______ _____ _____    ______ ____
ROOT
ATOM      1  C   LIG    1        2.353   0.468  -0.601  0.00  0.00    +0.132 A 
ATOM      2  C   LIG    1        3.375  -0.468  -0.428  0.00  0.00    +0.010 A 
ATOM      3  C   LIG    1        3.033  -1.759  -0.200  0.00  0.00    +0.032 A 
ATOM      4  C   LIG    1        1.681  -2.161  -0.123  0.00  0.00    +0.034 A 
ATOM      5  C   LIG    1        0.660  -1.240  -0.294  0.00  0.00    -0.011 A 
ATOM      6  C   LIG    1       -0.713  -1.738  -0.183  0.00  0.00    +0.046 C 
ATOM      7  C   LIG    1       -1.812  -0.784  -0.390  0.00  0.00    +0.031 C 
ATOM      8  C   LIG    1       -2.890  -0.719   0.667  0.00  0.00    +0.018 C 
ATOM      9  C   LIG    1       -4.125  -0.079   0.014  0.00  0.00    +0.061 C 
ATOM     10  C   LIG    1       -5.325  -0.155   0.916  0.00  0.00    +0.129 C 
ATOM     11  C   LIG    1       -5.969   1.139   1.250  0.00  0.00    +0.127 C 
ATOM     12  C   LIG    1       -5.566   2.336   0.974  0.00  0.00    +0.121 C 
ATOM     13  C   LIG    1       -4.290   2.386   0.225  0.00  0.00    +0.211 C 
ATOM     14  O   LIG    1       -3.594   3.408   0.312  0.00  0.00    -0.288 OA
ATOM     15  C   LIG    1       -3.852   1.242  -0.609  0.00  0.00    +0.190 C 
ATOM     16  C   LIG    1       -2.388   1.484  -0.781  0.00  0.00    +0.141 C 
ATOM     17  C   LIG    1       -1.442   0.602  -0.685  0.00  0.00    +0.044 C 
ATOM     18  C   LIG    1       -0.058   1.035  -0.745  0.00  0.00    +0.197 C 
ATOM     19  O   LIG    1        0.229   2.229  -0.977  0.00  0.00    -0.287 OA
ATOM     20  C   LIG    1        1.004   0.071  -0.536  0.00  0.00    +0.069 A 
ENDROOT
BRANCH  12  21
ATOM     21  C   LIG    1       -6.254   3.551   1.338  0.00  0.00    +0.248 C 
ATOM     22  N   LIG    1       -7.453   3.620   2.049  0.00  0.00    -0.325 N 
ATOM     23  H   LIG    1       -7.570   3.836   3.071  0.00  0.00    +0.145 HD
ATOM     24  H   LIG    1       -8.393   3.425   1.580  0.00  0.00    +0.145 HD
ATOM     25  O   LIG    1       -5.714   4.664   0.965  0.00  0.00    -0.270 OA
ENDBRANCH  12  21
BRANCH   4  26
ATOM     26  N   LIG    1        1.451  -3.498   0.274  0.00  0.00    -0.336 N 
ATOM     27  C   LIG    1        2.004  -3.830   1.613  0.00  0.00    +0.129 C 
ATOM     28  C   LIG    1        0.755  -4.551  -0.378  0.00  0.00    +0.129 C 
ENDBRANCH   4  26
BRANCH  10  29
ATOM     29  N   LIG    1       -6.424  -0.955   0.343  0.00  0.00    -0.299 NA
ATOM     30  C   LIG    1       -6.059  -2.302   0.059  0.00  0.00    +0.105 C 
ATOM     31  C   LIG    1       -6.969  -0.267  -0.823  0.00  0.00    +0.105 C 
ENDBRANCH  10  29
BRANCH  11  32
ATOM     32  O   LIG    1       -7.178   1.045   1.959  0.00  0.00    -0.509 OA
ATOM     33  H   LIG    1       -7.999   1.023   1.346  0.00  0.00    +0.292 HD
ENDBRANCH  11  32
BRANCH  16  34
ATOM     34  O   LIG    1       -2.011   2.817  -1.077  0.00  0.00    -0.507 OA
ATOM     35  H   LIG    1       -2.236   3.057  -2.076  0.00  0.00    +0.292 HD
ENDBRANCH  16  34
BRANCH  15  36
ATOM     36  O   LIG    1       -4.442   1.400  -1.834  0.00  0.00    -0.373 OA
ATOM     37  H   LIG    1       -4.112   0.801  -2.523  0.00  0.00    +0.211 HD
ENDBRANCH  15  36
BRANCH   1  38
ATOM     38  O   LIG    1        2.720   1.740  -0.839  0.00  0.00    -0.506 OA
ATOM     39  H   LIG    1        2.366   2.603  -1.006  0.00  0.00    +0.292 HD
ENDBRANCH   1  38
BRANCH   2  40
ATOM     40  C   LIG    1        4.749   0.035  -0.230  0.00  0.00    +0.120 C 
BRANCH  40  41
ATOM     41  N   LIG    1        5.727  -0.214  -1.170  0.00  0.00    -0.311 NA
ATOM     42  H   LIG    1        5.534   0.274  -2.105  0.00  0.00    +0.122 HD
BRANCH  41  43
ATOM     43  C   LIG    1        7.086  -0.051  -0.875  0.00  0.00    +0.087 C 
BRANCH  43  44
ATOM     44  C   LIG    1        7.595   1.232  -0.312  0.00  0.00    -0.025 C 
ATOM     45  C   LIG    1        7.330   1.049   1.283  0.00  0.00    +0.012 C 
ATOM     46  C   LIG    1        9.141   1.198  -0.308  0.00  0.00    +0.012 C 
ATOM     47  C   LIG    1        7.018   2.513  -0.695  0.00  0.00    +0.012 C 
ENDBRANCH  43  44
ENDBRANCH  41  43
ENDBRANCH  40  41
ENDBRANCH   2  40
TORSDOF 11
