REMARK  Name = molecules/JENBDJGHNIOHAJ-UHFFFAOYSA-N.pdb
REMARK                            x       y       z     vdW  Elec       q    Type
REMARK                         _______ _______ _______ _____ _____    ______ ____
ROOT
ATOM      1  C   LIG    1       -0.484  -0.135   0.043  0.00  0.00    +0.036 A 
ATOM      2  C   LIG    1       -0.434   1.226   0.165  0.00  0.00    +0.098 A 
ATOM      3  N   LIG    1       -1.723   1.689   0.236  0.00  0.00    -0.360 N 
ATOM      4  H   LIG    1       -1.945   2.707   0.333  0.00  0.00    +0.165 HD
ATOM      5  C   LIG    1       -2.573   0.662   0.164  0.00  0.00    +0.048 A 
ATOM      6  C   LIG    1       -3.961   0.627   0.193  0.00  0.00    +0.026 A 
ATOM      7  C   LIG    1       -4.591  -0.572   0.099  0.00  0.00    +0.002 A 
ATOM      8  C   LIG    1       -3.871  -1.738  -0.022  0.00  0.00    +0.001 A 
ATOM      9  C   LIG    1       -2.486  -1.722  -0.053  0.00  0.00    +0.011 A 
ATOM     10  C   LIG    1       -1.851  -0.501   0.042  0.00  0.00    +0.013 A 
ENDROOT
BRANCH   1  11
ATOM     11  S   LIG    1        0.788  -1.328  -0.115  0.00  0.00    -0.080 S 
BRANCH  11  12
ATOM     12  C   LIG    1        2.408  -0.622  -0.304  0.00  0.00    +0.182 C 
ATOM     13  N   LIG    1        3.493  -1.374  -0.213  0.00  0.00    -0.204 NA
ATOM     14  C   LIG    1        4.678  -0.564  -0.399  0.00  0.00    +0.120 C 
ATOM     15  C   LIG    1        4.181   0.855  -0.014  0.00  0.00    +0.100 C 
ATOM     16  N   LIG    1        2.815   0.705  -0.551  0.00  0.00    -0.284 NA
ATOM     17  H   LIG    1        2.294   1.437  -1.025  0.00  0.00    +0.125 HD
ENDBRANCH  11  12
ENDBRANCH   1  11
TORSDOF 2
