REMARK  Name = molecules/JETQIUPBHQNHNZ-NJBDSQKTSA-N.pdb
REMARK                            x       y       z     vdW  Elec       q    Type
REMARK                         _______ _______ _______ _____ _____    ______ ____
ROOT
ATOM      1  N   LIG    1        0.137   0.402   0.111  0.00  0.00    -0.300 N 
ATOM      2  H   LIG    1       -0.191  -0.565   0.278  0.00  0.00    +0.150 HD
ATOM      3  C   LIG    1        1.530   0.609  -0.080  0.00  0.00    +0.245 C 
ATOM      4  O   LIG    1        1.989   1.761  -0.287  0.00  0.00    -0.273 OA
ENDROOT
BRANCH   1   9
ATOM      5  CA  LIG    1       -3.294  -0.415   0.505  0.00  0.00    +0.201 C 
ATOM      6  N   LIG    1       -2.443   0.679   0.667  0.00  0.00    -0.271 N 
ATOM      7  C   LIG    1       -1.626   1.653   1.285  0.00  0.00    +0.240 C 
ATOM      8  O   LIG    1       -1.525   2.368   2.307  0.00  0.00    -0.273 OA
ATOM      9  CA  LIG    1       -0.742   1.518   0.066  0.00  0.00    +0.190 C 
ATOM     10  C   LIG    1       -2.052   1.373  -0.579  0.00  0.00    +0.165 C 
ATOM     11  S   LIG    1       -2.331   0.044  -1.777  0.00  0.00    -0.127 S 
ATOM     12  C   LIG    1       -3.852  -0.478  -0.867  0.00  0.00    +0.042 C 
ATOM     13  C   LIG    1       -4.886   0.589  -1.147  0.00  0.00    +0.025 C 
ATOM     14  C   LIG    1       -4.290  -1.836  -1.310  0.00  0.00    +0.025 C 
BRANCH   5  15
ATOM     15  C   LIG    1       -4.390  -0.368   1.513  0.00  0.00    +0.327 C 
ATOM     16  OXT LIG    1       -4.516   0.520   2.369  0.00  0.00    -0.249 OA
BRANCH  15  17
ATOM     17  O   LIG    1       -5.322  -1.402   1.474  0.00  0.00    -0.479 OA
ATOM     18  H   LIG    1       -5.992  -1.567   2.216  0.00  0.00    +0.295 HD
ENDBRANCH  15  17
ENDBRANCH   5  15
ENDBRANCH   1   9
BRANCH   3  19
ATOM     19  C   LIG    1        2.502  -0.530  -0.043  0.00  0.00    +0.275 C 
BRANCH  19  20
ATOM     20  C   LIG    1        3.881  -0.032  -0.271  0.00  0.00    -0.012 A 
ATOM     21  C   LIG    1        4.411   0.961   0.527  0.00  0.00    +0.006 A 
ATOM     22  C   LIG    1        5.703   1.444   0.331  0.00  0.00    +0.000 A 
ATOM     23  C   LIG    1        6.464   0.915  -0.684  0.00  0.00    +0.000 A 
ATOM     24  C   LIG    1        5.936  -0.073  -1.478  0.00  0.00    +0.000 A 
ATOM     25  C   LIG    1        4.654  -0.548  -1.278  0.00  0.00    +0.006 A 
ENDBRANCH  19  20
BRANCH  19  26
ATOM     26  S   LIG    1        2.455  -1.264   1.582  0.00  0.00    +0.095 S 
ATOM     27  O   LIG    1        2.758  -0.249   2.648  0.00  0.00    -0.146 OA
ATOM     28  O   LIG    1        1.081  -1.845   1.822  0.00  0.00    -0.146 OA
BRANCH  26  29
ATOM     29  O   LIG    1        3.553  -2.509   1.724  0.00  0.00    -0.253 OA
ATOM     30  H   LIG    1        4.342  -2.272   2.297  0.00  0.00    +0.245 HD
ENDBRANCH  26  29
ENDBRANCH  19  26
ENDBRANCH   3  19
TORSDOF 7
