REMARK  Name = molecules/JEYCTXHKTXCGPB-UHFFFAOYSA-N.pdb
REMARK                            x       y       z     vdW  Elec       q    Type
REMARK                         _______ _______ _______ _____ _____    ______ ____
ROOT
ATOM      1  O   LIG    1        0.122   1.197   1.726  0.00  0.00    -0.267 OA
ATOM      2  C   LIG    1        0.650   0.564   0.744  0.00  0.00    +0.266 A 
ATOM      3  C   LIG    1        2.000   0.301   0.819  0.00  0.00    +0.065 A 
ATOM      4  C   LIG    1        2.752   0.706   1.912  0.00  0.00    +0.015 A 
ATOM      5  C   LIG    1        4.103   0.438   1.977  0.00  0.00    +0.001 A 
ATOM      6  C   LIG    1        4.676  -0.247   0.916  0.00  0.00    +0.002 A 
ATOM      7  C   LIG    1        3.912  -0.644  -0.165  0.00  0.00    +0.028 A 
ATOM      8  C   LIG    1        2.562  -0.381  -0.239  0.00  0.00    +0.078 A 
ATOM      9  N   LIG    1        1.785  -0.750  -1.273  0.00  0.00    -0.233 NA
ATOM     10  C   LIG    1        0.468  -0.492  -1.344  0.00  0.00    +0.114 A 
ATOM     11  C   LIG    1       -0.286  -0.949  -2.536  0.00  0.00    +0.086 C 
ATOM     12  N   LIG    1       -0.076   0.171  -0.313  0.00  0.00    -0.264 N 
ENDROOT
BRANCH  12  13
ATOM     13  C   LIG    1       -1.456   0.454  -0.364  0.00  0.00    +0.054 A 
ATOM     14  C   LIG    1       -2.277  -0.269   0.454  0.00  0.00    -0.026 A 
ATOM     15  C   LIG    1       -1.821  -1.330   1.391  0.00  0.00    +0.046 C 
ATOM     16  C   LIG    1       -3.631  -0.012   0.423  0.00  0.00    +0.005 A 
ATOM     17  C   LIG    1       -4.184   0.947  -0.402  0.00  0.00    +0.000 A 
ATOM     18  C   LIG    1       -3.319   1.654  -1.212  0.00  0.00    +0.002 A 
ATOM     19  C   LIG    1       -1.962   1.414  -1.198  0.00  0.00    +0.026 A 
ENDBRANCH  12  13
TORSDOF 1
