REMARK  Name = molecules/JFAXVZXNIGIDDA-KDWXAGHCSA-N.pdb
REMARK                            x       y       z     vdW  Elec       q    Type
REMARK                         _______ _______ _______ _____ _____    ______ ____
ROOT
ATOM      1  C   LIG    1       -2.615   1.386   1.251  0.00  0.00    +0.015 C 
ATOM      2  C   LIG    1       -2.595   0.446   0.067  0.00  0.00    +0.008 C 
ATOM      3  C   LIG    1       -2.038  -0.888   0.349  0.00  0.00    +0.011 C 
ATOM      4  C   LIG    1       -0.774  -1.258  -0.321  0.00  0.00    +0.005 C 
ATOM      5  C   LIG    1        0.224  -0.214  -0.551  0.00  0.00    -0.000 C 
ATOM      6  C   LIG    1        1.407  -0.223   0.400  0.00  0.00    +0.018 C 
ATOM      7  C   LIG    1        1.990  -1.595   0.555  0.00  0.00    +0.012 C 
ATOM      8  C   LIG    1        3.434  -1.528   1.045  0.00  0.00    +0.049 C 
ATOM      9  C   LIG    1        4.267  -0.824   0.009  0.00  0.00    +0.199 C 
ATOM     10  C   LIG    1        3.628   0.480  -0.290  0.00  0.00    +0.016 C 
ATOM     11  C   LIG    1        2.360   0.768  -0.124  0.00  0.00    -0.067 C 
ATOM     12  C   LIG    1        1.890   2.130  -0.475  0.00  0.00    +0.031 C 
ATOM     13  C   LIG    1        0.571   2.099  -1.245  0.00  0.00    +0.008 C 
ATOM     14  C   LIG    1       -0.358   1.209  -0.490  0.00  0.00    -0.003 C 
ATOM     15  C   LIG    1       -3.921   0.497  -0.592  0.00  0.00    +0.183 C 
ATOM     16  C   LIG    1       -3.900   1.839  -1.322  0.00  0.00    +0.045 C 
ATOM     17  C   LIG    1       -2.464   2.284  -1.375  0.00  0.00    +0.008 C 
ATOM     18  C   LIG    1       -1.719   1.075  -1.029  0.00  0.00    +0.002 C 
ENDROOT
BRANCH   9  19
ATOM     19  O   LIG    1        5.558  -0.568   0.549  0.00  0.00    -0.457 OA
BRANCH  19  20
ATOM     20  C   LIG    1        6.704  -1.072  -0.026  0.00  0.00    +0.307 C 
ATOM     21  O   LIG    1        6.570  -1.782  -1.068  0.00  0.00    -0.251 OA
BRANCH  20  22
ATOM     22  C   LIG    1        8.055  -0.813   0.526  0.00  0.00    +0.117 C 
ATOM     23  C   LIG    1        9.095  -1.495  -0.321  0.00  0.00    +0.015 C 
ENDBRANCH  20  22
ENDBRANCH  19  20
ENDBRANCH   9  19
BRANCH  15  24
ATOM     24  O   LIG    1       -5.042   0.490   0.194  0.00  0.00    -0.461 OA
BRANCH  24  25
ATOM     25  C   LIG    1       -6.086  -0.368  -0.005  0.00  0.00    +0.307 C 
ATOM     26  O   LIG    1       -5.945  -1.149  -0.959  0.00  0.00    -0.251 OA
BRANCH  25  27
ATOM     27  C   LIG    1       -7.315  -0.405   0.824  0.00  0.00    +0.117 C 
ATOM     28  C   LIG    1       -8.216  -1.488   0.277  0.00  0.00    +0.015 C 
ENDBRANCH  25  27
ENDBRANCH  24  25
ENDBRANCH  15  24
TORSDOF 6
