REMARK  Name = molecules/JFJZZMVDLULRGK-URLMMPGGSA-O.pdb
REMARK                            x       y       z     vdW  Elec       q    Type
REMARK                         _______ _______ _______ _____ _____    ______ ____
ROOT
ATOM      1  C   LIG    1        3.760   2.445  -0.289  0.00  0.00    +0.202 A 
ATOM      2  C   LIG    1        3.132   1.311   0.219  0.00  0.00    +0.175 A 
ATOM      3  O   LIG    1        1.933   1.385   0.816  0.00  0.00    -0.452 OA
ATOM      4  C   LIG    1        0.611   1.769   0.653  0.00  0.00    +0.129 A 
ATOM      5  C   LIG    1       -0.057   2.278   1.756  0.00  0.00    +0.046 A 
ATOM      6  C   LIG    1       -1.394   2.722   1.724  0.00  0.00    +0.007 A 
ATOM      7  C   LIG    1       -2.142   2.676   0.568  0.00  0.00    -0.045 A 
ATOM      8  C   LIG    1       -3.579   3.178   0.474  0.00  0.00    +0.058 C 
ATOM      9  C   LIG    1       -4.536   2.337  -0.271  0.00  0.00    +0.091 C 
ATOM     10  N   LIG    1       -5.873   2.514   0.213  0.00  0.00    -0.298 NA
ATOM     11  C   LIG    1       -6.073   1.656   1.361  0.00  0.00    +0.105 C 
ATOM     12  C   LIG    1       -6.790   2.228  -0.870  0.00  0.00    +0.089 C 
ATOM     13  C   LIG    1       -6.153   1.487  -2.014  0.00  0.00    +0.051 C 
ATOM     14  C   LIG    1       -5.182   0.459  -1.485  0.00  0.00    -0.038 A 
ATOM     15  C   LIG    1       -5.221  -0.803  -1.998  0.00  0.00    +0.053 A 
ATOM     16  C   LIG    1       -4.334  -1.680  -1.404  0.00  0.00    +0.162 A 
ATOM     17  C   LIG    1       -3.477  -1.290  -0.362  0.00  0.00    +0.170 A 
ATOM     18  C   LIG    1       -3.450  -0.009   0.153  0.00  0.00    +0.055 A 
ATOM     19  O   LIG    1       -2.675  -2.401   0.041  0.00  0.00    -0.449 OA
ATOM     20  C   LIG    1       -1.309  -2.445   0.419  0.00  0.00    +0.170 A 
ATOM     21  C   LIG    1       -1.190  -2.870   1.746  0.00  0.00    +0.159 A 
ATOM     22  C   LIG    1        0.027  -2.978   2.358  0.00  0.00    +0.049 A 
ATOM     23  C   LIG    1        1.104  -2.643   1.578  0.00  0.00    +0.007 A 
ATOM     24  C   LIG    1        1.026  -2.214   0.233  0.00  0.00    -0.045 A 
ATOM     25  C   LIG    1        2.399  -1.956  -0.310  0.00  0.00    +0.025 C 
ATOM     26  C   LIG    1        3.341  -1.236   0.657  0.00  0.00    -0.027 C 
ATOM     27  N   LIG    1        4.402  -2.018   1.174  0.00  0.00    +0.381 N 
ATOM     28  C   LIG    1        4.510  -1.809   2.641  0.00  0.00    -0.091 C 
ATOM     29  C   LIG    1        4.460  -3.422   0.950  0.00  0.00    -0.091 C 
ATOM     30  C   LIG    1        5.766  -1.621   0.740  0.00  0.00    -0.070 C 
ATOM     31  C   LIG    1        5.734  -1.189  -0.714  0.00  0.00    +0.017 C 
ATOM     32  C   LIG    1        5.021   0.107  -0.572  0.00  0.00    -0.040 A 
ATOM     33  C   LIG    1        5.635   1.223  -1.075  0.00  0.00    +0.053 A 
ATOM     34  C   LIG    1       -0.215  -2.118  -0.350  0.00  0.00    +0.053 A 
ATOM     35  C   LIG    1       -4.313   0.875  -0.426  0.00  0.00    -0.023 A 
ATOM     36  C   LIG    1       -1.504   2.172  -0.544  0.00  0.00    +0.007 A 
ATOM     37  C   LIG    1       -0.151   1.728  -0.483  0.00  0.00    +0.046 A 
ATOM     38  C   LIG    1        3.818   0.080   0.065  0.00  0.00    -0.011 A 
ATOM     39  C   LIG    1        5.008   2.441  -0.941  0.00  0.00    +0.165 A 
ENDROOT
BRANCH   1  40
ATOM     40  O   LIG    1        3.264   3.755  -0.227  0.00  0.00    -0.501 OA
ATOM     41  H   LIG    1        2.431   4.071   0.171  0.00  0.00    +0.292 HD
ENDBRANCH   1  40
BRANCH  21  42
ATOM     42  O   LIG    1       -2.276  -3.225   2.563  0.00  0.00    -0.503 OA
ATOM     43  H   LIG    1       -2.176  -3.530   3.511  0.00  0.00    +0.292 HD
ENDBRANCH  21  42
BRANCH  16  44
ATOM     44  O   LIG    1       -4.344  -2.996  -1.911  0.00  0.00    -0.491 OA
ATOM     45  C   LIG    1       -5.217  -3.349  -2.954  0.00  0.00    +0.277 C 
ENDBRANCH  16  44
BRANCH  39  46
ATOM     46  O   LIG    1        5.575   3.619  -1.426  0.00  0.00    -0.491 OA
ATOM     47  C   LIG    1        6.828   3.537  -2.068  0.00  0.00    +0.277 C 
ENDBRANCH  39  46
TORSDOF 4
