REMARK  Name = molecules/JFNWFXVFBDDWCX-UHFFFAOYSA-N.pdb
REMARK                            x       y       z     vdW  Elec       q    Type
REMARK                         _______ _______ _______ _____ _____    ______ ____
ROOT
ATOM      1  S   LIG    1        0.906   1.499   1.523  0.00  0.00    +0.083 S 
ATOM      2  O   LIG    1        0.630   1.201   2.977  0.00  0.00    -0.149 OA
ATOM      3  O   LIG    1        1.359   2.920   1.451  0.00  0.00    -0.149 OA
ENDROOT
BRANCH   1   4
ATOM      4  C   LIG    1        2.050   0.402   0.837  0.00  0.00    +0.109 A 
ATOM      5  C   LIG    1        2.329  -0.832   1.412  0.00  0.00    +0.030 A 
ATOM      6  C   LIG    1        3.283  -1.695   0.862  0.00  0.00    +0.024 A 
ATOM      7  C   LIG    1        3.977  -1.334  -0.278  0.00  0.00    +0.025 A 
ATOM      8  C   LIG    1        3.713  -0.105  -0.870  0.00  0.00    +0.024 A 
ATOM      9  C   LIG    1        2.765   0.732  -0.308  0.00  0.00    +0.030 A 
BRANCH   7  10
ATOM     10  N   LIG    1        4.962  -2.173  -0.875  0.00  0.00    -0.358 N 
ATOM     11  H   LIG    1        5.847  -2.428  -0.399  0.00  0.00    +0.142 HD
ATOM     12  H   LIG    1        4.791  -2.545  -1.827  0.00  0.00    +0.142 HD
ENDBRANCH   7  10
ENDBRANCH   1   4
BRANCH   1  13
ATOM     13  N   LIG    1       -0.661   1.421   0.700  0.00  0.00    -0.104 N 
ATOM     14  C   LIG    1       -1.168   2.675   0.363  0.00  0.00    +0.239 C 
ATOM     15  O   LIG    1       -0.754   3.698   1.020  0.00  0.00    -0.274 OA
ATOM     16  C   LIG    1       -2.137   2.974  -0.690  0.00  0.00    +0.111 C 
BRANCH  13  17
ATOM     17  C   LIG    1       -1.144   0.144   0.344  0.00  0.00    +0.249 A 
ATOM     18  O   LIG    1       -0.328  -0.926   0.334  0.00  0.00    -0.337 OA
ATOM     19  N   LIG    1       -0.977  -1.965  -0.036  0.00  0.00    -0.081 NA
ATOM     20  C   LIG    1       -2.261  -1.671  -0.295  0.00  0.00    +0.085 A 
ATOM     21  C   LIG    1       -3.329  -2.577  -0.748  0.00  0.00    +0.069 C 
ATOM     22  C   LIG    1       -2.355  -0.289  -0.039  0.00  0.00    +0.036 A 
ATOM     23  C   LIG    1       -3.659   0.393  -0.138  0.00  0.00    +0.051 C 
ENDBRANCH  13  17
ENDBRANCH   1  13
TORSDOF 4
