REMARK  Name = molecules/JFPVXVDWJQMJEE-IZRZKJBUSA-N.pdb
REMARK                            x       y       z     vdW  Elec       q    Type
REMARK                         _______ _______ _______ _____ _____    ______ ____
ROOT
ATOM      1  CA  LIG    1        2.654  -1.225  -0.020  0.00  0.00    +0.125 C 
ATOM      2  C   LIG    1        3.081  -0.087   0.452  0.00  0.00    +0.006 C 
ATOM      3  C   LIG    1        2.311   1.208   0.472  0.00  0.00    +0.107 C 
ATOM      4  S   LIG    1        0.764   1.180  -0.406  0.00  0.00    -0.131 S 
ATOM      5  C   LIG    1        0.733  -0.306  -1.417  0.00  0.00    +0.169 C 
ATOM      6  CA  LIG    1       -0.575  -1.054  -1.432  0.00  0.00    +0.191 C 
ATOM      7  C   LIG    1        0.182  -2.132  -0.749  0.00  0.00    +0.244 C 
ATOM      8  O   LIG    1       -0.201  -3.319  -0.461  0.00  0.00    -0.273 OA
ATOM      9  N   LIG    1        1.336  -1.347  -0.596  0.00  0.00    -0.249 N 
ENDROOT
BRANCH   6  10
ATOM     10  N   LIG    1       -1.648  -0.458  -0.651  0.00  0.00    -0.296 N 
ATOM     11  H   LIG    1       -1.380  -0.176   0.311  0.00  0.00    +0.150 HD
ATOM     12  C   LIG    1       -2.950  -0.279  -1.165  0.00  0.00    +0.270 C 
ATOM     13  O   LIG    1       -3.150  -0.662  -2.345  0.00  0.00    -0.268 OA
BRANCH  12  14
ATOM     14  C   LIG    1       -4.024   0.305  -0.418  0.00  0.00    +0.206 C 
ATOM     15  N   LIG    1       -5.189   0.405  -1.040  0.00  0.00    -0.076 NA
BRANCH  14  16
ATOM     16  C   LIG    1       -3.930   0.794   0.966  0.00  0.00    +0.161 A 
ATOM     17  C   LIG    1       -4.945   1.361   1.714  0.00  0.00    +0.052 A 
ATOM     18  C   LIG    1       -4.430   1.675   2.946  0.00  0.00    +0.042 A 
ATOM     19  C   LIG    1       -3.092   1.273   2.890  0.00  0.00    +0.196 A 
ATOM     20  O   LIG    1       -2.868   0.766   1.702  0.00  0.00    -0.461 OA
ENDBRANCH  14  16
BRANCH  15  21
ATOM     21  O   LIG    1       -5.357  -0.030  -2.332  0.00  0.00    -0.396 OA
ATOM     22  C   LIG    1       -6.533  -0.760  -2.630  0.00  0.00    +0.313 C 
ENDBRANCH  15  21
ENDBRANCH  12  14
ENDBRANCH   6  10
BRANCH   1  23
ATOM     23  C   LIG    1        3.434  -2.441  -0.011  0.00  0.00    +0.351 C 
ATOM     24  OXT LIG    1        4.592  -2.577   0.424  0.00  0.00    -0.244 OA
BRANCH  23  25
ATOM     25  O   LIG    1        2.891  -3.633  -0.534  0.00  0.00    -0.476 OA
ATOM     26  H   LIG    1        2.863  -3.807  -1.532  0.00  0.00    +0.295 HD
ENDBRANCH  23  25
ENDBRANCH   1  23
BRANCH   2  27
ATOM     27  C   LIG    1        4.427   0.071   1.053  0.00  0.00    +0.268 C 
BRANCH  27  28
ATOM     28  O   LIG    1        5.079   1.065   0.231  0.00  0.00    -0.446 OA
BRANCH  28  29
ATOM     29  C   LIG    1        6.363   1.429   0.546  0.00  0.00    +0.398 C 
ATOM     30  O   LIG    1        6.953   0.909   1.525  0.00  0.00    -0.227 OA
ATOM     31  N   LIG    1        7.009   2.401  -0.252  0.00  0.00    -0.295 N 
ATOM     32  H   LIG    1        7.087   3.393   0.018  0.00  0.00    +0.148 HD
ATOM     33  H   LIG    1        7.424   2.092  -1.156  0.00  0.00    +0.148 HD
ENDBRANCH  28  29
ENDBRANCH  27  28
ENDBRANCH   2  27
TORSDOF 9
