REMARK  Name = molecules/JFRLWWDJCFYFSU-CQSZACIVSA-N.pdb
REMARK                            x       y       z     vdW  Elec       q    Type
REMARK                         _______ _______ _______ _____ _____    ______ ____
ROOT
ATOM      1  C   LIG    1       -0.968   0.789   0.703  0.00  0.00    +0.053 C 
ATOM      2  C   LIG    1       -1.319  -0.532   1.207  0.00  0.00    -0.019 A 
ATOM      3  C   LIG    1       -0.713  -1.025   2.342  0.00  0.00    +0.006 A 
ATOM      4  C   LIG    1       -1.012  -2.261   2.868  0.00  0.00    +0.000 A 
ATOM      5  C   LIG    1       -1.953  -3.083   2.264  0.00  0.00    +0.002 A 
ATOM      6  C   LIG    1       -2.559  -2.590   1.129  0.00  0.00    +0.023 A 
ATOM      7  C   LIG    1       -2.272  -1.351   0.589  0.00  0.00    +0.035 A 
ATOM      8  N   LIG    1       -2.910  -0.850  -0.578  0.00  0.00    -0.314 N 
ATOM      9  H   LIG    1       -3.624  -1.440  -1.057  0.00  0.00    +0.152 HD
ATOM     10  C   LIG    1       -2.642   0.426  -1.153  0.00  0.00    +0.035 A 
ATOM     11  C   LIG    1       -3.286   0.878  -2.287  0.00  0.00    +0.025 A 
ATOM     12  C   LIG    1       -3.013   2.121  -2.828  0.00  0.00    +0.022 A 
ATOM     13  C   LIG    1       -2.069   2.881  -2.179  0.00  0.00    +0.041 A 
ATOM     14  C   LIG    1       -1.419   2.441  -1.047  0.00  0.00    +0.026 A 
ATOM     15 CL   LIG    1       -1.700   4.462  -2.835  0.00  0.00    -0.084 Cl
ATOM     16  C   LIG    1       -1.693   1.192  -0.502  0.00  0.00    -0.017 A 
ENDROOT
BRANCH   1  17
ATOM     17  C   LIG    1        0.538   0.839   0.466  0.00  0.00    +0.014 C 
BRANCH  17  18
ATOM     18  C   LIG    1        0.897  -0.209  -0.530  0.00  0.00    +0.016 C 
BRANCH  18  19
ATOM     19  C   LIG    1        2.353  -0.257  -0.862  0.00  0.00    +0.084 C 
BRANCH  19  21
ATOM     20  C   LIG    1        4.566  -0.796  -0.406  0.00  0.00    +0.104 C 
ATOM     21  N   LIG    1        3.243  -0.532   0.240  0.00  0.00    -0.308 NA
ATOM     22  C   LIG    1        3.523   0.655   1.055  0.00  0.00    +0.104 C 
ENDBRANCH  19  21
ENDBRANCH  18  19
ENDBRANCH  17  18
ENDBRANCH   1  17
TORSDOF 4
