REMARK  Name = molecules/JGCMEBMXRHSZKX-UHFFFAOYSA-N.pdb
REMARK                            x       y       z     vdW  Elec       q    Type
REMARK                         _______ _______ _______ _____ _____    ______ ____
ROOT
ATOM      1  C   LIG    1        1.605  -0.129  -0.314  0.00  0.00    +0.228 A 
ATOM      2  N   LIG    1        1.867   0.068   0.969  0.00  0.00    -0.201 NA
ATOM      3  C   LIG    1        0.994  -0.134   1.931  0.00  0.00    +0.227 A 
ATOM      4  N   LIG    1       -0.239  -0.563   1.625  0.00  0.00    -0.219 NA
ATOM      5  C   LIG    1       -0.594  -0.791   0.324  0.00  0.00    +0.153 A 
ATOM      6  C   LIG    1        0.310  -0.583  -0.679  0.00  0.00    +0.085 A 
ENDROOT
BRANCH   6   7
ATOM      7  C   LIG    1       -0.056  -0.823  -2.063  0.00  0.00    -0.009 A 
ATOM      8  C   LIG    1       -0.062  -2.058  -2.674  0.00  0.00    +0.010 A 
ATOM      9  C   LIG    1       -0.407  -2.266  -3.972  0.00  0.00    +0.016 A 
ATOM     10  C   LIG    1       -0.782  -1.208  -4.769  0.00  0.00    +0.018 A 
ATOM     11  C   LIG    1       -0.790   0.048  -4.199  0.00  0.00    +0.016 A 
ATOM     12 BR   LIG    1       -1.275  -1.468  -6.606  0.00  0.00    -0.050 Br
ATOM     13  C   LIG    1       -0.436   0.236  -2.878  0.00  0.00    +0.010 A 
ENDBRANCH   6   7
BRANCH   5  14
ATOM     14  N   LIG    1       -1.901  -1.244   0.001  0.00  0.00    -0.189 N 
ATOM     15  H   LIG    1       -2.129  -1.406  -0.998  0.00  0.00    +0.176 HD
BRANCH  14  16
ATOM     16  S   LIG    1       -3.126  -1.541   1.178  0.00  0.00    +0.110 S 
ATOM     17  O   LIG    1       -2.509  -2.024   2.479  0.00  0.00    -0.138 OA
ATOM     18  O   LIG    1       -4.073  -2.622   0.738  0.00  0.00    -0.138 OA
BRANCH  16  19
ATOM     19  N   LIG    1       -4.062  -0.120   1.467  0.00  0.00    -0.177 NA
ATOM     20  H   LIG    1       -3.507   0.747   1.297  0.00  0.00    +0.149 HD
BRANCH  19  21
ATOM     21  C   LIG    1       -5.213  -0.067   0.563  0.00  0.00    +0.107 C 
BRANCH  21  22
ATOM     22  C   LIG    1       -6.028   1.172   0.815  0.00  0.00    +0.013 C 
ATOM     23  C   LIG    1       -6.560   1.235   2.222  0.00  0.00    +0.005 C 
ENDBRANCH  21  22
ENDBRANCH  19  21
ENDBRANCH  16  19
ENDBRANCH  14  16
ENDBRANCH   5  14
BRANCH   1  24
ATOM     24  O   LIG    1        2.481   0.072  -1.299  0.00  0.00    -0.472 OA
BRANCH  24  25
ATOM     25  C   LIG    1        3.752   0.474  -1.452  0.00  0.00    +0.272 C 
BRANCH  25  26
ATOM     26  C   LIG    1        4.147   1.850  -0.990  0.00  0.00    +0.273 C 
BRANCH  26  27
ATOM     27  O   LIG    1        3.999   2.099   0.366  0.00  0.00    -0.459 OA
BRANCH  27  34
ATOM     28  N   LIG    1        4.475   1.726   2.622  0.00  0.00    -0.202 NA
ATOM     29  C   LIG    1        5.089   1.126   3.664  0.00  0.00    +0.133 A 
ATOM     30  C   LIG    1        6.008   0.111   3.400  0.00  0.00    +0.054 A 
ATOM     31 BR   LIG    1        6.923  -0.792   4.807  0.00  0.00    -0.047 Br
ATOM     32  C   LIG    1        6.233  -0.217   2.091  0.00  0.00    +0.133 A 
ATOM     33  N   LIG    1        5.582   0.425   1.081  0.00  0.00    -0.202 NA
ATOM     34  C   LIG    1        4.704   1.395   1.343  0.00  0.00    +0.318 A 
ENDBRANCH  27  34
ENDBRANCH  26  27
ENDBRANCH  25  26
ENDBRANCH  24  25
ENDBRANCH   1  24
TORSDOF 11
