REMARK  Name = molecules/JGMOKGBVKVMRFX-HQZYFCCVSA-N.pdb
REMARK                            x       y       z     vdW  Elec       q    Type
REMARK                         _______ _______ _______ _____ _____    ______ ____
ROOT
ATOM      1  C   LIG    1       -2.711  -0.343   1.825  0.00  0.00    +0.016 C 
ATOM      2  C   LIG    1       -2.448  -0.219   0.321  0.00  0.00    -0.003 C 
ATOM      3  C   LIG    1       -0.998  -0.337   0.092  0.00  0.00    +0.006 C 
ATOM      4  C   LIG    1       -0.206  -0.440   1.403  0.00  0.00    +0.005 C 
ATOM      5  C   LIG    1        1.173  -1.029   1.131  0.00  0.00    +0.008 C 
ATOM      6  C   LIG    1        1.840  -0.374  -0.037  0.00  0.00    -0.019 C 
ATOM      7  C   LIG    1        3.175   0.248   0.317  0.00  0.00    +0.061 C 
ATOM      8  C   LIG    1        3.340   1.322  -0.740  0.00  0.00    +0.012 C 
ATOM      9  C   LIG    1        1.955   1.552  -1.346  0.00  0.00    +0.005 C 
ATOM     10  C   LIG    1        1.065   0.887  -0.330  0.00  0.00    +0.003 C 
ATOM     11  C   LIG    1        1.964  -1.309  -1.188  0.00  0.00    +0.012 C 
ATOM     12  C   LIG    1       -0.330   0.652  -0.792  0.00  0.00    +0.019 C 
ATOM     13  C   LIG    1       -0.962   1.968  -0.915  0.00  0.00    -0.023 C 
ATOM     14  C   LIG    1       -2.247   2.088  -0.646  0.00  0.00    +0.000 C 
ATOM     15  C   LIG    1       -3.100   0.988  -0.228  0.00  0.00    -0.038 C 
ATOM     16  C   LIG    1       -4.418   1.005  -0.310  0.00  0.00    +0.050 C 
ATOM     17  C   LIG    1       -5.264  -0.105   0.112  0.00  0.00    +0.156 C 
ATOM     18  O   LIG    1       -6.459   0.027   0.435  0.00  0.00    -0.293 OA
ATOM     19  C   LIG    1       -4.634  -1.434   0.143  0.00  0.00    +0.080 C 
ATOM     20  C   LIG    1       -3.191  -1.407  -0.291  0.00  0.00    +0.019 C 
ENDROOT
BRANCH   7  21
ATOM     21  C   LIG    1        4.317  -0.669   0.229  0.00  0.00    +0.134 C 
ATOM     22  C   LIG    1        5.672  -0.178   0.539  0.00  0.00    +0.086 C 
ATOM     23  O   LIG    1        4.159  -1.816  -0.094  0.00  0.00    -0.297 OA
ENDBRANCH   7  21
TORSDOF 1
