REMARK  Name = molecules/JGOAIQNSOGZNBX-UHFFFAOYSA-N.pdb
REMARK                            x       y       z     vdW  Elec       q    Type
REMARK                         _______ _______ _______ _____ _____    ______ ____
ROOT
ATOM      1  C   LIG    1       -2.036   0.358   0.690  0.00  0.00    +0.158 C 
ENDROOT
BRANCH   1   2
ATOM      2  C   LIG    1       -2.704  -0.904   0.929  0.00  0.00    -0.029 A 
ATOM      3  C   LIG    1       -2.260  -1.885   1.784  0.00  0.00    +0.005 A 
ATOM      4  C   LIG    1       -2.973  -3.050   1.994  0.00  0.00    +0.000 A 
ATOM      5  C   LIG    1       -4.170  -3.303   1.362  0.00  0.00    +0.000 A 
ATOM      6  C   LIG    1       -4.636  -2.333   0.494  0.00  0.00    +0.000 A 
ATOM      7  C   LIG    1       -3.926  -1.177   0.289  0.00  0.00    +0.005 A 
ENDBRANCH   1   2
BRANCH   1   8
ATOM      8  C   LIG    1       -2.602   1.101  -0.468  0.00  0.00    -0.029 A 
ATOM      9  C   LIG    1       -3.528   2.139  -0.317  0.00  0.00    +0.005 A 
ATOM     10  C   LIG    1       -4.062   2.828  -1.353  0.00  0.00    +0.000 A 
ATOM     11  C   LIG    1       -3.690   2.515  -2.666  0.00  0.00    +0.000 A 
ATOM     12  C   LIG    1       -2.776   1.490  -2.836  0.00  0.00    +0.000 A 
ATOM     13  C   LIG    1       -2.242   0.799  -1.770  0.00  0.00    +0.005 A 
ENDBRANCH   1   8
BRANCH   1  14
ATOM     14  C   LIG    1       -0.589   0.450   0.774  0.00  0.00    +0.319 C 
ATOM     15  O   LIG    1        0.065   0.020   1.777  0.00  0.00    -0.250 OA
BRANCH  14  16
ATOM     16  O   LIG    1        0.252   1.016  -0.202  0.00  0.00    -0.463 OA
BRANCH  16  17
ATOM     17  C   LIG    1        1.652   1.099  -0.051  0.00  0.00    +0.247 C 
BRANCH  17  18
ATOM     18  C   LIG    1        2.371  -0.165   0.023  0.00  0.00    +0.125 C 
BRANCH  18  19
ATOM     19  N   LIG    1        3.761  -0.150   0.214  0.00  0.00    -0.300 NA
BRANCH  19  20
ATOM     20  C   LIG    1        4.406   0.749   1.063  0.00  0.00    +0.081 C 
ATOM     21  C   LIG    1        4.465   2.196   0.677  0.00  0.00    +0.020 C 
ENDBRANCH  19  20
BRANCH  19  22
ATOM     22  C   LIG    1        4.405  -1.429   0.098  0.00  0.00    +0.081 C 
ATOM     23  C   LIG    1        4.453  -1.957  -1.317  0.00  0.00    +0.020 C 
ENDBRANCH  19  22
ENDBRANCH  18  19
ENDBRANCH  17  18
ENDBRANCH  16  17
ENDBRANCH  14  16
ENDBRANCH   1  14
TORSDOF 9
