REMARK  Name = molecules/JGPMMRGNQUBGND-UHFFFAOYSA-N.pdb
REMARK                            x       y       z     vdW  Elec       q    Type
REMARK                         _______ _______ _______ _____ _____    ______ ____
ROOT
ATOM      1  C   LIG    1       -3.870   1.304  -0.013  0.00  0.00    +0.213 C 
ATOM      2  C   LIG    1       -4.800   0.580   0.592  0.00  0.00    +0.213 C 
ATOM      3  C   LIG    1       -4.916  -0.841   0.313  0.00  0.00    +0.227 C 
ATOM      4  O   LIG    1       -5.786  -1.577   0.862  0.00  0.00    -0.284 OA
ATOM      5  C   LIG    1       -4.004  -1.465  -0.636  0.00  0.00    +0.007 C 
ATOM      6  C   LIG    1       -4.095  -2.905  -0.949  0.00  0.00    +0.048 C 
ATOM      7  C   LIG    1       -3.055  -0.743  -1.256  0.00  0.00    +0.010 C 
ATOM      8  C   LIG    1       -2.932   0.690  -0.981  0.00  0.00    +0.228 C 
ATOM      9  O   LIG    1       -2.090   1.438  -1.512  0.00  0.00    -0.284 OA
ENDROOT
BRANCH   1  10
ATOM     10  O   LIG    1       -3.788   2.642   0.274  0.00  0.00    -0.488 OA
ATOM     11  C   LIG    1       -3.463   3.115   1.571  0.00  0.00    +0.277 C 
ENDBRANCH   1  10
BRANCH   2  12
ATOM     12  O   LIG    1       -5.658   1.189   1.491  0.00  0.00    -0.488 OA
ATOM     13  C   LIG    1       -6.915   1.730   1.087  0.00  0.00    +0.277 C 
ENDBRANCH   2  12
BRANCH   7  14
ATOM     14  C   LIG    1       -2.209  -1.429  -2.231  0.00  0.00    +0.039 C 
BRANCH  14  15
ATOM     15  C   LIG    1       -0.830  -1.782  -1.850  0.00  0.00    +0.005 C 
BRANCH  15  16
ATOM     16  C   LIG    1        0.018  -0.631  -1.461  0.00  0.00    +0.000 C 
BRANCH  16  17
ATOM     17  C   LIG    1        1.459  -1.107  -1.121  0.00  0.00    +0.000 C 
BRANCH  17  18
ATOM     18  C   LIG    1        2.212   0.151  -0.744  0.00  0.00    +0.000 C 
BRANCH  18  19
ATOM     19  C   LIG    1        3.648  -0.205  -0.390  0.00  0.00    +0.000 C 
BRANCH  19  20
ATOM     20  C   LIG    1        4.332   1.089  -0.028  0.00  0.00    +0.000 C 
BRANCH  20  21
ATOM     21  C   LIG    1        5.764   0.814   0.321  0.00  0.00    +0.002 C 
BRANCH  21  22
ATOM     22  C   LIG    1        5.849  -0.122   1.493  0.00  0.00    +0.028 C 
BRANCH  22  23
ATOM     23  C   LIG    1        7.320  -0.360   1.818  0.00  0.00    +0.156 C 
BRANCH  23  24
ATOM     24  O   LIG    1        7.915   0.869   2.133  0.00  0.00    -0.395 OA
ATOM     25  H   LIG    1        8.856   0.830   1.850  0.00  0.00    +0.209 HD
ENDBRANCH  23  24
ENDBRANCH  22  23
ENDBRANCH  21  22
ENDBRANCH  20  21
ENDBRANCH  19  20
ENDBRANCH  18  19
ENDBRANCH  17  18
ENDBRANCH  16  17
ENDBRANCH  15  16
ENDBRANCH  14  15
ENDBRANCH   7  14
TORSDOF 13
