REMARK  Name = molecules/JGSARLDLIJGVTE-MBNYWOFBSA-N.pdb
REMARK                            x       y       z     vdW  Elec       q    Type
REMARK                         _______ _______ _______ _____ _____    ______ ____
ROOT
ATOM      1  C   LIG    1       -3.597   2.149   0.245  0.00  0.00    +0.025 C 
ATOM      2  C   LIG    1       -2.896   0.906  -0.147  0.00  0.00    +0.042 C 
ATOM      3  S   LIG    1       -1.260   0.858   0.684  0.00  0.00    -0.127 S 
ATOM      4  C   LIG    1       -1.537  -0.762   1.524  0.00  0.00    +0.165 C 
ATOM      5  CA  LIG    1       -0.464  -1.788   1.302  0.00  0.00    +0.190 C 
ATOM      6  C   LIG    1       -1.519  -2.383   0.368  0.00  0.00    +0.240 C 
ATOM      7  O   LIG    1       -1.423  -3.511  -0.230  0.00  0.00    -0.273 OA
ATOM      8  N   LIG    1       -2.403  -1.316   0.487  0.00  0.00    -0.271 N 
ATOM      9  CA  LIG    1       -3.504  -0.384   0.342  0.00  0.00    +0.201 C 
ATOM     10  C   LIG    1       -2.780   0.817  -1.655  0.00  0.00    +0.025 C 
ENDROOT
BRANCH   5  11
ATOM     11  N   LIG    1        0.714  -1.436   0.777  0.00  0.00    -0.301 N 
ATOM     12  H   LIG    1        1.173  -2.720   0.951  0.00  0.00    +0.150 HD
ATOM     13  C   LIG    1        1.918  -1.076   0.241  0.00  0.00    +0.218 C 
ATOM     14  O   LIG    1        2.936  -1.838   0.165  0.00  0.00    -0.275 OA
BRANCH  13  15
ATOM     15  C   LIG    1        2.103   0.344  -0.320  0.00  0.00    +0.130 C 
BRANCH  15  16
ATOM     16  C   LIG    1        3.479   0.436  -0.834  0.00  0.00    -0.039 A 
ATOM     17  C   LIG    1        4.542   0.180   0.048  0.00  0.00    +0.004 A 
ATOM     18  C   LIG    1        5.846   0.216  -0.353  0.00  0.00    +0.000 A 
ATOM     19  C   LIG    1        6.155   0.515  -1.679  0.00  0.00    +0.000 A 
ATOM     20  C   LIG    1        5.120   0.770  -2.559  0.00  0.00    +0.000 A 
ATOM     21  C   LIG    1        3.798   0.730  -2.140  0.00  0.00    +0.004 A 
ENDBRANCH  15  16
ENDBRANCH  13  15
ENDBRANCH   5  11
BRANCH   9  22
ATOM     22  C   LIG    1       -4.293  -0.334   1.553  0.00  0.00    +0.327 C 
ATOM     23  OXT LIG    1       -4.184  -1.212   2.493  0.00  0.00    -0.249 OA
BRANCH  22  24
ATOM     24  O   LIG    1       -5.241   0.638   1.851  0.00  0.00    -0.479 OA
ATOM     25  H   LIG    1       -6.175   0.372   2.152  0.00  0.00    +0.295 HD
ENDBRANCH  22  24
ENDBRANCH   9  22
TORSDOF 5
