REMARK  Name = molecules/JHVAMHSQVVQIOT-MFAJLEFUSA-N.pdb
REMARK                            x       y       z     vdW  Elec       q    Type
REMARK                         _______ _______ _______ _____ _____    ______ ____
ROOT
ATOM      1  O   LIG    1       -5.866  -1.600   1.518  0.00  0.00    -0.273 OA
ATOM      2  C   LIG    1       -6.121  -2.408   0.526  0.00  0.00    +0.239 C 
ATOM      3  C   LIG    1       -7.486  -2.875   0.496  0.00  0.00    +0.187 C 
ATOM      4  N   LIG    1       -8.306  -2.208  -0.508  0.00  0.00    -0.300 N 
ATOM      5  H   LIG    1       -9.100  -2.819  -0.879  0.00  0.00    +0.150 HD
ATOM      6  C   LIG    1       -8.176  -0.939  -1.035  0.00  0.00    +0.237 C 
ATOM      7  C   LIG    1       -8.114   0.378  -0.350  0.00  0.00    +0.190 C 
ATOM      8  N   LIG    1       -7.454   1.412  -1.077  0.00  0.00    -0.300 N 
ATOM      9  C   LIG    1       -6.395   2.286  -0.625  0.00  0.00    +0.234 C 
ATOM     10  C   LIG    1       -5.621   2.032   0.548  0.00  0.00    +0.164 C 
ATOM     11  C   LIG    1       -6.387   2.488   1.824  0.00  0.00    +0.065 C 
ATOM     12  C   LIG    1       -5.314   2.634   2.880  0.00  0.00    +0.134 C 
ATOM     13  C   LIG    1       -4.184   1.837   2.155  0.00  0.00    +0.140 C 
ATOM     14  N   LIG    1       -4.330   2.526   0.806  0.00  0.00    -0.286 N 
ATOM     15  C   LIG    1       -3.364   3.350   0.290  0.00  0.00    +0.239 C 
ATOM     16  O   LIG    1       -3.363   4.512   1.016  0.00  0.00    -0.273 OA
ATOM     17  C   LIG    1       -2.341   3.484  -0.718  0.00  0.00    +0.187 C 
ATOM     18  N   LIG    1       -0.969   3.237  -0.232  0.00  0.00    -0.300 N 
ATOM     19  C   LIG    1       -0.416   2.307   0.617  0.00  0.00    +0.234 C 
ATOM     20  O   LIG    1       -0.013   2.749   1.775  0.00  0.00    -0.274 OA
ATOM     21  C   LIG    1       -0.167   0.835   0.472  0.00  0.00    +0.162 C 
ATOM     22  C   LIG    1       -0.652   0.089   1.684  0.00  0.00    +0.067 C 
ATOM     23  C   LIG    1       -0.548  -1.413   1.542  0.00  0.00    +0.163 C 
ATOM     24  C   LIG    1       -1.916  -2.053   1.856  0.00  0.00    +0.231 C 
ATOM     25  N   LIG    1       -2.088  -3.350   1.252  0.00  0.00    -0.287 N 
ATOM     26  H   LIG    1       -1.152  -3.868   1.161  0.00  0.00    +0.151 HD
ATOM     27  C   LIG    1       -3.210  -4.016   0.792  0.00  0.00    +0.238 C 
ATOM     28  O   LIG    1       -3.511  -5.092   1.483  0.00  0.00    -0.274 OA
ATOM     29  C   LIG    1       -4.145  -3.787  -0.310  0.00  0.00    +0.191 C 
ATOM     30  C   LIG    1       -3.453  -3.884  -1.661  0.00  0.00    +0.148 C 
ATOM     31  C   LIG    1       -3.299  -2.434  -2.005  0.00  0.00    +0.034 C 
ATOM     32  C   LIG    1       -4.430  -1.712  -1.343  0.00  0.00    +0.114 C 
ATOM     33  C   LIG    1       -3.337  -2.238  -3.521  0.00  0.00    +0.012 C 
ATOM     34  H   LIG    1       -0.239   3.983  -0.622  0.00  0.00    +0.150 HD
ATOM     35  O   LIG    1       -6.225   3.314  -1.380  0.00  0.00    -0.274 OA
ATOM     36  H   LIG    1       -7.758   1.584  -2.084  0.00  0.00    +0.150 HD
ATOM     37  O   LIG    1       -8.090  -0.830  -2.324  0.00  0.00    -0.274 OA
ATOM     38  N   LIG    1       -4.986  -2.636  -0.307  0.00  0.00    -0.285 N 
ENDROOT
BRANCH  21  39
ATOM     39  N   LIG    1        1.269   0.600   0.410  0.00  0.00    -0.300 N 
ATOM     40  H   LIG    1        1.595  -0.329   0.849  0.00  0.00    +0.150 HD
ATOM     41  C   LIG    1        2.225   1.447  -0.179  0.00  0.00    +0.245 C 
ATOM     42  O   LIG    1        1.897   2.527  -0.684  0.00  0.00    -0.270 OA
BRANCH  41  43
ATOM     43  C   LIG    1        3.641   1.013  -0.175  0.00  0.00    +0.037 A 
ATOM     44  C   LIG    1        4.566   1.641   0.622  0.00  0.00    +0.013 A 
ATOM     45  C   LIG    1        5.905   1.240   0.577  0.00  0.00    +0.009 A 
ATOM     46  C   LIG    1        6.307   0.215  -0.265  0.00  0.00    -0.018 A 
ATOM     47  C   LIG    1        5.382  -0.414  -1.060  0.00  0.00    +0.009 A 
ATOM     48  C   LIG    1        4.040   0.004  -0.999  0.00  0.00    +0.013 A 
BRANCH  46  49
ATOM     49  C   LIG    1        7.713  -0.154  -0.324  0.00  0.00    -0.018 A 
ATOM     50  C   LIG    1        8.680   0.781  -0.108  0.00  0.00    +0.009 A 
ATOM     51  C   LIG    1       10.013   0.404  -0.182  0.00  0.00    +0.009 A 
ATOM     52  C   LIG    1       10.348  -0.901  -0.469  0.00  0.00    -0.018 A 
ATOM     53  C   LIG    1        9.375  -1.861  -0.688  0.00  0.00    +0.009 A 
ATOM     54  C   LIG    1        8.072  -1.466  -0.611  0.00  0.00    +0.009 A 
BRANCH  52  55
ATOM     55  C   LIG    1       11.769  -1.298  -0.574  0.00  0.00    -0.018 A 
ATOM     56  C   LIG    1       12.706  -0.702   0.246  0.00  0.00    +0.012 A 
ATOM     57  C   LIG    1       14.048  -1.080   0.170  0.00  0.00    +0.046 A 
ATOM     58  C   LIG    1       14.485  -2.037  -0.706  0.00  0.00    +0.121 A 
ATOM     59  C   LIG    1       13.527  -2.644  -1.543  0.00  0.00    +0.046 A 
ATOM     60  C   LIG    1       12.216  -2.255  -1.446  0.00  0.00    +0.012 A 
BRANCH  58  61
ATOM     61  O   LIG    1       15.767  -2.474  -0.851  0.00  0.00    -0.492 OA
BRANCH  61  62
ATOM     62  C   LIG    1       16.890  -2.018  -0.178  0.00  0.00    +0.229 C 
BRANCH  62  63
ATOM     63  C   LIG    1       17.266  -0.593  -0.444  0.00  0.00    +0.041 C 
BRANCH  63  64
ATOM     64  C   LIG    1       18.489  -0.193   0.389  0.00  0.00    +0.003 C 
BRANCH  64  65
ATOM     65  C   LIG    1       18.839   1.261   0.089  0.00  0.00    -0.003 C 
ATOM     66  C   LIG    1       20.020   1.726   0.888  0.00  0.00    +0.004 C 
ENDBRANCH  64  65
ENDBRANCH  63  64
ENDBRANCH  62  63
ENDBRANCH  61  62
ENDBRANCH  58  61
ENDBRANCH  52  55
ENDBRANCH  46  49
ENDBRANCH  41  43
ENDBRANCH  21  39
BRANCH  30  67
ATOM     67  O   LIG    1       -4.315  -4.466  -2.595  0.00  0.00    -0.389 OA
ATOM     68  H   LIG    1       -3.853  -4.917  -3.320  0.00  0.00    +0.210 HD
ENDBRANCH  30  67
BRANCH  17  69
ATOM     69  C   LIG    1       -2.428   2.949  -2.074  0.00  0.00    +0.141 C 
ATOM     70  C   LIG    1       -2.303   1.503  -2.349  0.00  0.00    +0.040 C 
BRANCH  69  71
ATOM     71  O   LIG    1       -3.691   3.289  -2.636  0.00  0.00    -0.390 OA
ATOM     72  H   LIG    1       -3.883   4.243  -2.444  0.00  0.00    +0.210 HD
ENDBRANCH  69  71
ENDBRANCH  17  69
BRANCH  24  73
ATOM     73  O   LIG    1       -2.825  -1.116   1.380  0.00  0.00    -0.372 OA
ATOM     74  H   LIG    1       -2.450  -0.736   0.520  0.00  0.00    +0.212 HD
ENDBRANCH  24  73
BRANCH  23  75
ATOM     75  O   LIG    1        0.367  -1.869   2.487  0.00  0.00    -0.387 OA
ATOM     76  H   LIG    1        0.621  -1.137   3.106  0.00  0.00    +0.210 HD
ENDBRANCH  23  75
BRANCH  12  77
ATOM     77  O   LIG    1       -5.541   1.914   4.034  0.00  0.00    -0.390 OA
ATOM     78  H   LIG    1       -4.693   2.007   4.579  0.00  0.00    +0.210 HD
ENDBRANCH  12  77
BRANCH   3  79
ATOM     79  C   LIG    1       -7.694  -4.361   0.487  0.00  0.00    +0.141 C 
ATOM     80  C   LIG    1       -9.082  -4.670   1.009  0.00  0.00    +0.040 C 
BRANCH  79  81
ATOM     81  O   LIG    1       -7.448  -4.963  -0.745  0.00  0.00    -0.390 OA
ATOM     82  H   LIG    1       -8.253  -5.018  -1.293  0.00  0.00    +0.210 HD
ENDBRANCH  79  81
ENDBRANCH   3  79
BRANCH   7  83
ATOM     83  C   LIG    1       -9.602   0.774  -0.228  0.00  0.00    +0.176 C 
BRANCH  83  84
ATOM     84  O   LIG    1      -10.100   0.888  -1.547  0.00  0.00    -0.387 OA
ATOM     85  H   LIG    1      -10.131   1.847  -1.766  0.00  0.00    +0.210 HD
ENDBRANCH  83  84
BRANCH  83  86
ATOM     86  C   LIG    1       -9.749   2.104   0.477  0.00  0.00    +0.175 C 
BRANCH  86  87
ATOM     87  C   LIG    1      -11.172   2.569   0.503  0.00  0.00    -0.016 A 
ATOM     88  C   LIG    1      -11.405   3.903   0.765  0.00  0.00    +0.010 A 
ATOM     89  C   LIG    1      -12.686   4.375   0.787  0.00  0.00    +0.046 A 
ATOM     90  C   LIG    1      -13.745   3.533   0.552  0.00  0.00    +0.117 A 
ATOM     91  C   LIG    1      -13.501   2.213   0.293  0.00  0.00    +0.046 A 
ATOM     92  C   LIG    1      -12.202   1.717   0.267  0.00  0.00    +0.010 A 
BRANCH  90  93
ATOM     93  O   LIG    1      -15.035   4.095   0.593  0.00  0.00    -0.507 OA
ATOM     94  H   LIG    1      -15.388   4.457  -0.270  0.00  0.00    +0.292 HD
ENDBRANCH  90  93
ENDBRANCH  86  87
BRANCH  86  95
ATOM     95  O   LIG    1       -8.994   3.076  -0.220  0.00  0.00    -0.385 OA
ATOM     96  H   LIG    1       -8.810   3.830   0.350  0.00  0.00    +0.210 HD
ENDBRANCH  86  95
ENDBRANCH  83  86
ENDBRANCH   7  83
TORSDOF 23
