REMARK  Name = molecules/JICJBGPOMZQUBB-OAQYLSRUSA-N.pdb
REMARK                            x       y       z     vdW  Elec       q    Type
REMARK                         _______ _______ _______ _____ _____    ______ ____
ROOT
ATOM      1  C   LIG    1       -1.462   0.576   1.356  0.00  0.00    +0.118 C 
ATOM      2  C   LIG    1       -2.249  -0.610   1.560  0.00  0.00    -0.003 A 
ATOM      3  C   LIG    1       -2.072  -1.053   2.883  0.00  0.00    +0.007 A 
ATOM      4  C   LIG    1       -2.683  -2.169   3.393  0.00  0.00    +0.000 A 
ATOM      5  C   LIG    1       -3.518  -2.907   2.581  0.00  0.00    +0.002 A 
ATOM      6  C   LIG    1       -3.721  -2.505   1.270  0.00  0.00    +0.025 A 
ATOM      7  C   LIG    1       -3.088  -1.368   0.775  0.00  0.00    +0.056 A 
ATOM      8  N   LIG    1       -3.423  -1.125  -0.576  0.00  0.00    -0.206 N 
ATOM      9  C   LIG    1       -3.735  -2.349  -1.317  0.00  0.00    +0.157 C 
ATOM     10  S   LIG    1       -3.514   0.362  -1.439  0.00  0.00    +0.075 S 
ATOM     11  C   LIG    1       -2.659   1.645  -0.675  0.00  0.00    +0.115 A 
ATOM     12  C   LIG    1       -2.858   2.850  -1.367  0.00  0.00    +0.049 A 
ATOM     13  C   LIG    1       -2.263   4.013  -0.933  0.00  0.00    +0.043 A 
ATOM     14  C   LIG    1       -1.457   4.016   0.194  0.00  0.00    +0.020 A 
ATOM     15  C   LIG    1       -1.282   2.823   0.848  0.00  0.00    +0.009 A 
ATOM     16 CL   LIG    1       -2.530   5.506  -1.821  0.00  0.00    -0.083 Cl
ATOM     17  O   LIG    1       -4.983   0.771  -1.496  0.00  0.00    -0.150 OA
ATOM     18  O   LIG    1       -3.104   0.182  -2.876  0.00  0.00    -0.150 OA
ATOM     19  C   LIG    1       -1.871   1.613   0.440  0.00  0.00    +0.001 A 
ENDROOT
BRANCH   1  20
ATOM     20  N   LIG    1       -0.056   0.289   1.038  0.00  0.00    -0.306 NA
ATOM     21  H   LIG    1        0.406  -0.283   1.742  0.00  0.00    +0.123 HD
BRANCH  20  22
ATOM     22  C   LIG    1        0.106  -0.145  -0.322  0.00  0.00    +0.082 C 
BRANCH  22  23
ATOM     23  C   LIG    1        1.584  -0.435  -0.630  0.00  0.00    +0.015 C 
BRANCH  23  24
ATOM     24  C   LIG    1        2.410   0.800  -0.424  0.00  0.00    +0.001 C 
BRANCH  24  25
ATOM     25  C   LIG    1        3.869   0.634  -0.711  0.00  0.00    +0.001 C 
BRANCH  25  26
ATOM     26  C   LIG    1        4.485  -0.423   0.176  0.00  0.00    +0.011 C 
BRANCH  26  27
ATOM     27  C   LIG    1        5.958  -0.621  -0.070  0.00  0.00    +0.120 C 
BRANCH  27  28
ATOM     28  C   LIG    1        6.204  -1.077  -1.456  0.00  0.00    +0.305 C 
ATOM     29  O   LIG    1        5.311  -1.325  -2.300  0.00  0.00    -0.251 OA
BRANCH  28  30
ATOM     30  O   LIG    1        7.516  -1.266  -1.925  0.00  0.00    -0.481 OA
ATOM     31  H   LIG    1        8.127  -0.460  -1.907  0.00  0.00    +0.295 HD
ENDBRANCH  28  30
ENDBRANCH  27  28
ENDBRANCH  26  27
ENDBRANCH  25  26
ENDBRANCH  24  25
ENDBRANCH  23  24
ENDBRANCH  22  23
ENDBRANCH  20  22
ENDBRANCH   1  20
TORSDOF 9
