REMARK  Name = molecules/JJCFRYNCJDLXIK-UHFFFAOYSA-N.pdb
REMARK                            x       y       z     vdW  Elec       q    Type
REMARK                         _______ _______ _______ _____ _____    ______ ____
ROOT
ATOM      1  C   LIG    1        4.590   0.865   0.658  0.00  0.00    +0.104 C 
ATOM      2  N   LIG    1        3.745  -0.134   0.038  0.00  0.00    -0.305 NA
ATOM      3  C   LIG    1        2.858  -0.762   0.992  0.00  0.00    +0.088 C 
ATOM      4  C   LIG    1        1.603  -1.295   0.278  0.00  0.00    +0.047 C 
ATOM      5  C   LIG    1        0.764  -0.120  -0.210  0.00  0.00    -0.059 C 
ATOM      6  C   LIG    1       -0.519  -0.126  -0.288  0.00  0.00    -0.010 C 
ATOM      7  C   LIG    1       -1.302  -1.343   0.051  0.00  0.00    -0.010 A 
ATOM      8  C   LIG    1       -2.461  -1.390   0.819  0.00  0.00    -0.017 A 
ATOM      9  C   LIG    1       -3.230  -0.279   1.372  0.00  0.00    +0.009 C 
ATOM     10  C   LIG    1       -3.197   1.014   0.963  0.00  0.00    +0.009 C 
ATOM     11  C   LIG    1       -2.402   1.609  -0.110  0.00  0.00    -0.017 A 
ATOM     12  C   LIG    1       -2.959   2.771  -0.569  0.00  0.00    +0.008 A 
ATOM     13  C   LIG    1       -2.345   3.404  -1.646  0.00  0.00    +0.001 A 
ATOM     14  C   LIG    1       -1.194   2.856  -2.232  0.00  0.00    +0.001 A 
ATOM     15  C   LIG    1       -0.672   1.690  -1.740  0.00  0.00    +0.009 A 
ATOM     16  C   LIG    1       -3.043  -2.597   1.105  0.00  0.00    +0.008 A 
ATOM     17  C   LIG    1       -2.439  -3.737   0.606  0.00  0.00    +0.001 A 
ATOM     18  C   LIG    1       -1.277  -3.671  -0.166  0.00  0.00    +0.001 A 
ATOM     19  C   LIG    1       -0.713  -2.457  -0.441  0.00  0.00    +0.009 A 
ATOM     20  C   LIG    1       -1.262   1.079  -0.695  0.00  0.00    -0.010 A 
ATOM     21  C   LIG    1        1.717   1.003  -0.496  0.00  0.00    +0.047 C 
ATOM     22  C   LIG    1        2.998   0.428  -1.085  0.00  0.00    +0.088 C 
ENDROOT
TORSDOF 0
