REMARK  Name = molecules/JJCQSGDBDPYCEO-XVZSLQNASA-N.pdb
REMARK                            x       y       z     vdW  Elec       q    Type
REMARK                         _______ _______ _______ _____ _____    ______ ____
ROOT
ATOM      1  C   LIG    1       -0.800  -0.026  -1.492  0.00  0.00    +0.169 C 
ATOM      2  C   LIG    1        0.440  -0.572  -0.897  0.00  0.00    +0.175 C 
ATOM      3  C   LIG    1        1.571   0.394  -0.763  0.00  0.00    +0.169 C 
ATOM      4  C   LIG    1        0.933   1.787  -0.666  0.00  0.00    +0.084 C 
ATOM      5  C   LIG    1        0.483   2.059  -2.095  0.00  0.00    +0.042 C 
ATOM      6  C   LIG    1       -0.648   1.146  -2.397  0.00  0.00    +0.084 C 
ENDROOT
BRANCH   4   7
ATOM      7  N   LIG    1        1.841   2.763  -0.172  0.00  0.00    -0.325 NA
ATOM      8  H   LIG    1        1.863   2.751   0.854  0.00  0.00    +0.119 HD
ATOM      9  H   LIG    1        1.558   3.695  -0.503  0.00  0.00    +0.119 HD
ENDBRANCH   4   7
BRANCH   6  10
ATOM     10  N   LIG    1       -0.445   0.648  -3.768  0.00  0.00    -0.325 NA
ATOM     11  H   LIG    1       -1.310   0.232  -4.155  0.00  0.00    +0.119 HD
ATOM     12  H   LIG    1        0.024   1.337  -4.366  0.00  0.00    +0.119 HD
ENDBRANCH   6  10
BRANCH   2  13
ATOM     13  O   LIG    1        0.911  -1.646  -1.683  0.00  0.00    -0.387 OA
ATOM     14  H   LIG    1        0.405  -2.476  -1.502  0.00  0.00    +0.210 HD
ENDBRANCH   2  13
BRANCH   1  15
ATOM     15  O   LIG    1       -1.781   0.307  -0.540  0.00  0.00    -0.341 OA
BRANCH  15  16
ATOM     16  C   LIG    1       -2.928  -0.430  -0.651  0.00  0.00    +0.281 C 
ATOM     17  O   LIG    1       -3.295  -1.142   0.456  0.00  0.00    -0.341 OA
ATOM     18  C   LIG    1       -4.317  -0.613   1.196  0.00  0.00    +0.177 C 
ATOM     19  C   LIG    1       -5.613  -0.441   0.475  0.00  0.00    +0.165 C 
ATOM     20  C   LIG    1       -5.352  -0.231  -0.990  0.00  0.00    +0.116 C 
ATOM     21  C   LIG    1       -4.038   0.525  -1.111  0.00  0.00    +0.189 C 
BRANCH  20  22
ATOM     22  N   LIG    1       -5.319  -1.487  -1.701  0.00  0.00    -0.323 NA
ATOM     23  H   LIG    1       -6.003  -2.169  -1.257  0.00  0.00    +0.119 HD
ATOM     24  H   LIG    1       -5.680  -1.354  -2.675  0.00  0.00    +0.119 HD
ENDBRANCH  20  22
BRANCH  19  25
ATOM     25  O   LIG    1       -6.367   0.616   0.981  0.00  0.00    -0.388 OA
ATOM     26  H   LIG    1       -6.611   1.284   0.283  0.00  0.00    +0.210 HD
ENDBRANCH  19  25
BRANCH  21  27
ATOM     27  O   LIG    1       -4.130   1.626  -0.260  0.00  0.00    -0.385 OA
ATOM     28  H   LIG    1       -4.615   2.331  -0.746  0.00  0.00    +0.210 HD
ENDBRANCH  21  27
BRANCH  18  29
ATOM     29  C   LIG    1       -4.583  -1.588   2.353  0.00  0.00    +0.190 C 
BRANCH  29  30
ATOM     30  O   LIG    1       -4.942  -2.845   1.846  0.00  0.00    -0.392 OA
ATOM     31  H   LIG    1       -5.876  -3.084   2.089  0.00  0.00    +0.210 HD
ENDBRANCH  29  30
ENDBRANCH  18  29
ENDBRANCH  15  16
ENDBRANCH   1  15
BRANCH   3  32
ATOM     32  O   LIG    1        2.364   0.122   0.321  0.00  0.00    -0.342 OA
BRANCH  32  33
ATOM     33  C   LIG    1        3.714  -0.043  -0.027  0.00  0.00    +0.268 C 
ATOM     34  O   LIG    1        4.535   0.861   0.602  0.00  0.00    -0.345 OA
ATOM     35  C   LIG    1        4.458   0.921   1.951  0.00  0.00    +0.135 C 
ATOM     36  C   LIG    1        4.191  -0.321   2.693  0.00  0.00    +0.034 C 
ATOM     37  C   LIG    1        3.643  -1.464   1.915  0.00  0.00    +0.026 C 
ATOM     38  C   LIG    1        4.129  -1.415   0.466  0.00  0.00    +0.107 C 
BRANCH  38  39
ATOM     39  N   LIG    1        3.616  -2.489  -0.314  0.00  0.00    -0.323 NA
ATOM     40  H   LIG    1        4.273  -3.310  -0.267  0.00  0.00    +0.119 HD
ATOM     41  H   LIG    1        3.624  -2.184  -1.333  0.00  0.00    +0.119 HD
ENDBRANCH  38  39
BRANCH  35  42
ATOM     42  C   LIG    1        5.791   1.496   2.460  0.00  0.00    +0.109 C 
BRANCH  42  43
ATOM     43  N   LIG    1        6.852   0.593   2.026  0.00  0.00    -0.328 NA
ATOM     44  H   LIG    1        7.063  -0.143   2.726  0.00  0.00    +0.118 HD
ATOM     45  H   LIG    1        7.710   1.150   1.864  0.00  0.00    +0.118 HD
ENDBRANCH  42  43
ENDBRANCH  35  42
ENDBRANCH  32  33
ENDBRANCH   3  32
TORSDOF 15
