REMARK  Name = molecules/JJJFUHOGVZWXNQ-UHFFFAOYSA-N.pdb
REMARK                            x       y       z     vdW  Elec       q    Type
REMARK                         _______ _______ _______ _____ _____    ______ ____
ROOT
ATOM      1  C   LIG    1        1.705  -0.191   0.339  0.00  0.00    +0.349 C 
ATOM      2  O   LIG    1        1.383  -1.346   0.668  0.00  0.00    -0.244 OA
ENDROOT
BRANCH   1   3
ATOM      3  C   LIG    1        3.106   0.151   0.191  0.00  0.00    +0.128 C 
ATOM      4  C   LIG    1        4.063  -0.731   0.396  0.00  0.00    +0.036 C 
BRANCH   3   5
ATOM      5  C   LIG    1        3.482   1.495  -0.192  0.00  0.00    +0.106 C 
ATOM      6  N   LIG    1        3.789   2.573  -0.487  0.00  0.00    -0.191 NA
ENDBRANCH   3   5
ENDBRANCH   1   3
BRANCH   1   7
ATOM      7  O   LIG    1        0.733   0.747   0.119  0.00  0.00    -0.461 OA
BRANCH   7   8
ATOM      8  C   LIG    1       -0.648   0.523   0.232  0.00  0.00    +0.232 C 
BRANCH   8   9
ATOM      9  C   LIG    1       -1.068  -0.535  -0.736  0.00  0.00    +0.041 C 
BRANCH   9  11
ATOM     10  C   LIG    1       -3.307   0.492  -0.932  0.00  0.00    +0.004 C 
ATOM     11  C   LIG    1       -2.555  -0.785  -0.625  0.00  0.00    -0.000 C 
ENDBRANCH   9  11
ENDBRANCH   8   9
ENDBRANCH   7   8
ENDBRANCH   1   7
TORSDOF 6
