REMARK  Name = molecules/JKWKMORAXJQQSR-MOPIKTETSA-N.pdb
REMARK                            x       y       z     vdW  Elec       q    Type
REMARK                         _______ _______ _______ _____ _____    ______ ____
ROOT
ATOM      1  C   LIG    1       -1.738  -0.335  -1.578  0.00  0.00    +0.015 C 
ATOM      2  C   LIG    1       -1.842  -0.329  -0.073  0.00  0.00    +0.008 C 
ATOM      3  C   LIG    1       -0.483  -0.053   0.471  0.00  0.00    +0.183 C 
ATOM      4  C   LIG    1       -0.393   1.473   0.535  0.00  0.00    +0.045 C 
ATOM      5  C   LIG    1       -1.749   1.986   0.057  0.00  0.00    +0.008 C 
ATOM      6  C   LIG    1       -2.631   0.853   0.447  0.00  0.00    +0.002 C 
ATOM      7  C   LIG    1       -4.012   0.896  -0.081  0.00  0.00    -0.003 C 
ATOM      8  C   LIG    1       -4.772   2.018   0.619  0.00  0.00    +0.008 C 
ATOM      9  C   LIG    1       -6.091   2.141  -0.133  0.00  0.00    +0.031 C 
ATOM     10  C   LIG    1       -6.814   0.854   0.018  0.00  0.00    -0.063 C 
ATOM     11  C   LIG    1       -8.130   0.947   0.268  0.00  0.00    +0.045 C 
ATOM     12  C   LIG    1       -8.956  -0.238   0.437  0.00  0.00    +0.156 C 
ATOM     13  O   LIG    1      -10.143  -0.093   0.790  0.00  0.00    -0.293 OA
ATOM     14  C   LIG    1       -8.330  -1.561   0.177  0.00  0.00    +0.079 C 
ATOM     15  C   LIG    1       -6.897  -1.479   0.656  0.00  0.00    +0.016 C 
ATOM     16  C   LIG    1       -6.116  -0.450  -0.101  0.00  0.00    +0.019 C 
ATOM     17  C   LIG    1       -4.703  -0.397   0.379  0.00  0.00    -0.000 C 
ATOM     18  C   LIG    1       -3.924  -1.578  -0.102  0.00  0.00    +0.005 C 
ATOM     19  C   LIG    1       -2.501  -1.584   0.429  0.00  0.00    +0.011 C 
ENDROOT
BRANCH   3  20
ATOM     20  O   LIG    1        0.499  -0.449  -0.489  0.00  0.00    -0.461 OA
BRANCH  20  21
ATOM     21  C   LIG    1        1.556  -1.263  -0.109  0.00  0.00    +0.307 C 
ATOM     22  O   LIG    1        1.584  -1.610   1.094  0.00  0.00    -0.251 OA
BRANCH  21  23
ATOM     23  C   LIG    1        2.547  -1.655  -1.124  0.00  0.00    +0.120 C 
BRANCH  23  24
ATOM     24  C   LIG    1        3.892  -1.099  -0.822  0.00  0.00    +0.011 C 
BRANCH  24  25
ATOM     25  C   LIG    1        4.451  -1.570   0.475  0.00  0.00    +0.001 C 
BRANCH  25  26
ATOM     26  C   LIG    1        5.838  -0.994   0.697  0.00  0.00    +0.000 C 
BRANCH  26  27
ATOM     27  C   LIG    1        5.875   0.498   0.741  0.00  0.00    +0.000 C 
BRANCH  27  28
ATOM     28  C   LIG    1        7.272   0.981   0.967  0.00  0.00    -0.000 C 
BRANCH  28  29
ATOM     29  C   LIG    1        8.246   0.581  -0.091  0.00  0.00    -0.000 C 
BRANCH  29  30
ATOM     30  C   LIG    1        9.640   1.127   0.238  0.00  0.00    -0.003 C 
ATOM     31  C   LIG    1       10.579   0.682  -0.889  0.00  0.00    +0.004 C 
ENDBRANCH  29  30
ENDBRANCH  28  29
ENDBRANCH  27  28
ENDBRANCH  26  27
ENDBRANCH  25  26
ENDBRANCH  24  25
ENDBRANCH  23  24
ENDBRANCH  21  23
ENDBRANCH  20  21
ENDBRANCH   3  20
TORSDOF 10
