REMARK  Name = molecules/JLICHNCFTLFZJN-OAHLLOKOSA-N.pdb
REMARK                            x       y       z     vdW  Elec       q    Type
REMARK                         _______ _______ _______ _____ _____    ______ ____
ROOT
ATOM      1  C   LIG    1        0.114   0.370   0.353  0.00  0.00    +0.008 C 
ATOM      2  C   LIG    1       -0.393  -0.518   1.461  0.00  0.00    +0.013 C 
ATOM      3  C   LIG    1       -1.887  -0.398   1.683  0.00  0.00    +0.002 C 
ATOM      4  C   LIG    1       -2.506  -1.647   1.026  0.00  0.00    +0.015 C 
ATOM      5  C   LIG    1       -2.330  -1.501  -0.478  0.00  0.00    +0.084 C 
ATOM      6  N   LIG    1       -2.050  -0.131  -0.770  0.00  0.00    -0.304 NA
ATOM      7  C   LIG    1       -3.017   0.549  -1.548  0.00  0.00    +0.104 C 
ATOM      8  C   LIG    1       -0.696   0.225  -0.916  0.00  0.00    +0.095 C 
ENDROOT
BRANCH   1   9
ATOM      9  C   LIG    1        1.474  -0.059  -0.056  0.00  0.00    -0.037 A 
ATOM     10  C   LIG    1        2.103  -1.084   0.568  0.00  0.00    +0.049 A 
ATOM     11  C   LIG    1        3.368  -1.473   0.119  0.00  0.00    +0.117 A 
ATOM     12  C   LIG    1        3.959  -0.823  -0.938  0.00  0.00    +0.045 A 
ATOM     13  C   LIG    1        3.325   0.226  -1.581  0.00  0.00    +0.004 A 
ATOM     14  C   LIG    1        2.086   0.585  -1.119  0.00  0.00    +0.004 A 
BRANCH  11  15
ATOM     15  O   LIG    1        4.023  -2.530   0.757  0.00  0.00    -0.507 OA
ATOM     16  H   LIG    1        4.639  -2.453   1.537  0.00  0.00    +0.292 HD
ENDBRANCH  11  15
ENDBRANCH   1   9
BRANCH   1  17
ATOM     17  C   LIG    1        0.001   1.748   0.867  0.00  0.00    +0.009 C 
ATOM     18  C   LIG    1        0.433   2.905   0.069  0.00  0.00    +0.005 C 
ENDBRANCH   1  17
TORSDOF 3
