REMARK  Name = molecules/JLKIGFTWXXRPMT-UHFFFAOYSA-N.pdb
REMARK                            x       y       z     vdW  Elec       q    Type
REMARK                         _______ _______ _______ _____ _____    ______ ____
ROOT
ATOM      1  S   LIG    1        0.280   0.895   2.180  0.00  0.00    +0.074 S 
ATOM      2  O   LIG    1        0.863   0.858   3.572  0.00  0.00    -0.150 OA
ATOM      3  O   LIG    1       -0.059   2.360   1.939  0.00  0.00    -0.150 OA
ENDROOT
BRANCH   1   4
ATOM      4  C   LIG    1        1.473   0.435   1.016  0.00  0.00    +0.109 A 
ATOM      5  C   LIG    1        2.385  -0.577   1.227  0.00  0.00    +0.030 A 
ATOM      6  C   LIG    1        3.332  -0.921   0.275  0.00  0.00    +0.024 A 
ATOM      7  C   LIG    1        3.371  -0.233  -0.926  0.00  0.00    +0.025 A 
ATOM      8  C   LIG    1        2.466   0.787  -1.161  0.00  0.00    +0.024 A 
ATOM      9  C   LIG    1        1.527   1.108  -0.184  0.00  0.00    +0.030 A 
BRANCH   7  10
ATOM     10  N   LIG    1        4.313  -0.530  -1.949  0.00  0.00    -0.358 N 
ATOM     11  H   LIG    1        5.308  -0.220  -1.922  0.00  0.00    +0.142 HD
ATOM     12  H   LIG    1        4.002  -1.083  -2.769  0.00  0.00    +0.142 HD
ENDBRANCH   7  10
ENDBRANCH   1   4
BRANCH   1  13
ATOM     13  N   LIG    1       -1.184   0.026   2.077  0.00  0.00    -0.197 N 
ATOM     14  H   LIG    1       -1.557  -0.569   2.844  0.00  0.00    +0.175 HD
BRANCH  13  15
ATOM     15  C   LIG    1       -1.947   0.113   0.884  0.00  0.00    +0.181 A 
ATOM     16  C   LIG    1       -3.165  -0.528   0.625  0.00  0.00    +0.092 A 
ATOM     17  C   LIG    1       -3.503  -0.135  -0.652  0.00  0.00    +0.136 A 
ATOM     18  O   LIG    1       -2.586   0.667  -1.134  0.00  0.00    -0.358 OA
ATOM     19  C   LIG    1       -4.714  -0.534  -1.414  0.00  0.00    +0.089 C 
ATOM     20  N   LIG    1       -1.687   0.807  -0.238  0.00  0.00    -0.062 NA
ENDBRANCH  13  15
ENDBRANCH   1  13
TORSDOF 4
