REMARK  Name = molecules/JLRNKCZRCMIVKA-UHFFFAOYSA-N.pdb
REMARK                            x       y       z     vdW  Elec       q    Type
REMARK                         _______ _______ _______ _____ _____    ______ ____
ROOT
ATOM      1  C   LIG    1       -0.097   0.894   0.538  0.00  0.00    +0.082 C 
ENDROOT
BRANCH   1   2
ATOM      2  C   LIG    1       -1.491   1.376   0.118  0.00  0.00    +0.235 C 
BRANCH   2   3
ATOM      3  O   LIG    1       -2.148   0.253  -0.420  0.00  0.00    -0.462 OA
BRANCH   3   4
ATOM      4  C   LIG    1       -3.449   0.343  -0.903  0.00  0.00    +0.351 C 
ATOM      5  O   LIG    1       -3.994   1.466  -0.832  0.00  0.00    -0.246 OA
BRANCH   4   6
ATOM      6  C   LIG    1       -4.110  -0.878  -1.467  0.00  0.00    +0.200 C 
ATOM      7  C   LIG    1       -3.949  -1.975  -0.466  0.00  0.00    +0.067 C 
ATOM      8  C   LIG    1       -3.297  -1.210  -2.728  0.00  0.00    +0.067 C 
BRANCH   6   9
ATOM      9  O   LIG    1       -5.413  -0.661  -1.881  0.00  0.00    -0.475 OA
BRANCH   9  10
ATOM     10  C   LIG    1       -6.492  -0.260  -1.138  0.00  0.00    +0.122 A 
ATOM     11  C   LIG    1       -6.427  -0.021   0.216  0.00  0.00    +0.047 A 
ATOM     12  C   LIG    1       -7.557   0.388   0.932  0.00  0.00    +0.023 A 
ATOM     13  C   LIG    1       -8.774   0.568   0.314  0.00  0.00    +0.041 A 
ATOM     14 CL   LIG    1      -10.201   1.085   1.214  0.00  0.00    -0.084 Cl
ATOM     15  C   LIG    1       -8.844   0.330  -1.041  0.00  0.00    +0.023 A 
ATOM     16  C   LIG    1       -7.731  -0.073  -1.746  0.00  0.00    +0.047 A 
ENDBRANCH   9  10
ENDBRANCH   6   9
ENDBRANCH   4   6
ENDBRANCH   3   4
ENDBRANCH   2   3
ENDBRANCH   1   2
BRANCH   1  17
ATOM     17  C   LIG    1        0.706   2.011   1.131  0.00  0.00    +0.235 C 
BRANCH  17  18
ATOM     18  O   LIG    1        1.965   1.539   1.510  0.00  0.00    -0.462 OA
BRANCH  18  19
ATOM     19  C   LIG    1        2.836   1.046   0.565  0.00  0.00    +0.351 C 
ATOM     20  O   LIG    1        2.492   1.030  -0.637  0.00  0.00    -0.246 OA
BRANCH  19  21
ATOM     21  C   LIG    1        4.183   0.526   0.921  0.00  0.00    +0.200 C 
ATOM     22  C   LIG    1        3.998  -0.604   1.923  0.00  0.00    +0.067 C 
ATOM     23  C   LIG    1        5.010   1.595   1.609  0.00  0.00    +0.067 C 
BRANCH  21  24
ATOM     24  O   LIG    1        4.826   0.101  -0.238  0.00  0.00    -0.475 OA
BRANCH  24  25
ATOM     25  C   LIG    1        6.098  -0.439  -0.270  0.00  0.00    +0.122 A 
ATOM     26  C   LIG    1        6.348  -1.786  -0.147  0.00  0.00    +0.047 A 
ATOM     27  C   LIG    1        7.626  -2.312  -0.181  0.00  0.00    +0.023 A 
ATOM     28  C   LIG    1        8.687  -1.473  -0.342  0.00  0.00    +0.041 A 
ATOM     29 CL   LIG    1       10.330  -2.113  -0.389  0.00  0.00    -0.084 Cl
ATOM     30  C   LIG    1        8.459  -0.118  -0.467  0.00  0.00    +0.023 A 
ATOM     31  C   LIG    1        7.165   0.413  -0.433  0.00  0.00    +0.047 A 
ENDBRANCH  24  25
ENDBRANCH  21  24
ENDBRANCH  19  21
ENDBRANCH  18  19
ENDBRANCH  17  18
ENDBRANCH   1  17
TORSDOF 12
