REMARK  Name = molecules/JMBQKKAJIKAWKF-CYBMUJFWSA-N.pdb
REMARK                            x       y       z     vdW  Elec       q    Type
REMARK                         _______ _______ _______ _____ _____    ______ ____
ROOT
ATOM      1  C   LIG    1       -0.407   0.117  -0.002  0.00  0.00    +0.072 C 
ATOM      2  C   LIG    1       -0.682   1.613  -0.049  0.00  0.00    +0.030 C 
ATOM      3  C   LIG    1       -2.112   2.021  -0.008  0.00  0.00    +0.097 C 
ATOM      4  C   LIG    1       -3.099   0.921  -0.129  0.00  0.00    +0.219 C 
ATOM      5  O   LIG    1       -4.235   1.053   0.315  0.00  0.00    -0.275 OA
ATOM      6  N   LIG    1       -2.685  -0.303  -0.783  0.00  0.00    -0.256 N 
ATOM      7  H   LIG    1       -3.429  -0.956  -1.069  0.00  0.00    +0.157 HD
ATOM      8  C   LIG    1       -1.295  -0.526  -0.990  0.00  0.00    +0.230 C 
ATOM      9  O   LIG    1       -0.948  -1.228  -1.965  0.00  0.00    -0.274 OA
ENDROOT
BRANCH   1  10
ATOM     10  C   LIG    1        1.020  -0.091  -0.278  0.00  0.00    -0.032 A 
ATOM     11  C   LIG    1        1.880   0.974  -0.120  0.00  0.00    +0.004 A 
ATOM     12  C   LIG    1        3.243   0.827  -0.360  0.00  0.00    +0.000 A 
ATOM     13  C   LIG    1        3.756  -0.375  -0.757  0.00  0.00    +0.000 A 
ATOM     14  C   LIG    1        2.873  -1.442  -0.913  0.00  0.00    +0.000 A 
ATOM     15  C   LIG    1        1.537  -1.312  -0.681  0.00  0.00    +0.004 A 
ENDBRANCH   1  10
BRANCH   1  16
ATOM     16  C   LIG    1       -0.759  -0.406   1.371  0.00  0.00    +0.017 C 
ATOM     17  C   LIG    1       -0.579  -1.885   1.407  0.00  0.00    +0.005 C 
ENDBRANCH   1  16
TORSDOF 2
