REMARK  Name = molecules/JMFOSJNGKJCTMJ-ZHZULCJRSA-N.pdb
REMARK                            x       y       z     vdW  Elec       q    Type
REMARK                         _______ _______ _______ _____ _____    ______ ____
ROOT
ATOM      1  C   LIG    1       -1.865  -0.253  -0.294  0.00  0.00    +0.148 C 
ATOM      2  C   LIG    1       -2.854   0.382  -0.902  0.00  0.00    +0.064 C 
ATOM      3  C   LIG    1       -3.838   1.240  -0.171  0.00  0.00    +0.068 C 
ENDROOT
BRANCH   1   4
ATOM      4  C   LIG    1       -1.634  -0.103   1.119  0.00  0.00    +0.037 A 
ATOM      5  C   LIG    1       -1.647  -1.204   1.947  0.00  0.00    +0.014 A 
ATOM      6  C   LIG    1       -1.397  -1.120   3.296  0.00  0.00    +0.021 A 
ATOM      7  C   LIG    1       -1.120   0.100   3.868  0.00  0.00    +0.042 A 
ATOM      8 CL   LIG    1       -0.794   0.248   5.602  0.00  0.00    -0.083 Cl
ATOM      9  C   LIG    1       -1.101   1.218   3.057  0.00  0.00    +0.040 A 
ATOM     10  C   LIG    1       -1.359   1.110   1.679  0.00  0.00    +0.053 A 
ATOM     11 CL   LIG    1       -1.244   2.592   0.754  0.00  0.00    -0.083 Cl
ENDBRANCH   1   4
BRANCH   2  12
ATOM     12  N   LIG    1       -3.037   0.207  -2.328  0.00  0.00    -0.306 N 
ATOM     13  C   LIG    1       -3.141  -0.961  -2.981  0.00  0.00    +0.112 A 
ATOM     14  C   LIG    1       -3.301  -0.649  -4.302  0.00  0.00    +0.130 A 
ATOM     15  N   LIG    1       -3.287   0.690  -4.394  0.00  0.00    -0.244 NA
ATOM     16  C   LIG    1       -3.123   1.245  -3.177  0.00  0.00    +0.203 A 
ENDBRANCH   2  12
BRANCH   1  17
ATOM     17  O   LIG    1       -1.084  -1.052  -1.118  0.00  0.00    -0.486 OA
BRANCH  17  18
ATOM     18  C   LIG    1        0.155  -1.589  -0.840  0.00  0.00    +0.270 C 
BRANCH  18  19
ATOM     19  C   LIG    1        1.233  -0.565  -0.540  0.00  0.00    +0.270 C 
BRANCH  19  20
ATOM     20  O   LIG    1        2.444  -1.249  -0.275  0.00  0.00    -0.489 OA
BRANCH  20  27
ATOM     21  C   LIG    1        4.780  -1.262   0.286  0.00  0.00    +0.047 A 
ATOM     22  C   LIG    1        5.921  -0.568   0.588  0.00  0.00    +0.023 A 
ATOM     23  C   LIG    1        5.956   0.814   0.650  0.00  0.00    +0.041 A 
ATOM     24 CL   LIG    1        7.391   1.716   1.030  0.00  0.00    -0.084 Cl
ATOM     25  C   LIG    1        4.783   1.482   0.394  0.00  0.00    +0.023 A 
ATOM     26  C   LIG    1        3.628   0.812   0.090  0.00  0.00    +0.047 A 
ATOM     27  C   LIG    1        3.616  -0.574   0.033  0.00  0.00    +0.121 A 
ENDBRANCH  20  27
ENDBRANCH  19  20
ENDBRANCH  18  19
ENDBRANCH  17  18
ENDBRANCH   1  17
TORSDOF 7
