REMARK  Name = molecules/JNDJPKHYZWRRIS-INIZCTEOSA-N.pdb
REMARK                            x       y       z     vdW  Elec       q    Type
REMARK                         _______ _______ _______ _____ _____    ______ ____
ROOT
ATOM      1  C   LIG    1       -0.772  -0.502   0.813  0.00  0.00    +0.121 A 
ATOM      2  C   LIG    1       -0.298   0.027   2.022  0.00  0.00    +0.049 A 
ATOM      3  C   LIG    1        1.054   0.053   2.285  0.00  0.00    +0.049 A 
ATOM      4  C   LIG    1        1.973  -0.432   1.384  0.00  0.00    +0.121 A 
ATOM      5  C   LIG    1        1.516  -0.951   0.200  0.00  0.00    +0.049 A 
ATOM      6  C   LIG    1        0.166  -0.984  -0.079  0.00  0.00    +0.049 A 
ENDROOT
BRANCH   1   7
ATOM      7  O   LIG    1       -2.134  -0.524   0.555  0.00  0.00    -0.489 OA
BRANCH   7   8
ATOM      8  C   LIG    1       -2.634  -1.049  -0.650  0.00  0.00    +0.261 C 
BRANCH   8   9
ATOM      9  C   LIG    1       -4.172  -0.911  -0.608  0.00  0.00    +0.166 C 
BRANCH   9  10
ATOM     10  O   LIG    1       -4.594  -1.632   0.464  0.00  0.00    -0.387 OA
ATOM     11  H   LIG    1       -3.905  -1.650   1.198  0.00  0.00    +0.210 HD
ENDBRANCH   9  10
BRANCH   9  12
ATOM     12  C   LIG    1       -4.462   0.537  -0.647  0.00  0.00    +0.115 C 
BRANCH  12  13
ATOM     13  N   LIG    1       -5.734   1.060  -0.678  0.00  0.00    -0.311 NA
ATOM     14  H   LIG    1       -6.042   1.502  -1.583  0.00  0.00    +0.122 HD
BRANCH  13  15
ATOM     15  C   LIG    1       -6.676   1.040   0.339  0.00  0.00    +0.048 C 
ATOM     16  C   LIG    1       -7.179  -0.338   0.670  0.00  0.00    +0.023 C 
ATOM     17  C   LIG    1       -7.928   1.865  -0.049  0.00  0.00    +0.023 C 
ENDBRANCH  13  15
ENDBRANCH  12  13
ENDBRANCH   9  12
ENDBRANCH   8   9
ENDBRANCH   7   8
ENDBRANCH   1   7
BRANCH   4  18
ATOM     18  O   LIG    1        3.323  -0.405   1.648  0.00  0.00    -0.490 OA
BRANCH  18  19
ATOM     19  C   LIG    1        4.236  -0.912   0.703  0.00  0.00    +0.257 C 
BRANCH  19  20
ATOM     20  C   LIG    1        5.664  -0.786   1.188  0.00  0.00    +0.200 C 
BRANCH  20  21
ATOM     21  O   LIG    1        6.603  -1.262   0.316  0.00  0.00    -0.376 OA
BRANCH  21  22
ATOM     22  C   LIG    1        6.653  -0.674  -0.916  0.00  0.00    +0.163 C 
BRANCH  22  23
ATOM     23  C   LIG    1        6.947   0.794  -0.899  0.00  0.00    +0.015 C 
ATOM     24  C   LIG    1        8.295   1.224  -1.449  0.00  0.00    +0.006 C 
ATOM     25  C   LIG    1        7.038   1.571  -2.158  0.00  0.00    +0.006 C 
ENDBRANCH  22  23
ENDBRANCH  21  22
ENDBRANCH  20  21
ENDBRANCH  19  20
ENDBRANCH  18  19
ENDBRANCH   4  18
TORSDOF 13
