REMARK  Name = molecules/JNMRHUJNCSQMMB-UHFFFAOYSA-N.pdb
REMARK                            x       y       z     vdW  Elec       q    Type
REMARK                         _______ _______ _______ _____ _____    ______ ____
ROOT
ATOM      1  S   LIG    1        0.658   1.295  -2.029  0.00  0.00    +0.074 S 
ATOM      2  O   LIG    1        1.043   2.644  -1.475  0.00  0.00    -0.150 OA
ATOM      3  O   LIG    1        0.240   1.425  -3.461  0.00  0.00    -0.150 OA
ENDROOT
BRANCH   1   4
ATOM      4  C   LIG    1       -0.656   0.598  -1.094  0.00  0.00    +0.109 A 
ATOM      5  C   LIG    1       -0.890   0.934   0.223  0.00  0.00    +0.030 A 
ATOM      6  C   LIG    1       -1.933   0.373   0.936  0.00  0.00    +0.024 A 
ATOM      7  C   LIG    1       -2.791  -0.546   0.369  0.00  0.00    +0.025 A 
ATOM      8  C   LIG    1       -2.559  -0.884  -0.950  0.00  0.00    +0.024 A 
ATOM      9  C   LIG    1       -1.520  -0.328  -1.666  0.00  0.00    +0.030 A 
BRANCH   7  10
ATOM     10  N   LIG    1       -3.861  -1.113   1.120  0.00  0.00    -0.358 N 
ATOM     11  H   LIG    1       -4.658  -0.563   1.506  0.00  0.00    +0.142 HD
ATOM     12  H   LIG    1       -3.853  -2.142   1.297  0.00  0.00    +0.142 HD
ENDBRANCH   7  10
ENDBRANCH   1   4
BRANCH   1  13
ATOM     13  N   LIG    1        2.014   0.256  -1.877  0.00  0.00    -0.194 N 
ATOM     14  H   LIG    1        2.391  -0.189  -2.743  0.00  0.00    +0.176 HD
BRANCH  13  15
ATOM     15  C   LIG    1        2.613   0.004  -0.598  0.00  0.00    +0.177 A 
ATOM     16  N   LIG    1        2.286   0.466   0.597  0.00  0.00    -0.232 NA
ATOM     17  C   LIG    1        2.969   0.106   1.635  0.00  0.00    +0.120 A 
ATOM     18  C   LIG    1        4.021  -0.754   1.446  0.00  0.00    +0.068 A 
ATOM     19  S   LIG    1        3.954  -0.992  -0.250  0.00  0.00    -0.059 S 
ENDBRANCH  13  15
ENDBRANCH   1  13
TORSDOF 4
