REMARK  Name = molecules/JOATXPAWOHTVSZ-INIZCTEOSA-N.pdb
REMARK                            x       y       z     vdW  Elec       q    Type
REMARK                         _______ _______ _______ _____ _____    ______ ____
ROOT
ATOM      1  C   LIG    1        0.081   0.260   0.885  0.00  0.00    +0.131 A 
ATOM      2  C   LIG    1        1.101   1.158   1.273  0.00  0.00    +0.060 A 
ATOM      3  C   LIG    1        2.334   1.021   0.681  0.00  0.00    +0.038 A 
ATOM      4  C   LIG    1        2.658   0.089  -0.254  0.00  0.00    +0.036 A 
ATOM      5  C   LIG    1        1.634  -0.799  -0.632  0.00  0.00    +0.027 A 
ATOM      6  C   LIG    1        0.394  -0.701  -0.069  0.00  0.00    +0.048 A 
ENDROOT
BRANCH   4   7
ATOM      7  N   LIG    1        3.922  -0.031  -0.874  0.00  0.00    -0.269 N 
ATOM      8  C   LIG    1        4.908   0.946  -0.905  0.00  0.00    +0.306 C 
ATOM      9  O   LIG    1        4.741   2.062  -0.363  0.00  0.00    -0.252 OA
ATOM     10  N   LIG    1        6.180   0.755  -1.554  0.00  0.00    -0.286 N 
ATOM     11  H   LIG    1        4.114  -0.973  -1.350  0.00  0.00    +0.156 HD
BRANCH  10  12
ATOM     12  C   LIG    1        7.170   1.808  -1.544  0.00  0.00    +0.106 C 
ATOM     13  C   LIG    1        8.107   1.761  -0.384  0.00  0.00    +0.024 C 
ENDBRANCH  10  12
BRANCH  10  14
ATOM     14  C   LIG    1        6.439  -0.497  -2.206  0.00  0.00    +0.106 C 
ATOM     15  C   LIG    1        7.055  -1.499  -1.256  0.00  0.00    +0.024 C 
ENDBRANCH  10  14
ENDBRANCH   4   7
BRANCH   2  16
ATOM     16  C   LIG    1        0.862   2.200   2.272  0.00  0.00    +0.164 C 
ATOM     17  C   LIG    1       -0.456   2.369   2.924  0.00  0.00    +0.092 C 
ATOM     18  O   LIG    1        1.807   2.964   2.574  0.00  0.00    -0.292 OA
ENDBRANCH   2  16
BRANCH   1  19
ATOM     19  O   LIG    1       -1.099   0.412   1.477  0.00  0.00    -0.489 OA
BRANCH  19  20
ATOM     20  C   LIG    1       -2.316  -0.148   1.423  0.00  0.00    +0.261 C 
BRANCH  20  21
ATOM     21  C   LIG    1       -3.133  -0.010   0.173  0.00  0.00    +0.166 C 
BRANCH  21  22
ATOM     22  O   LIG    1       -2.636  -0.507  -0.978  0.00  0.00    -0.387 OA
ATOM     23  H   LIG    1       -2.188   0.119  -1.581  0.00  0.00    +0.210 HD
ENDBRANCH  21  22
BRANCH  21  24
ATOM     24  C   LIG    1       -4.519  -0.580   0.511  0.00  0.00    +0.116 C 
BRANCH  24  25
ATOM     25  N   LIG    1       -5.463  -0.258  -0.543  0.00  0.00    -0.309 NA
ATOM     26  H   LIG    1       -5.129  -0.571  -1.470  0.00  0.00    +0.123 HD
BRANCH  25  27
ATOM     27  C   LIG    1       -6.753  -0.802  -0.196  0.00  0.00    +0.011 C 
ATOM     28  C   LIG    1       -7.207  -0.307   1.171  0.00  0.00    +0.027 C 
ATOM     29  C   LIG    1       -6.649  -2.309  -0.118  0.00  0.00    +0.027 C 
ATOM     30  C   LIG    1       -7.819  -0.343  -1.177  0.00  0.00    +0.027 C 
ENDBRANCH  25  27
ENDBRANCH  24  25
ENDBRANCH  21  24
ENDBRANCH  20  21
ENDBRANCH  19  20
ENDBRANCH   1  19
TORSDOF 11
