REMARK  Name = molecules/JOFWLTCLBGQGBO-UHFFFAOYSA-N.pdb
REMARK                            x       y       z     vdW  Elec       q    Type
REMARK                         _______ _______ _______ _____ _____    ______ ____
ROOT
ATOM      1  C   LIG    1        4.069   0.365  -0.857  0.00  0.00    +0.088 C 
ATOM      2  C   LIG    1        3.291  -0.863  -0.628  0.00  0.00    +0.135 A 
ATOM      3  N   LIG    1        2.134  -0.978  -0.009  0.00  0.00    -0.281 N 
ATOM      4  C   LIG    1        1.480   0.105   0.637  0.00  0.00    +0.059 A 
ATOM      5  C   LIG    1        2.359   0.956   1.228  0.00  0.00    +0.028 A 
ATOM      6  C   LIG    1        1.778   2.027   1.926  0.00  0.00    +0.022 A 
ATOM      7  C   LIG    1        0.385   2.177   1.992  0.00  0.00    +0.042 A 
ATOM      8 CL   LIG    1       -0.332   3.520   2.862  0.00  0.00    -0.084 Cl
ATOM      9  C   LIG    1       -0.448   1.276   1.374  0.00  0.00    +0.032 A 
ATOM     10  C   LIG    1        0.082   0.230   0.684  0.00  0.00    +0.026 A 
ATOM     11  C   LIG    1       -0.925  -0.635   0.112  0.00  0.00    +0.077 C 
ATOM     12  N   LIG    1       -0.775  -1.933   0.065  0.00  0.00    -0.275 NA
ATOM     13  C   LIG    1        0.341  -2.773   0.524  0.00  0.00    +0.218 C 
ATOM     14  C   LIG    1        1.650  -2.271  -0.041  0.00  0.00    +0.159 A 
ATOM     15  N   LIG    1        2.574  -2.961  -0.711  0.00  0.00    -0.132 NA
ATOM     16  N   LIG    1        3.565  -2.128  -1.069  0.00  0.00    -0.134 NA
ENDROOT
BRANCH  11  17
ATOM     17  C   LIG    1       -2.145  -0.064  -0.376  0.00  0.00    +0.019 A 
ATOM     18  C   LIG    1       -2.400   1.244  -0.676  0.00  0.00    +0.011 A 
ATOM     19  C   LIG    1       -3.592   1.620  -1.261  0.00  0.00    +0.001 A 
ATOM     20  C   LIG    1       -4.567   0.698  -1.568  0.00  0.00    +0.001 A 
ATOM     21  C   LIG    1       -4.316  -0.624  -1.270  0.00  0.00    +0.020 A 
ATOM     22  C   LIG    1       -3.144  -1.005  -0.693  0.00  0.00    +0.050 A 
ATOM     23 CL   LIG    1       -2.906  -2.717  -0.345  0.00  0.00    -0.083 Cl
ENDBRANCH  11  17
TORSDOF 1
