REMARK  Name = molecules/JOQKFRLFXDPXHX-YFUWWQDYSA-N.pdb
REMARK                            x       y       z     vdW  Elec       q    Type
REMARK                         _______ _______ _______ _____ _____    ______ ____
ROOT
ATOM      1  C   LIG    1        3.867   0.173   0.422  0.00  0.00    +0.105 C 
ATOM      2  N   LIG    1        2.518  -0.246   0.182  0.00  0.00    -0.299 NA
ATOM      3  C   LIG    1        2.219  -1.568   0.600  0.00  0.00    +0.061 C 
ATOM      4  C   LIG    1        0.664  -1.658   0.673  0.00  0.00    +0.050 C 
ATOM      5  C   LIG    1        0.061  -0.655  -0.250  0.00  0.00    -0.058 C 
ATOM      6  C   LIG    1       -0.974   0.054   0.082  0.00  0.00    -0.010 C 
ATOM      7  C   LIG    1       -1.581  -0.121   1.421  0.00  0.00    -0.004 A 
ATOM      8  C   LIG    1       -1.946   0.845   2.330  0.00  0.00    +0.016 A 
ATOM      9  C   LIG    1       -2.478   0.467   3.542  0.00  0.00    +0.015 A 
ATOM     10  C   LIG    1       -2.651  -0.888   3.854  0.00  0.00    +0.001 A 
ATOM     11  C   LIG    1       -2.277  -1.834   2.917  0.00  0.00    +0.001 A 
ATOM     12  S   LIG    1       -1.904   2.590   2.131  0.00  0.00    -0.120 S 
ATOM     13  C   LIG    1       -1.643   3.217   0.506  0.00  0.00    +0.110 C 
ATOM     14  C   LIG    1       -1.764   2.365  -0.655  0.00  0.00    -0.030 A 
ATOM     15  C   LIG    1       -2.256   3.063  -1.780  0.00  0.00    +0.005 A 
ATOM     16  C   LIG    1       -2.451   2.473  -2.997  0.00  0.00    +0.000 A 
ATOM     17  C   LIG    1       -2.162   1.119  -3.179  0.00  0.00    +0.001 A 
ATOM     18  C   LIG    1       -1.683   0.401  -2.118  0.00  0.00    +0.009 A 
ATOM     19  C   LIG    1       -1.753  -1.449   1.720  0.00  0.00    +0.009 A 
ATOM     20  C   LIG    1       -1.502   1.038  -0.912  0.00  0.00    -0.013 A 
ATOM     21  C   LIG    1        0.789  -0.465  -1.550  0.00  0.00    +0.050 C 
ATOM     22  C   LIG    1        2.761  -2.449  -0.480  0.00  0.00    +0.021 C 
ATOM     23  C   LIG    1        3.034  -1.527  -1.655  0.00  0.00    +0.021 C 
ATOM     24  C   LIG    1        2.267  -0.300  -1.230  0.00  0.00    +0.061 C 
ENDROOT
TORSDOF 0
