REMARK  Name = molecules/JPAWFIIYTJQOKW-UHFFFAOYSA-N.pdb
REMARK                            x       y       z     vdW  Elec       q    Type
REMARK                         _______ _______ _______ _____ _____    ______ ____
ROOT
ATOM      1  C   LIG    1       -1.029   0.363  -0.015  0.00  0.00    +0.004 A 
ATOM      2  C   LIG    1       -1.770  -0.760   0.267  0.00  0.00    +0.024 A 
ATOM      3  N   LIG    1       -3.086  -0.628   0.517  0.00  0.00    -0.325 N 
ATOM      4  H   LIG    1       -3.631  -1.480   0.727  0.00  0.00    +0.169 HD
ATOM      5  C   LIG    1       -3.735   0.544   0.510  0.00  0.00    +0.266 A 
ATOM      6  O   LIG    1       -4.960   0.640   0.747  0.00  0.00    -0.267 OA
ATOM      7  C   LIG    1       -3.027   1.690   0.232  0.00  0.00    +0.116 A 
ATOM      8  C   LIG    1       -1.166  -2.122   0.299  0.00  0.00    +0.064 C 
ATOM      9  C   LIG    1       -1.656   1.595  -0.034  0.00  0.00    +0.034 A 
ENDROOT
BRANCH   1  18
ATOM     10  C   LIG    1        1.205  -0.435   0.543  0.00  0.00    +0.101 A 
ATOM     11  N   LIG    1        2.551  -0.519   0.325  0.00  0.00    -0.306 N 
ATOM     12  C   LIG    1        3.552  -1.147   0.963  0.00  0.00    +0.112 A 
ATOM     13  C   LIG    1        4.725  -0.881   0.291  0.00  0.00    +0.131 A 
ATOM     14  N   LIG    1        4.408  -0.090  -0.749  0.00  0.00    -0.236 NA
ATOM     15  C   LIG    1        3.073   0.140  -0.741  0.00  0.00    +0.138 A 
ATOM     16  C   LIG    1        2.317   0.891  -1.613  0.00  0.00    +0.047 A 
ATOM     17  C   LIG    1        0.939   0.959  -1.364  0.00  0.00    +0.013 A 
ATOM     18  C   LIG    1        0.393   0.296  -0.288  0.00  0.00    +0.000 A 
ENDBRANCH   1  18
BRANCH   7  19
ATOM     19  C   LIG    1       -3.659   2.971   0.209  0.00  0.00    +0.105 C 
ATOM     20  N   LIG    1       -4.194   4.013   0.191  0.00  0.00    -0.191 NA
ENDBRANCH   7  19
TORSDOF 2
