REMARK  Name = molecules/JPBBNLWRCVBGJS-KCAUTNRHSA-N.pdb
REMARK                            x       y       z     vdW  Elec       q    Type
REMARK                         _______ _______ _______ _____ _____    ______ ____
ROOT
ATOM      1  C   LIG    1       -0.996   1.245   0.652  0.00  0.00    +0.178 C 
ENDROOT
BRANCH   1   2
ATOM      2  O   LIG    1       -0.407   0.812  -0.466  0.00  0.00    -0.360 OA
BRANCH   2   3
ATOM      3  C   LIG    1        0.732   1.236  -1.023  0.00  0.00    +0.201 C 
ATOM      4  C   LIG    1        0.540   1.451  -2.515  0.00  0.00    +0.048 C 
BRANCH   3   5
ATOM      5  C   LIG    1        1.790   0.162  -0.952  0.00  0.00    +0.242 C 
ATOM      6  O   LIG    1        1.456  -0.941  -0.440  0.00  0.00    -0.273 OA
ATOM      7  N   LIG    1        3.108   0.278  -1.402  0.00  0.00    -0.302 N 
ATOM      8  H   LIG    1        3.447   1.139  -1.847  0.00  0.00    +0.150 HD
BRANCH   7   9
ATOM      9  C   LIG    1        4.034  -0.839  -1.238  0.00  0.00    +0.156 C 
ATOM     10  C   LIG    1        4.050  -1.588  -2.582  0.00  0.00    +0.038 C 
BRANCH   9  11
ATOM     11  C   LIG    1        5.382  -0.404  -0.873  0.00  0.00    +0.234 C 
ATOM     12  N   LIG    1        6.352  -1.267  -0.299  0.00  0.00    -0.302 N 
ATOM     13  H   LIG    1        6.168  -2.259  -0.082  0.00  0.00    +0.150 HD
ATOM     14  O   LIG    1        5.681   0.811  -1.085  0.00  0.00    -0.274 OA
BRANCH  12  15
ATOM     15  C   LIG    1        7.682  -0.726   0.019  0.00  0.00    +0.159 C 
BRANCH  15  16
ATOM     16  C   LIG    1        7.793  -0.370   1.434  0.00  0.00    +0.231 C 
ATOM     17  O   LIG    1        7.053  -0.982   2.259  0.00  0.00    -0.274 OA
ATOM     18  N   LIG    1        8.686   0.635   1.907  0.00  0.00    -0.328 N 
ATOM     19  H   LIG    1        8.832   0.777   2.934  0.00  0.00    +0.145 HD
ATOM     20  H   LIG    1        9.180   1.214   1.215  0.00  0.00    +0.145 HD
ENDBRANCH  15  16
BRANCH  15  21
ATOM     21  C   LIG    1        8.678  -1.697  -0.496  0.00  0.00    +0.043 C 
BRANCH  21  22
ATOM     22  C   LIG    1       10.112  -1.373  -0.260  0.00  0.00    +0.123 C 
BRANCH  22  23
ATOM     23  C   LIG    1       10.540  -1.411   1.141  0.00  0.00    +0.305 C 
ATOM     24  O   LIG    1        9.846  -2.098   1.968  0.00  0.00    -0.251 OA
BRANCH  23  25
ATOM     25  O   LIG    1       11.645  -0.752   1.637  0.00  0.00    -0.481 OA
ATOM     26  H   LIG    1       12.036   0.066   1.173  0.00  0.00    +0.295 HD
ENDBRANCH  23  25
ENDBRANCH  22  23
ENDBRANCH  21  22
ENDBRANCH  15  21
ENDBRANCH  12  15
ENDBRANCH   9  11
ENDBRANCH   7   9
ENDBRANCH   3   5
ENDBRANCH   2   3
ENDBRANCH   1   2
BRANCH   1  27
ATOM     27  CA  LIG    1       -0.755   0.310   1.828  0.00  0.00    +0.167 C 
BRANCH  27  28
ATOM     28  N   LIG    1       -1.112  -1.046   1.610  0.00  0.00    -0.304 N 
ATOM     29  C   LIG    1       -1.249  -2.050   2.556  0.00  0.00    +0.211 C 
ATOM     30  O   LIG    1       -1.061  -1.804   3.787  0.00  0.00    -0.276 OA
ATOM     31  C   LIG    1       -1.611  -3.430   2.167  0.00  0.00    +0.109 C 
ATOM     32  H   LIG    1       -1.314  -1.303   0.588  0.00  0.00    +0.149 HD
ENDBRANCH  27  28
BRANCH  27  33
ATOM     33  C   LIG    1        0.680   0.453   2.327  0.00  0.00    +0.248 C 
ATOM     34  O   LIG    1        1.259  -0.603   2.521  0.00  0.00    -0.299 OA
ENDBRANCH  27  33
ENDBRANCH   1  27
BRANCH   1  35
ATOM     35  C   LIG    1       -2.401   1.712   0.534  0.00  0.00    +0.183 C 
BRANCH  35  36
ATOM     36  C   LIG    1       -2.586   3.198   0.383  0.00  0.00    +0.171 C 
BRANCH  36  37
ATOM     37  O   LIG    1       -3.853   3.542   0.957  0.00  0.00    -0.387 OA
ATOM     38  H   LIG    1       -4.041   2.953   1.697  0.00  0.00    +0.210 HD
ENDBRANCH  36  37
BRANCH  36  39
ATOM     39  C   LIG    1       -2.652   3.685  -1.050  0.00  0.00    +0.189 C 
BRANCH  39  40
ATOM     40  O   LIG    1       -1.475   3.557  -1.694  0.00  0.00    -0.392 OA
ATOM     41  H   LIG    1       -1.506   3.950  -2.599  0.00  0.00    +0.210 HD
ENDBRANCH  39  40
ENDBRANCH  36  39
ENDBRANCH  35  36
BRANCH  35  42
ATOM     42  O   LIG    1       -3.287   0.952  -0.137  0.00  0.00    -0.341 OA
BRANCH  42  43
ATOM     43  C   LIG    1       -4.346   0.370   0.530  0.00  0.00    +0.274 C 
ATOM     44  O   LIG    1       -4.232  -1.011   0.316  0.00  0.00    -0.341 OA
ATOM     45  C   LIG    1       -5.438  -1.674   0.379  0.00  0.00    +0.178 C 
ATOM     46  C   LIG    1       -6.384  -1.310  -0.710  0.00  0.00    +0.176 C 
ATOM     47  C   LIG    1       -6.018   0.048  -1.256  0.00  0.00    +0.171 C 
ATOM     48  C   LIG    1       -5.598   0.931  -0.107  0.00  0.00    +0.160 C 
BRANCH  48  49
ATOM     49  N   LIG    1       -6.677   1.196   0.802  0.00  0.00    -0.305 N 
ATOM     50  H   LIG    1       -7.064   0.472   1.411  0.00  0.00    +0.149 HD
ATOM     51  C   LIG    1       -7.274   2.516   0.896  0.00  0.00    +0.210 C 
ATOM     52  C   LIG    1       -8.397   2.723   1.857  0.00  0.00    +0.109 C 
ATOM     53  O   LIG    1       -6.866   3.465   0.193  0.00  0.00    -0.276 OA
ENDBRANCH  48  49
BRANCH  46  54
ATOM     54  O   LIG    1       -7.663  -1.165  -0.157  0.00  0.00    -0.387 OA
ATOM     55  H   LIG    1       -8.319  -1.816  -0.547  0.00  0.00    +0.210 HD
ENDBRANCH  46  54
BRANCH  47  56
ATOM     56  O   LIG    1       -5.021   0.027  -2.205  0.00  0.00    -0.387 OA
ATOM     57  H   LIG    1       -4.161  -0.351  -1.900  0.00  0.00    +0.210 HD
ENDBRANCH  47  56
BRANCH  45  58
ATOM     58  C   LIG    1       -5.199  -3.172   0.342  0.00  0.00    +0.190 C 
BRANCH  58  59
ATOM     59  O   LIG    1       -4.566  -3.637  -0.771  0.00  0.00    -0.392 OA
ATOM     60  H   LIG    1       -4.864  -4.558  -1.036  0.00  0.00    +0.210 HD
ENDBRANCH  58  59
ENDBRANCH  45  58
ENDBRANCH  42  43
ENDBRANCH  35  42
ENDBRANCH   1  35
TORSDOF 26
