REMARK  Name = molecules/JPGQOUSTVILISH-PVQJCKRUSA-N.pdb
REMARK                            x       y       z     vdW  Elec       q    Type
REMARK                         _______ _______ _______ _____ _____    ______ ____
ROOT
ATOM      1  C   LIG    1       -0.391  -0.414   0.072  0.00  0.00    +0.406 C 
ATOM      2  F   LIG    1       -0.236  -0.986   1.341  0.00  0.00    -0.170 F 
ATOM      3  F   LIG    1       -0.389  -1.440  -0.819  0.00  0.00    -0.170 F 
ENDROOT
BRANCH   1   4
ATOM      4  C   LIG    1       -1.780   0.235   0.103  0.00  0.00    +0.355 C 
ATOM      5 CL   LIG    1       -1.756   1.437   1.414  0.00  0.00    -0.076 Cl
ATOM      6  F   LIG    1       -2.737  -0.711   0.316  0.00  0.00    -0.219 F 
ENDBRANCH   1   4
BRANCH   1   7
ATOM      7  O   LIG    1        0.514   0.580  -0.168  0.00  0.00    -0.255 OA
BRANCH   7   8
ATOM      8  C   LIG    1        1.823   0.194  -0.232  0.00  0.00    +0.487 C 
ATOM      9  F   LIG    1        2.490   0.811   0.832  0.00  0.00    -0.178 F 
ATOM     10  F   LIG    1        2.430   0.492  -1.435  0.00  0.00    -0.178 F 
ENDBRANCH   7   8
ENDBRANCH   1   7
TORSDOF 3
