REMARK  Name = molecules/JPYQFYIEOUVJDU-UHFFFAOYSA-N.pdb
REMARK                            x       y       z     vdW  Elec       q    Type
REMARK                         _______ _______ _______ _____ _____    ______ ____
ROOT
ATOM      1  C   LIG    1       -0.262  -1.016  -1.743  0.00  0.00    +0.139 C 
ENDROOT
BRANCH   1   2
ATOM      2  C   LIG    1       -1.343  -0.648  -0.772  0.00  0.00    -0.030 A 
ATOM      3  C   LIG    1       -2.217  -1.613  -0.335  0.00  0.00    +0.005 A 
ATOM      4  C   LIG    1       -3.212  -1.241   0.560  0.00  0.00    +0.000 A 
ATOM      5  C   LIG    1       -3.333   0.052   1.005  0.00  0.00    +0.000 A 
ATOM      6  C   LIG    1       -2.426   1.008   0.539  0.00  0.00    +0.000 A 
ATOM      7  C   LIG    1       -1.432   0.667  -0.346  0.00  0.00    +0.005 A 
ENDBRANCH   1   2
BRANCH   1   8
ATOM      8  N   LIG    1        0.753   0.006  -1.663  0.00  0.00    -0.311 N 
ATOM      9  C   LIG    1        1.656   0.029  -0.582  0.00  0.00    +0.214 C 
ATOM     10  O   LIG    1        1.577  -0.848   0.313  0.00  0.00    -0.276 OA
ATOM     11  H   LIG    1        0.822   0.729  -2.400  0.00  0.00    +0.149 HD
BRANCH   9  12
ATOM     12  C   LIG    1        2.698   1.082  -0.500  0.00  0.00    +0.111 C 
BRANCH  12  13
ATOM     13  C   LIG    1        3.533   0.834   0.736  0.00  0.00    +0.118 C 
ATOM     14 CL   LIG    1        4.278  -0.777   0.581  0.00  0.00    -0.125 Cl
ENDBRANCH  12  13
ENDBRANCH   9  12
ENDBRANCH   1   8
TORSDOF 4
