REMARK  Name = molecules/JQBKWZPHJOEQAO-DVPVEWDBSA-N.pdb
REMARK                            x       y       z     vdW  Elec       q    Type
REMARK                         _______ _______ _______ _____ _____    ______ ____
ROOT
ATOM      1  N   LIG    1       -2.003   1.122  -0.260  0.00  0.00    -0.251 N 
ATOM      2  C   LIG    1       -2.968   1.047   0.859  0.00  0.00    +0.158 C 
ATOM      3  S   LIG    1       -2.894  -0.796   0.933  0.00  0.00    -0.101 S 
ATOM      4  C   LIG    1       -1.077  -0.821   0.609  0.00  0.00    +0.044 C 
ATOM      5  C   LIG    1       -4.057   1.603   0.024  0.00  0.00    +0.135 C 
ATOM      6  C   LIG    1       -0.858   0.305  -0.033  0.00  0.00    +0.134 C 
ATOM      7  C   LIG    1       -2.941   2.025  -0.854  0.00  0.00    +0.229 C 
ATOM      8  O   LIG    1       -2.850   2.860  -1.773  0.00  0.00    -0.275 OA
ENDROOT
BRANCH   4   9
ATOM      9  C   LIG    1       -0.249  -1.945   1.056  0.00  0.00    +0.157 C 
ATOM     10  O   LIG    1        1.061  -1.974   0.786  0.00  0.00    -0.371 OA
ATOM     11  C   LIG    1        1.502  -3.218   1.161  0.00  0.00    +0.161 C 
ATOM     12  C   LIG    1        0.366  -4.200   0.936  0.00  0.00    +0.031 C 
ATOM     13  C   LIG    1       -0.718  -3.265   0.411  0.00  0.00    +0.039 C 
ENDBRANCH   4   9
BRANCH   5  14
ATOM     14  C   LIG    1       -4.740   2.846   0.591  0.00  0.00    +0.126 C 
ATOM     15  C   LIG    1       -5.168   3.697  -0.566  0.00  0.00    +0.038 C 
BRANCH  14  16
ATOM     16  O   LIG    1       -5.799   2.501   1.425  0.00  0.00    -0.391 OA
ATOM     17  H   LIG    1       -6.675   2.807   1.096  0.00  0.00    +0.210 HD
ENDBRANCH  14  16
ENDBRANCH   5  14
BRANCH   6  18
ATOM     18  C   LIG    1        0.467   0.744  -0.509  0.00  0.00    +0.355 C 
ATOM     19  O   LIG    1        0.555   1.836  -1.116  0.00  0.00    -0.243 OA
BRANCH  18  20
ATOM     20  O   LIG    1        1.637   0.054  -0.344  0.00  0.00    -0.452 OA
BRANCH  20  21
ATOM     21  C   LIG    1        2.852   0.545  -0.828  0.00  0.00    +0.310 C 
BRANCH  21  22
ATOM     22  C   LIG    1        3.994  -0.325  -0.560  0.00  0.00    +0.187 A 
ATOM     23  O   LIG    1        4.028  -1.475   0.059  0.00  0.00    -0.392 OA
ATOM     24  C   LIG    1        5.263  -1.937   0.089  0.00  0.00    +0.521 A 
ATOM     25  O   LIG    1        5.693  -2.993   0.586  0.00  0.00    -0.202 OA
ATOM     26  O   LIG    1        6.038  -1.056  -0.528  0.00  0.00    -0.396 OA
ATOM     27  C   LIG    1        5.289  -0.053  -0.939  0.00  0.00    +0.151 A 
ATOM     28  C   LIG    1        5.838   1.113  -1.671  0.00  0.00    +0.090 C 
ENDBRANCH  21  22
ENDBRANCH  20  21
ENDBRANCH  18  20
ENDBRANCH   6  18
TORSDOF 7
