REMARK  Name = molecules/JQIYNMYZKRGDFK-RUFWAXPRSA-N.pdb
REMARK                            x       y       z     vdW  Elec       q    Type
REMARK                         _______ _______ _______ _____ _____    ______ ____
ROOT
ATOM      1  C   LIG    1        2.272   0.106   1.808  0.00  0.00    +0.015 C 
ATOM      2  C   LIG    1        2.335  -0.019   0.315  0.00  0.00    +0.008 C 
ATOM      3  C   LIG    1        3.707  -0.500  -0.053  0.00  0.00    +0.183 C 
ATOM      4  C   LIG    1        3.692  -1.887   0.610  0.00  0.00    +0.045 C 
ATOM      5  C   LIG    1        2.244  -2.352   0.466  0.00  0.00    +0.008 C 
ATOM      6  C   LIG    1        1.519  -1.225  -0.176  0.00  0.00    +0.002 C 
ATOM      7  C   LIG    1        0.116  -1.014   0.278  0.00  0.00    +0.000 C 
ATOM      8  C   LIG    1       -0.748  -2.178  -0.061  0.00  0.00    +0.009 C 
ATOM      9  C   LIG    1       -1.900  -1.875  -0.970  0.00  0.00    +0.036 C 
ATOM     10  C   LIG    1       -2.615  -0.687  -0.430  0.00  0.00    -0.040 A 
ATOM     11  C   LIG    1       -1.829   0.412  -0.146  0.00  0.00    -0.041 A 
ATOM     12  C   LIG    1       -2.388   1.567   0.356  0.00  0.00    +0.008 A 
ATOM     13  C   LIG    1       -3.748   1.600   0.569  0.00  0.00    +0.046 A 
ATOM     14  C   LIG    1       -4.525   0.482   0.277  0.00  0.00    +0.132 A 
ATOM     15  C   LIG    1       -3.975  -0.676  -0.225  0.00  0.00    +0.050 A 
ATOM     16  C   LIG    1       -0.382   0.245  -0.418  0.00  0.00    +0.023 C 
ATOM     17  C   LIG    1        0.429   1.449  -0.058  0.00  0.00    +0.009 C 
ATOM     18  C   LIG    1        1.870   1.187  -0.419  0.00  0.00    +0.011 C 
ENDROOT
BRANCH   3  19
ATOM     19  O   LIG    1        4.752   0.288   0.406  0.00  0.00    -0.461 OA
BRANCH  19  20
ATOM     20  C   LIG    1        5.697   0.731  -0.515  0.00  0.00    +0.307 C 
ATOM     21  O   LIG    1        5.591   0.412  -1.732  0.00  0.00    -0.251 OA
BRANCH  20  22
ATOM     22  C   LIG    1        6.856   1.583  -0.130  0.00  0.00    +0.117 C 
ATOM     23  C   LIG    1        8.122   0.755  -0.070  0.00  0.00    +0.015 C 
ENDBRANCH  20  22
ENDBRANCH  19  20
ENDBRANCH   3  19
BRANCH  14  24
ATOM     24  O   LIG    1       -5.893   0.517   0.493  0.00  0.00    -0.426 OA
BRANCH  24  25
ATOM     25  C   LIG    1       -6.779   0.921  -0.491  0.00  0.00    +0.312 C 
ATOM     26  O   LIG    1       -6.321   1.264  -1.601  0.00  0.00    -0.250 OA
BRANCH  25  27
ATOM     27  C   LIG    1       -8.236   0.960  -0.267  0.00  0.00    +0.118 C 
ATOM     28  C   LIG    1       -8.583   0.519   1.149  0.00  0.00    +0.015 C 
ENDBRANCH  25  27
ENDBRANCH  24  25
ENDBRANCH  14  24
TORSDOF 6
