REMARK  Name = molecules/JQKHJQJVKRFMCO-SNAWJCMRSA-N.pdb
REMARK                            x       y       z     vdW  Elec       q    Type
REMARK                         _______ _______ _______ _____ _____    ______ ____
ROOT
ATOM      1  C   LIG    1        1.240  -0.301  -0.658  0.00  0.00    +0.048 C 
ATOM      2  C   LIG    1        0.256   0.039   0.148  0.00  0.00    +0.031 C 
ENDROOT
BRANCH   2   3
ATOM      3  C   LIG    1       -1.160  -0.100  -0.146  0.00  0.00    +0.064 A 
ATOM      4  N   LIG    1       -2.116   0.267   0.722  0.00  0.00    -0.250 NA
ATOM      5  CA  LIG    1       -3.430   0.158   0.496  0.00  0.00    +0.067 A 
ATOM      6  C   LIG    1       -3.885  -0.367  -0.711  0.00  0.00    +0.026 A 
ATOM      7  C   LIG    1       -2.946  -0.760  -1.639  0.00  0.00    +0.004 A 
ATOM      8  C   LIG    1       -1.589  -0.623  -1.348  0.00  0.00    +0.028 A 
BRANCH   5   9
ATOM      9  C   LIG    1       -4.424   0.590   1.516  0.00  0.00    +0.211 C 
BRANCH   9  10
ATOM     10  O   LIG    1       -5.708   0.389   1.072  0.00  0.00    -0.389 OA
ATOM     11  H   LIG    1       -6.068   1.213   0.709  0.00  0.00    +0.210 HD
ENDBRANCH   9  10
ENDBRANCH   5   9
ENDBRANCH   2   3
BRANCH   1  12
ATOM     12  C   LIG    1        2.634  -0.119  -0.265  0.00  0.00    +0.131 A 
ATOM     13  C   LIG    1        3.080   0.401   0.931  0.00  0.00    +0.052 A 
ATOM     14  C   LIG    1        4.479   0.411   0.927  0.00  0.00    +0.076 A 
ATOM     15  C   LIG    1        4.798  -0.122  -0.312  0.00  0.00    +0.280 A 
ATOM     16  O   LIG    1        3.687  -0.411  -0.961  0.00  0.00    -0.435 OA
BRANCH  15  17
ATOM     17  N   LIG    1        6.136  -0.297  -0.744  0.00  0.00    +0.093 N 
ATOM     18  O   LIG    1        7.220   0.039   0.013  0.00  0.00    -0.123 OA
ATOM     19  O   LIG    1        6.325  -0.781  -1.868  0.00  0.00    -0.123 OA
ENDBRANCH  15  17
ENDBRANCH   1  12
TORSDOF 5
