REMARK  Name = molecules/JRFKIOFLCXKVOT-UHFFFAOYSA-N.pdb
REMARK                            x       y       z     vdW  Elec       q    Type
REMARK                         _______ _______ _______ _____ _____    ______ ____
ROOT
ATOM      1  N   LIG    1        1.640  -0.847  -0.091  0.00  0.00    -0.289 N 
ATOM      2  C   LIG    1        0.770   0.252   0.056  0.00  0.00    +0.247 C 
ATOM      3  O   LIG    1        1.248   1.433   0.166  0.00  0.00    -0.270 OA
ATOM      4  H   LIG    1        1.275  -1.808  -0.183  0.00  0.00    +0.151 HD
ENDROOT
BRANCH   2   5
ATOM      5  C   LIG    1       -0.659   0.078   0.086  0.00  0.00    +0.055 A 
ATOM      6  C   LIG    1       -1.481   1.206   0.112  0.00  0.00    +0.016 A 
ATOM      7  C   LIG    1       -2.836   1.109   0.139  0.00  0.00    +0.020 A 
ATOM      8  C   LIG    1       -3.394  -0.142   0.138  0.00  0.00    +0.111 A 
ATOM      9  N   LIG    1       -2.620  -1.240   0.113  0.00  0.00    -0.263 NA
ATOM     10  C   LIG    1       -1.252  -1.158   0.086  0.00  0.00    +0.123 A 
ENDBRANCH   2   5
BRANCH   1  11
ATOM     11  C   LIG    1        3.084  -0.595  -0.112  0.00  0.00    +0.264 C 
BRANCH  11  12
ATOM     12  O   LIG    1        3.325   0.246  -1.187  0.00  0.00    -0.377 OA
ATOM     13  H   LIG    1        3.512   1.174  -0.888  0.00  0.00    +0.211 HD
ENDBRANCH  11  12
ENDBRANCH   1  11
TORSDOF 3
