REMARK  Name = molecules/JRTIDHTUMYMPRU-UHFFFAOYSA-N.pdb
REMARK                            x       y       z     vdW  Elec       q    Type
REMARK                         _______ _______ _______ _____ _____    ______ ____
ROOT
ATOM      1  C   LIG    1        1.306   1.165   0.449  0.00  0.00    +0.060 A 
ATOM      2  N   LIG    1        1.466   2.033   1.470  0.00  0.00    -0.301 N 
ATOM      3  C   LIG    1        0.681   2.966   2.051  0.00  0.00    +0.113 A 
ATOM      4  C   LIG    1        1.083   3.747   3.112  0.00  0.00    +0.058 A 
ATOM      5 CL   LIG    1       -0.001   4.939   3.812  0.00  0.00    -0.082 Cl
ATOM      6  C   LIG    1        2.352   3.573   3.612  0.00  0.00    +0.025 A 
ATOM      7  C   LIG    1        3.167   2.631   3.038  0.00  0.00    +0.048 A 
ATOM      8  C   LIG    1        2.695   1.869   1.958  0.00  0.00    +0.139 A 
ATOM      9  N   LIG    1        3.287   0.910   1.247  0.00  0.00    -0.228 NA
ATOM     10  C   LIG    1        2.448   0.426   0.271  0.00  0.00    +0.093 A 
ENDROOT
BRANCH  10  11
ATOM     11  C   LIG    1        2.842  -0.587  -0.681  0.00  0.00    +0.002 A 
ATOM     12  C   LIG    1        2.104  -1.690  -0.968  0.00  0.00    +0.011 A 
ATOM     13  C   LIG    1        2.495  -2.647  -1.902  0.00  0.00    +0.020 A 
ATOM     14  C   LIG    1        3.662  -2.497  -2.573  0.00  0.00    +0.041 A 
ATOM     15  C   LIG    1        4.442  -1.394  -2.314  0.00  0.00    +0.020 A 
ATOM     16 CL   LIG    1        4.140  -3.708  -3.745  0.00  0.00    -0.084 Cl
ATOM     17  C   LIG    1        4.048  -0.455  -1.390  0.00  0.00    +0.011 A 
ENDBRANCH  10  11
BRANCH   1  18
ATOM     18  C   LIG    1        0.057   1.025  -0.331  0.00  0.00    +0.151 C 
BRANCH  18  19
ATOM     19  C   LIG    1       -0.801  -0.051   0.185  0.00  0.00    +0.221 C 
ATOM     20  O   LIG    1       -0.385  -0.591   1.279  0.00  0.00    -0.275 OA
ATOM     21  N   LIG    1       -1.997  -0.534  -0.397  0.00  0.00    -0.301 N 
BRANCH  21  22
ATOM     22  C   LIG    1       -2.651  -1.645   0.293  0.00  0.00    +0.107 C 
BRANCH  22  23
ATOM     23  C   LIG    1       -2.185  -2.989  -0.162  0.00  0.00    +0.016 C 
ATOM     24  C   LIG    1       -2.964  -4.017   0.652  0.00  0.00    +0.005 C 
ENDBRANCH  22  23
ENDBRANCH  21  22
BRANCH  21  25
ATOM     25  C   LIG    1       -2.526   0.040  -1.586  0.00  0.00    +0.107 C 
BRANCH  25  26
ATOM     26  C   LIG    1       -3.556   1.091  -1.448  0.00  0.00    +0.016 C 
ATOM     27  C   LIG    1       -3.191   2.322  -0.697  0.00  0.00    +0.005 C 
ENDBRANCH  25  26
ENDBRANCH  21  25
ENDBRANCH  18  19
ENDBRANCH   1  18
TORSDOF 7
