REMARK  Name = molecules/JSNQSLSBBZFGBM-RELAQEPUSA-N.pdb
REMARK                            x       y       z     vdW  Elec       q    Type
REMARK                         _______ _______ _______ _____ _____    ______ ____
ROOT
ATOM      1  C   LIG    1        1.345   1.688  -1.497  0.00  0.00    +0.047 C 
ATOM      2  C   LIG    1        0.714   0.718  -0.553  0.00  0.00    +0.119 C 
ATOM      3  C   LIG    1        1.368   0.751   0.835  0.00  0.00    +0.149 C 
ATOM      4  C   LIG    1        0.539  -0.180   1.688  0.00  0.00    +0.040 C 
ATOM      5  C   LIG    1       -0.499  -0.931   0.863  0.00  0.00    +0.025 C 
ATOM      6  C   LIG    1       -1.387   0.097   0.200  0.00  0.00    +0.068 C 
ATOM      7  C   LIG    1       -2.359   0.592   1.226  0.00  0.00    +0.041 C 
ATOM      8  C   LIG    1       -2.206  -0.518  -0.934  0.00  0.00    +0.041 C 
ATOM      9  C   LIG    1        0.157  -1.711  -0.265  0.00  0.00    +0.040 C 
ATOM     10  O   LIG    1       -0.601   1.061  -0.363  0.00  0.00    -0.362 OA
ATOM     11  C   LIG    1        0.917  -0.677  -1.082  0.00  0.00    +0.149 C 
ENDROOT
BRANCH   3  12
ATOM     12  O   LIG    1        2.666   0.322   0.814  0.00  0.00    -0.389 OA
ATOM     13  H   LIG    1        3.274   0.822   0.252  0.00  0.00    +0.210 HD
ENDBRANCH   3  12
BRANCH  11  14
ATOM     14  O   LIG    1        2.293  -0.959  -0.915  0.00  0.00    -0.389 OA
ATOM     15  H   LIG    1        2.451  -1.745  -0.368  0.00  0.00    +0.210 HD
ENDBRANCH  11  14
TORSDOF 2
