REMARK  Name = molecules/JSZILQVIPPROJI-OTWHNJEPSA-N.pdb
REMARK                            x       y       z     vdW  Elec       q    Type
REMARK                         _______ _______ _______ _____ _____    ______ ____
ROOT
ATOM      1  C   LIG    1       -1.074   0.692  -0.241  0.00  0.00    +0.191 C 
ATOM      2  C   LIG    1        0.187   0.607   0.597  0.00  0.00    +0.069 C 
ATOM      3  C   LIG    1        1.016  -0.514  -0.051  0.00  0.00    +0.091 C 
ATOM      4  C   LIG    1        2.459  -0.238   0.059  0.00  0.00    -0.023 A 
ATOM      5  C   LIG    1        3.238  -0.694   1.128  0.00  0.00    +0.054 A 
ATOM      6  C   LIG    1        4.590  -0.420   1.208  0.00  0.00    +0.162 A 
ATOM      7  C   LIG    1        5.202   0.320   0.218  0.00  0.00    +0.162 A 
ATOM      8  C   LIG    1        4.458   0.790  -0.862  0.00  0.00    +0.053 A 
ATOM      9  C   LIG    1        3.111   0.497  -0.907  0.00  0.00    -0.038 A 
ATOM     10  C   LIG    1        2.270   0.984  -2.055  0.00  0.00    +0.051 C 
ATOM     11  C   LIG    1        1.324  -0.125  -2.422  0.00  0.00    +0.089 C 
ATOM     12  N   LIG    1        0.642  -0.744  -1.374  0.00  0.00    -0.294 NA
ATOM     13  C   LIG    1       -0.656  -1.259  -1.628  0.00  0.00    +0.101 C 
ATOM     14  C   LIG    1       -1.550  -0.692  -0.511  0.00  0.00    +0.130 C 
ENDROOT
BRANCH  14  15
ATOM     15  C   LIG    1       -2.973  -0.862  -0.773  0.00  0.00    +0.223 C 
ATOM     16  N   LIG    1       -4.007  -1.067   0.162  0.00  0.00    -0.302 N 
ATOM     17  O   LIG    1       -3.323  -0.816  -2.009  0.00  0.00    -0.275 OA
BRANCH  16  18
ATOM     18  C   LIG    1       -3.748  -1.183   1.575  0.00  0.00    +0.104 C 
ATOM     19  C   LIG    1       -3.816   0.113   2.331  0.00  0.00    +0.024 C 
ENDBRANCH  16  18
BRANCH  16  20
ATOM     20  C   LIG    1       -5.409  -1.195  -0.246  0.00  0.00    +0.104 C 
ATOM     21  C   LIG    1       -5.774  -2.619  -0.523  0.00  0.00    +0.024 C 
ENDBRANCH  16  20
ENDBRANCH  14  15
BRANCH   6  22
ATOM     22  O   LIG    1        5.356  -0.875   2.272  0.00  0.00    -0.491 OA
ATOM     23  C   LIG    1        4.823  -1.637   3.329  0.00  0.00    +0.277 C 
ENDBRANCH   6  22
BRANCH   7  24
ATOM     24  O   LIG    1        6.560   0.586   0.314  0.00  0.00    -0.491 OA
ATOM     25  C   LIG    1        7.185   1.336  -0.689  0.00  0.00    +0.277 C 
ENDBRANCH   7  24
BRANCH   1  26
ATOM     26  O   LIG    1       -2.012   1.608   0.202  0.00  0.00    -0.461 OA
BRANCH  26  27
ATOM     27  C   LIG    1       -2.386   2.757  -0.475  0.00  0.00    +0.304 C 
ATOM     28  C   LIG    1       -3.411   3.652   0.126  0.00  0.00    +0.136 C 
ATOM     29  O   LIG    1       -1.861   3.016  -1.565  0.00  0.00    -0.251 OA
ENDBRANCH  26  27
ENDBRANCH   1  26
TORSDOF 7
