REMARK  Name = molecules/JTJMJGYZQZDUJJ-UHFFFAOYSA-N.pdb
REMARK                            x       y       z     vdW  Elec       q    Type
REMARK                         _______ _______ _______ _____ _____    ______ ____
ROOT
ATOM      1  C   LIG    1       -0.557  -0.114   0.109  0.00  0.00    +0.047 C 
ATOM      2  C   LIG    1       -0.582  -0.668   1.490  0.00  0.00    +0.027 C 
ATOM      3  C   LIG    1       -1.501  -1.815   1.786  0.00  0.00    +0.002 C 
ATOM      4  C   LIG    1       -2.601  -2.059   0.827  0.00  0.00    +0.000 C 
ATOM      5  C   LIG    1       -1.953  -2.157  -0.538  0.00  0.00    +0.002 C 
ATOM      6  C   LIG    1       -1.430  -0.817  -0.875  0.00  0.00    +0.027 C 
ENDROOT
BRANCH   1   8
ATOM      7  C   LIG    1       -0.895   1.935  -1.252  0.00  0.00    +0.005 A 
ATOM      8  C   LIG    1       -0.915   1.329   0.014  0.00  0.00    -0.027 A 
ATOM      9  C   LIG    1       -1.160   2.087   1.149  0.00  0.00    +0.005 A 
ATOM     10  C   LIG    1       -1.376   3.442   1.013  0.00  0.00    +0.000 A 
ATOM     11  C   LIG    1       -1.356   4.069  -0.214  0.00  0.00    +0.000 A 
ATOM     12  C   LIG    1       -1.113   3.284  -1.322  0.00  0.00    +0.000 A 
ENDBRANCH   1   8
BRANCH   1  13
ATOM     13  N   LIG    1        0.799  -0.264  -0.314  0.00  0.00    -0.293 NA
ATOM     14  C   LIG    1        1.366  -1.571  -0.286  0.00  0.00    +0.085 C 
ATOM     15  C   LIG    1        2.754  -1.576   0.390  0.00  0.00    +0.015 C 
ATOM     16  C   LIG    1        3.496  -0.299   0.110  0.00  0.00    +0.002 C 
ATOM     17  C   LIG    1        2.959   0.282  -1.151  0.00  0.00    +0.015 C 
ATOM     18  C   LIG    1        1.478   0.684  -1.051  0.00  0.00    +0.085 C 
ENDBRANCH   1  13
TORSDOF 2
