REMARK  Name = molecules/JTLXCMOFVBXEKD-DLEKYWELSA-N.pdb
REMARK                            x       y       z     vdW  Elec       q    Type
REMARK                         _______ _______ _______ _____ _____    ______ ____
ROOT
ATOM      1  C   LIG    1       -1.252   1.463  -0.940  0.00  0.00    +0.021 C 
ATOM      2  C   LIG    1       -0.142   0.993  -0.425  0.00  0.00    +0.015 C 
ATOM      3  C   LIG    1       -1.208   1.763  -2.429  0.00  0.00    +0.062 C 
ENDROOT
BRANCH   1   4
ATOM      4  N   LIG    1       -2.435   1.649  -0.216  0.00  0.00    -0.273 N 
ATOM      5  C   LIG    1       -3.463   2.424  -0.937  0.00  0.00    +0.332 C 
ATOM      6  O   LIG    1       -3.334   2.848  -2.073  0.00  0.00    -0.279 OA
BRANCH   4   7
ATOM      7  C   LIG    1       -2.873   1.253   1.067  0.00  0.00    +0.153 C 
BRANCH   7   9
ATOM      8  C   LIG    1       -3.356  -1.232   0.726  0.00  0.00    +0.124 A 
ATOM      9  C   LIG    1       -3.687   0.024   1.147  0.00  0.00    +0.028 A 
ATOM     10  C   LIG    1       -4.947   0.076   1.801  0.00  0.00    +0.121 A 
ATOM     11  N   LIG    1       -5.717  -0.998   1.977  0.00  0.00    -0.240 NA
ATOM     12  C   LIG    1       -5.362  -2.226   1.547  0.00  0.00    +0.128 A 
ATOM     13  C   LIG    1       -6.263  -3.398   1.737  0.00  0.00    +0.088 C 
ATOM     14  N   LIG    1       -4.185  -2.320   0.928  0.00  0.00    -0.218 NA
BRANCH   8  15
ATOM     15  N   LIG    1       -2.149  -1.463   0.067  0.00  0.00    -0.343 N 
ATOM     16  H   LIG    1       -1.352  -1.809   0.641  0.00  0.00    +0.144 HD
ATOM     17  H   LIG    1       -2.021  -1.323  -0.936  0.00  0.00    +0.144 HD
ENDBRANCH   8  15
ENDBRANCH   7   9
ENDBRANCH   4   7
ENDBRANCH   1   4
BRANCH   2  18
ATOM     18  C   LIG    1        0.106   0.524   0.924  0.00  0.00    +0.072 C 
BRANCH  18  19
ATOM     19  C   LIG    1        1.053   1.545   1.608  0.00  0.00    +0.161 C 
BRANCH  19  20
ATOM     20  O   LIG    1        0.334   2.778   1.575  0.00  0.00    -0.395 OA
ATOM     21  H   LIG    1        0.526   3.247   0.719  0.00  0.00    +0.209 HD
ENDBRANCH  19  20
ENDBRANCH  18  19
ENDBRANCH   2  18
BRANCH   2  22
ATOM     22  S   LIG    1        1.301   0.826  -1.569  0.00  0.00    -0.060 S 
BRANCH  22  23
ATOM     23  S   LIG    1        2.389  -0.856  -0.990  0.00  0.00    -0.086 S 
BRANCH  23  24
ATOM     24  C   LIG    1        3.673  -0.631   0.184  0.00  0.00    +0.113 C 
BRANCH  24  25
ATOM     25  C   LIG    1        4.820   0.218  -0.294  0.00  0.00    +0.129 C 
ATOM     26  O   LIG    1        5.792   0.276   0.725  0.00  0.00    -0.376 OA
ATOM     27  C   LIG    1        6.499  -0.946   0.614  0.00  0.00    +0.160 C 
ATOM     28  C   LIG    1        6.568  -1.301  -0.829  0.00  0.00    +0.031 C 
ATOM     29  C   LIG    1        5.555  -0.386  -1.470  0.00  0.00    +0.034 C 
ENDBRANCH  24  25
ENDBRANCH  23  24
ENDBRANCH  22  23
ENDBRANCH   2  22
TORSDOF 11
