REMARK  Name = molecules/JTNHOVZOOVVGHI-UHFFFAOYSA-N.pdb
REMARK                            x       y       z     vdW  Elec       q    Type
REMARK                         _______ _______ _______ _____ _____    ______ ____
ROOT
ATOM      1  C   LIG    1       -1.043  -0.714   1.941  0.00  0.00    +0.012 A 
ATOM      2  C   LIG    1       -0.284  -1.130   3.025  0.00  0.00    +0.001 A 
ATOM      3  C   LIG    1        1.092  -1.120   2.938  0.00  0.00    +0.001 A 
ATOM      4  C   LIG    1        1.684  -0.695   1.768  0.00  0.00    +0.012 A 
ATOM      5  C   LIG    1        0.916  -0.274   0.671  0.00  0.00    +0.028 A 
ATOM      6  C   LIG    1        1.506   0.150  -0.495  0.00  0.00    +0.140 A 
ATOM      7  C   LIG    1        0.637   0.548  -1.526  0.00  0.00    +0.053 A 
ATOM      8  C   LIG    1       -0.722   0.544  -1.456  0.00  0.00    -0.004 A 
ATOM      9  C   LIG    1       -1.300   0.120  -0.289  0.00  0.00    +0.143 A 
ATOM     10  C   LIG    1       -1.541   1.002  -2.646  0.00  0.00    +0.048 C 
ATOM     11  C   LIG    1       -0.447  -0.288   0.768  0.00  0.00    +0.028 A 
ENDROOT
BRANCH   6  12
ATOM     12  O   LIG    1        2.803   0.203  -0.696  0.00  0.00    -0.403 OA
BRANCH  12  13
ATOM     13  P   LIG    1        4.319   0.009  -0.244  0.00  0.00    +0.528 P 
ATOM     14  O   LIG    1        4.765   0.853   0.957  0.00  0.00    -0.216 OA
BRANCH  13  15
ATOM     15  O   LIG    1        4.709  -1.618   0.170  0.00  0.00    -0.293 OA
ATOM     16  H   LIG    1        4.982  -2.076  -0.664  0.00  0.00    +0.223 HD
ENDBRANCH  13  15
BRANCH  13  17
ATOM     17  O   LIG    1        5.411   0.406  -1.544  0.00  0.00    -0.293 OA
ATOM     18  H   LIG    1        5.436   1.401  -1.566  0.00  0.00    +0.223 HD
ENDBRANCH  13  17
ENDBRANCH  12  13
ENDBRANCH   6  12
BRANCH   9  19
ATOM     19  O   LIG    1       -2.623   0.070  -0.099  0.00  0.00    -0.403 OA
BRANCH  19  20
ATOM     20  P   LIG    1       -4.049   0.354  -0.811  0.00  0.00    +0.528 P 
ATOM     21  O   LIG    1       -4.248  -0.220  -2.206  0.00  0.00    -0.216 OA
BRANCH  20  22
ATOM     22  O   LIG    1       -5.319  -0.392   0.112  0.00  0.00    -0.293 OA
ATOM     23  H   LIG    1       -5.350  -1.357  -0.109  0.00  0.00    +0.223 HD
ENDBRANCH  20  22
BRANCH  20  24
ATOM     24  O   LIG    1       -4.511   1.999  -0.872  0.00  0.00    -0.293 OA
ATOM     25  H   LIG    1       -4.596   2.296   0.063  0.00  0.00    +0.223 HD
ENDBRANCH  20  24
ENDBRANCH  19  20
ENDBRANCH   9  19
TORSDOF 8
