REMARK  Name = molecules/JTVPZMFULRWINT-UHFFFAOYSA-N.pdb
REMARK                            x       y       z     vdW  Elec       q    Type
REMARK                         _______ _______ _______ _____ _____    ______ ____
ROOT
ATOM      1  C   LIG    1        1.952  -0.320  -0.623  0.00  0.00    +0.080 A 
ATOM      2  C   LIG    1        2.096   0.953  -0.155  0.00  0.00    +0.132 A 
ATOM      3  C   LIG    1        3.322   1.419   0.326  0.00  0.00    +0.048 A 
ATOM      4  C   LIG    1        4.420   0.576   0.329  0.00  0.00    +0.030 A 
ATOM      5  C   LIG    1        4.320  -0.718  -0.135  0.00  0.00    +0.089 A 
ATOM      6  C   LIG    1        3.104  -1.122  -0.592  0.00  0.00    +0.043 A 
ENDROOT
BRANCH   1   7
ATOM      7  C   LIG    1        0.703  -0.887  -1.103  0.00  0.00    +0.248 C 
ATOM      8  N   LIG    1       -0.555  -0.239  -1.157  0.00  0.00    -0.310 N 
ATOM      9  H   LIG    1       -0.634   0.740  -0.887  0.00  0.00    +0.149 HD
ATOM     10  O   LIG    1        0.769  -2.099  -1.513  0.00  0.00    -0.270 OA
BRANCH   8  11
ATOM     11  C   LIG    1       -1.669  -0.999  -1.655  0.00  0.00    +0.120 C 
BRANCH  11  12
ATOM     12  C   LIG    1       -2.992  -0.311  -1.595  0.00  0.00    +0.103 C 
BRANCH  12  13
ATOM     13  N   LIG    1       -3.534  -0.016  -0.329  0.00  0.00    -0.301 NA
BRANCH  13  14
ATOM     14  C   LIG    1       -2.660   0.651   0.562  0.00  0.00    +0.081 C 
ATOM     15  C   LIG    1       -3.396   0.932   1.900  0.00  0.00    +0.020 C 
ENDBRANCH  13  14
BRANCH  13  16
ATOM     16  C   LIG    1       -4.829   0.560  -0.366  0.00  0.00    +0.081 C 
ATOM     17  C   LIG    1       -5.894  -0.405  -0.801  0.00  0.00    +0.020 C 
ENDBRANCH  13  16
ENDBRANCH  12  13
ENDBRANCH  11  12
ENDBRANCH   8  11
ENDBRANCH   1   7
BRANCH   5  18
ATOM     18  S   LIG    1        5.720  -1.795  -0.127  0.00  0.00    -0.006 S 
ATOM     19  C   LIG    1        5.794  -2.728   1.385  0.00  0.00    +0.200 C 
ATOM     20  O   LIG    1        6.944  -0.989  -0.319  0.00  0.00    -0.170 OA
ATOM     21  O   LIG    1        5.483  -2.788  -1.249  0.00  0.00    -0.170 OA
ENDBRANCH   5  18
BRANCH   2  22
ATOM     22  O   LIG    1        1.028   1.825  -0.142  0.00  0.00    -0.494 OA
ATOM     23  C   LIG    1        1.125   3.148   0.330  0.00  0.00    +0.277 C 
ENDBRANCH   2  22
TORSDOF 8
