REMARK  Name = molecules/JTWOMNBEOCYFNV-NFFDBFGFSA-N.pdb
REMARK                            x       y       z     vdW  Elec       q    Type
REMARK                         _______ _______ _______ _____ _____    ______ ____
ROOT
ATOM      1  N   LIG    1       -0.814  -0.063  -0.304  0.00  0.00    -0.300 N 
ATOM      2  H   LIG    1       -0.951   0.011   0.735  0.00  0.00    +0.150 HD
ATOM      3  C   LIG    1        0.465  -0.348  -0.802  0.00  0.00    +0.239 C 
ATOM      4  O   LIG    1        0.635  -0.422  -2.054  0.00  0.00    -0.273 OA
ENDROOT
BRANCH   1  11
ATOM      5  CA  LIG    1       -4.729   1.559   0.235  0.00  0.00    +0.201 C 
ATOM      6  C   LIG    1       -4.579   0.811   1.537  0.00  0.00    +0.042 C 
ATOM      7  C   LIG    1       -3.896   1.652   2.575  0.00  0.00    +0.025 C 
ATOM      8  C   LIG    1       -5.840   0.169   2.025  0.00  0.00    +0.025 C 
ATOM      9  S   LIG    1       -3.431  -0.560   1.083  0.00  0.00    -0.127 S 
ATOM     10  C   LIG    1       -3.273  -0.070  -0.692  0.00  0.00    +0.165 C 
ATOM     11  CA  LIG    1       -1.910   0.127  -1.192  0.00  0.00    +0.190 C 
ATOM     12  C   LIG    1       -2.300   1.596  -1.185  0.00  0.00    +0.240 C 
ATOM     13  O   LIG    1       -1.656   2.549  -1.673  0.00  0.00    -0.273 OA
ATOM     14  N   LIG    1       -3.494   1.360  -0.500  0.00  0.00    -0.271 N 
BRANCH   5  15
ATOM     15  C   LIG    1       -5.893   1.185  -0.564  0.00  0.00    +0.327 C 
ATOM     16  O   LIG    1       -5.775   0.865  -1.769  0.00  0.00    -0.249 OA
BRANCH  15  17
ATOM     17  OXT LIG    1       -7.161   1.178   0.005  0.00  0.00    -0.479 OA
ATOM     18  HXT LIG    1       -7.985   0.980  -0.551  0.00  0.00    +0.295 HD
ENDBRANCH  15  17
ENDBRANCH   5  15
ENDBRANCH   1  11
BRANCH   3  19
ATOM     19  CA  LIG    1        1.647  -0.569   0.099  0.00  0.00    +0.191 C 
BRANCH  19  20
ATOM     20  N   LIG    1        2.843  -0.277  -0.659  0.00  0.00    -0.284 N 
ATOM     21  C   LIG    1        3.736   0.699  -0.147  0.00  0.00    +0.311 C 
ATOM     22  O   LIG    1        3.458   1.277   0.955  0.00  0.00    -0.252 OA
ATOM     23  N   LIG    1        4.925   1.054  -0.817  0.00  0.00    -0.208 N 
ATOM     24  C   LIG    1        5.910   2.043  -0.377  0.00  0.00    +0.138 C 
ATOM     25  C   LIG    1        6.440   2.577  -1.698  0.00  0.00    +0.125 C 
ATOM     26  N   LIG    1        6.162   1.565  -2.684  0.00  0.00    -0.297 N 
ATOM     27  H   LIG    1        6.470   1.603  -3.681  0.00  0.00    +0.150 HD
ATOM     28  C   LIG    1        5.407   0.528  -2.053  0.00  0.00    +0.310 C 
ATOM     29  O   LIG    1        5.199  -0.633  -2.493  0.00  0.00    -0.252 OA
ATOM     30  H   LIG    1        3.073  -0.753  -1.564  0.00  0.00    +0.151 HD
ENDBRANCH  19  20
BRANCH  19  31
ATOM     31  C   LIG    1        1.746  -2.027   0.439  0.00  0.00    -0.018 A 
ATOM     32  C   LIG    1        1.514  -2.475   1.718  0.00  0.00    +0.006 A 
ATOM     33  C   LIG    1        1.582  -3.812   2.075  0.00  0.00    +0.000 A 
ATOM     34  C   LIG    1        1.904  -4.713   1.058  0.00  0.00    +0.000 A 
ATOM     35  C   LIG    1        2.136  -4.269  -0.222  0.00  0.00    +0.000 A 
ATOM     36  C   LIG    1        2.059  -2.938  -0.533  0.00  0.00    +0.006 A 
ENDBRANCH  19  31
ENDBRANCH   3  19
TORSDOF 6
