REMARK  Name = molecules/JTZZSQYMACOLNN-VDWJNHBNSA-N.pdb
REMARK                            x       y       z     vdW  Elec       q    Type
REMARK                         _______ _______ _______ _____ _____    ______ ____
ROOT
ATOM      1  C   LIG    1       -6.057  -0.597  -2.034  0.00  0.00    -0.025 C 
ATOM      2  C   LIG    1       -6.590  -1.725  -1.619  0.00  0.00    -0.031 C 
ATOM      3  C   LIG    1       -5.929  -2.997  -1.732  0.00  0.00    +0.027 C 
ATOM      4  C   LIG    1       -5.549  -3.782  -0.535  0.00  0.00    +0.006 C 
ATOM      5  C   LIG    1       -5.463  -3.126   0.793  0.00  0.00    +0.019 C 
ATOM      6  C   LIG    1       -4.029  -3.116   1.292  0.00  0.00    +0.107 C 
ATOM      7  N   LIG    1       -3.556  -1.835   1.758  0.00  0.00    -0.304 N 
ATOM      8  C   LIG    1       -4.476  -1.250   2.784  0.00  0.00    +0.132 C 
ATOM      9  C   LIG    1       -2.459  -1.074   1.475  0.00  0.00    +0.219 C 
ATOM     10  O   LIG    1       -2.225  -0.081   2.292  0.00  0.00    -0.275 OA
ATOM     11  C   LIG    1       -1.409  -1.105   0.402  0.00  0.00    +0.091 C 
ATOM     12  C   LIG    1       -0.134  -1.406   1.172  0.00  0.00    +0.058 C 
ATOM     13  C   LIG    1        0.940  -0.602   0.547  0.00  0.00    +0.175 C 
ATOM     14  C   LIG    1        0.168   0.697   0.272  0.00  0.00    +0.058 C 
ATOM     15  C   LIG    1       -1.184   0.177  -0.231  0.00  0.00    +0.090 C 
ATOM     16  C   LIG    1       -1.292   0.474  -1.635  0.00  0.00    +0.218 C 
ATOM     17  O   LIG    1       -0.212   0.753  -2.223  0.00  0.00    -0.275 OA
ATOM     18  N   LIG    1       -2.430   0.505  -2.485  0.00  0.00    -0.301 N 
ATOM     19  C   LIG    1       -3.705   0.086  -1.907  0.00  0.00    +0.119 C 
ATOM     20  C   LIG    1       -3.665  -1.415  -1.931  0.00  0.00    +0.046 C 
ATOM     21  H   LIG    1       -2.391   0.799  -3.444  0.00  0.00    +0.150 HD
ATOM     22  C   LIG    1       -4.679  -0.691  -2.651  0.00  0.00    +0.046 C 
ENDROOT
BRANCH  19  23
ATOM     23  C   LIG    1       -4.239   1.036  -0.999  0.00  0.00    +0.256 C 
ATOM     24  N   LIG    1       -5.182   0.892   0.029  0.00  0.00    -0.188 N 
ATOM     25  H   LIG    1       -5.630   0.010   0.306  0.00  0.00    +0.176 HD
ATOM     26  O   LIG    1       -3.794   2.260  -1.116  0.00  0.00    -0.272 OA
BRANCH  24  27
ATOM     27  S   LIG    1       -5.711   2.227   1.018  0.00  0.00    +0.048 S 
ATOM     28  O   LIG    1       -4.821   2.493   2.167  0.00  0.00    -0.155 OA
ATOM     29  O   LIG    1       -5.669   3.429   0.118  0.00  0.00    -0.155 OA
BRANCH  27  30
ATOM     30  C   LIG    1       -7.396   1.999   1.531  0.00  0.00    +0.151 C 
ATOM     31  C   LIG    1       -8.238   3.283   1.600  0.00  0.00    +0.030 C 
ATOM     32  C   LIG    1       -8.487   2.349   0.475  0.00  0.00    +0.030 C 
ENDBRANCH  27  30
ENDBRANCH  24  27
ENDBRANCH  19  23
BRANCH  13  33
ATOM     33  O   LIG    1        2.046  -0.395   1.389  0.00  0.00    -0.488 OA
BRANCH  33  34
ATOM     34  C   LIG    1        3.320  -0.086   0.981  0.00  0.00    +0.132 A 
ATOM     35  C   LIG    1        4.389  -0.033   1.845  0.00  0.00    +0.043 A 
ATOM     36  C   LIG    1        4.216  -0.321   3.198  0.00  0.00    +0.017 A 
ATOM     37  C   LIG    1        5.251  -0.305   4.118  0.00  0.00    +0.047 A 
ATOM     38  C   LIG    1        6.528   0.005   3.723  0.00  0.00    +0.125 A 
ATOM     39  C   LIG    1        6.715   0.295   2.366  0.00  0.00    +0.017 A 
ATOM     40  C   LIG    1        8.088   0.636   1.918  0.00  0.00    +0.050 C 
ATOM     41  C   LIG    1        5.676   0.272   1.475  0.00  0.00    +0.082 A 
ATOM     42  N   LIG    1        5.870   0.533   0.149  0.00  0.00    -0.244 NA
ATOM     43  C   LIG    1        4.894   0.500  -0.743  0.00  0.00    +0.100 A 
ATOM     44  C   LIG    1        3.616   0.195  -0.359  0.00  0.00    +0.076 A 
BRANCH  43  45
ATOM     45  C   LIG    1        5.160   0.815  -2.144  0.00  0.00    +0.127 A 
ATOM     46  N   LIG    1        6.322   1.153  -2.685  0.00  0.00    -0.242 NA
ATOM     47  C   LIG    1        6.401   1.406  -3.945  0.00  0.00    +0.052 A 
ATOM     48  C   LIG    1        5.255   1.314  -4.698  0.00  0.00    +0.070 A 
ATOM     49  S   LIG    1        4.111   0.854  -3.491  0.00  0.00    -0.074 S 
BRANCH  47  50
ATOM     50  C   LIG    1        7.705   1.813  -4.606  0.00  0.00    +0.032 C 
ATOM     51  C   LIG    1        8.863   1.021  -4.095  0.00  0.00    +0.014 C 
ATOM     52  C   LIG    1        7.916   3.277  -4.182  0.00  0.00    +0.014 C 
ENDBRANCH  47  50
ENDBRANCH  43  45
BRANCH  38  53
ATOM     53  O   LIG    1        7.623   0.046   4.576  0.00  0.00    -0.495 OA
ATOM     54  C   LIG    1        7.467  -0.243   5.938  0.00  0.00    +0.277 C 
ENDBRANCH  38  53
ENDBRANCH  33  34
ENDBRANCH  13  33
TORSDOF 8
