REMARK  Name = molecules/JURKNVYFZMSNLP-UHFFFAOYSA-N.pdb
REMARK                            x       y       z     vdW  Elec       q    Type
REMARK                         _______ _______ _______ _____ _____    ______ ____
ROOT
ATOM      1  C   LIG    1        0.425   0.843   0.278  0.00  0.00    -0.017 C 
ATOM      2  C   LIG    1       -0.746   0.385   0.034  0.00  0.00    -0.013 C 
ATOM      3  C   LIG    1       -1.065  -1.046   0.108  0.00  0.00    -0.010 A 
ATOM      4  C   LIG    1       -2.195  -1.646   0.626  0.00  0.00    -0.017 A 
ATOM      5  C   LIG    1       -3.414  -0.977   1.120  0.00  0.00    +0.009 C 
ATOM      6  C   LIG    1       -3.811   0.278   0.866  0.00  0.00    +0.009 C 
ATOM      7  C   LIG    1       -3.153   1.286   0.051  0.00  0.00    -0.017 A 
ATOM      8  C   LIG    1       -3.998   2.285  -0.360  0.00  0.00    +0.008 A 
ATOM      9  C   LIG    1       -3.544   3.325  -1.131  0.00  0.00    +0.001 A 
ATOM     10  C   LIG    1       -2.220   3.395  -1.515  0.00  0.00    +0.001 A 
ATOM     11  C   LIG    1       -1.364   2.379  -1.096  0.00  0.00    +0.009 A 
ATOM     12  C   LIG    1       -2.349  -2.993   0.677  0.00  0.00    +0.008 A 
ATOM     13  C   LIG    1       -1.308  -3.772   0.178  0.00  0.00    +0.001 A 
ATOM     14  C   LIG    1       -0.187  -3.160  -0.339  0.00  0.00    +0.001 A 
ATOM     15  C   LIG    1       -0.044  -1.809  -0.386  0.00  0.00    +0.009 A 
ATOM     16  C   LIG    1       -1.810   1.359  -0.338  0.00  0.00    -0.010 A 
ENDROOT
BRANCH   1  17
ATOM     17  C   LIG    1        1.720   0.276   0.675  0.00  0.00    +0.043 C 
BRANCH  17  18
ATOM     18  C   LIG    1        2.790   0.563  -0.311  0.00  0.00    +0.088 C 
BRANCH  18  19
ATOM     19  N   LIG    1        4.075   0.017   0.044  0.00  0.00    -0.308 NA
ATOM     20  C   LIG    1        4.670   0.650   1.188  0.00  0.00    +0.104 C 
ATOM     21  C   LIG    1        4.115  -1.420   0.098  0.00  0.00    +0.104 C 
ENDBRANCH  18  19
ENDBRANCH  17  18
ENDBRANCH   1  17
TORSDOF 3
