REMARK  Name = molecules/JUUFBMODXQKSTD-UHFFFAOYSA-N.pdb
REMARK                            x       y       z     vdW  Elec       q    Type
REMARK                         _______ _______ _______ _____ _____    ______ ____
ROOT
ATOM      1  C   LIG    1        1.839  -0.287  -0.033  0.00  0.00    +0.076 A 
ATOM      2  C   LIG    1        0.939  -1.150   0.607  0.00  0.00    +0.140 A 
ATOM      3  N   LIG    1       -0.359  -0.882   0.550  0.00  0.00    -0.216 NA
ATOM      4  C   LIG    1       -0.894   0.173  -0.087  0.00  0.00    +0.121 A 
ATOM      5  C   LIG    1       -0.058   1.029  -0.717  0.00  0.00    +0.045 A 
ATOM      6  C   LIG    1        1.315   0.790  -0.685  0.00  0.00    +0.030 A 
ENDROOT
BRANCH   1   7
ATOM      7  N   LIG    1        3.216  -0.546   0.011  0.00  0.00    -0.248 N 
ATOM      8  H   LIG    1        3.572  -1.414   0.542  0.00  0.00    +0.158 HD
ATOM      9  C   LIG    1        4.225   0.233  -0.585  0.00  0.00    +0.405 C 
ATOM     10  O   LIG    1        4.073   1.279  -1.250  0.00  0.00    -0.226 OA
BRANCH   9  11
ATOM     11  O   LIG    1        5.587  -0.163  -0.450  0.00  0.00    -0.450 OA
BRANCH  11  12
ATOM     12  C   LIG    1        6.606   0.613  -1.046  0.00  0.00    +0.230 C 
ATOM     13  C   LIG    1        7.958   0.023  -0.784  0.00  0.00    +0.048 C 
ENDBRANCH  11  12
ENDBRANCH   9  11
ENDBRANCH   1   7
BRANCH   2  14
ATOM     14  N   LIG    1        1.472  -2.268   1.285  0.00  0.00    -0.342 N 
ATOM     15  H   LIG    1        1.867  -2.161   2.261  0.00  0.00    +0.144 HD
ATOM     16  H   LIG    1        1.515  -3.235   0.899  0.00  0.00    +0.144 HD
ENDBRANCH   2  14
BRANCH   4  17
ATOM     17  N   LIG    1       -2.304   0.346  -0.072  0.00  0.00    -0.325 N 
ATOM     18  H   LIG    1       -2.695   1.169  -0.572  0.00  0.00    +0.148 HD
BRANCH  17  19
ATOM     19  C   LIG    1       -3.186  -0.579   0.607  0.00  0.00    +0.138 C 
BRANCH  19  20
ATOM     20  C   LIG    1       -4.601  -0.151   0.456  0.00  0.00    -0.030 A 
ATOM     21  C   LIG    1       -5.191   0.697   1.374  0.00  0.00    +0.008 A 
ATOM     22  C   LIG    1       -6.495   1.116   1.271  0.00  0.00    +0.038 A 
ATOM     23  C   LIG    1       -7.284   0.699   0.226  0.00  0.00    +0.123 A 
ATOM     24  F   LIG    1       -8.587   1.105   0.105  0.00  0.00    -0.205 F 
ATOM     25  C   LIG    1       -6.717  -0.149  -0.705  0.00  0.00    +0.038 A 
ATOM     26  C   LIG    1       -5.411  -0.559  -0.587  0.00  0.00    +0.008 A 
ENDBRANCH  19  20
ENDBRANCH  17  19
ENDBRANCH   4  17
TORSDOF 7
