REMARK  Name = molecules/JVGUNCHERKJFCM-GFCCVEGCSA-N.pdb
REMARK                            x       y       z     vdW  Elec       q    Type
REMARK                         _______ _______ _______ _____ _____    ______ ____
ROOT
ATOM      1  C   LIG    1       -1.701  -0.622  -1.669  0.00  0.00    +0.102 C 
ATOM      2  C   LIG    1       -1.491  -1.977  -2.288  0.00  0.00    +0.022 C 
ENDROOT
BRANCH   1   3
ATOM      3  C   LIG    1       -0.483  -0.150  -0.929  0.00  0.00    -0.036 A 
ATOM      4  C   LIG    1       -0.030  -0.864   0.161  0.00  0.00    +0.004 A 
ATOM      5  C   LIG    1        1.089  -0.422   0.834  0.00  0.00    +0.004 A 
ATOM      6  C   LIG    1        1.782   0.711   0.464  0.00  0.00    -0.047 A 
ATOM      7  C   LIG    1        1.307   1.406  -0.629  0.00  0.00    +0.004 A 
ATOM      8  C   LIG    1        0.179   0.984  -1.329  0.00  0.00    +0.004 A 
BRANCH   6   9
ATOM      9  C   LIG    1        2.981   1.217   1.154  0.00  0.00    +0.038 C 
BRANCH   9  10
ATOM     10  C   LIG    1        4.261   0.657   0.596  0.00  0.00    -0.013 C 
ATOM     11  C   LIG    1        4.340  -0.836   0.691  0.00  0.00    +0.007 C 
ATOM     12  C   LIG    1        4.541   1.125  -0.803  0.00  0.00    +0.007 C 
ENDBRANCH   9  10
ENDBRANCH   6   9
ENDBRANCH   1   3
BRANCH   1  13
ATOM     13  C   LIG    1       -2.897  -0.622  -0.796  0.00  0.00    +0.220 C 
ATOM     14  N   LIG    1       -3.401   0.544  -0.169  0.00  0.00    -0.313 N 
ATOM     15  H   LIG    1       -2.877   1.443  -0.351  0.00  0.00    +0.149 HD
ATOM     16  O   LIG    1       -3.496  -1.706  -0.601  0.00  0.00    -0.275 OA
BRANCH  14  17
ATOM     17  C   LIG    1       -4.561   0.514   0.671  0.00  0.00    +0.132 C 
BRANCH  17  18
ATOM     18  C   LIG    1       -4.430  -0.382   1.867  0.00  0.00    +0.174 C 
BRANCH  18  19
ATOM     19  O   LIG    1       -5.609  -0.326   2.598  0.00  0.00    -0.393 OA
ATOM     20  H   LIG    1       -5.910   0.609   2.762  0.00  0.00    +0.209 HD
ENDBRANCH  18  19
ENDBRANCH  17  18
ENDBRANCH  14  17
ENDBRANCH   1  13
TORSDOF 7
