REMARK  Name = molecules/JVHXJTBJCFBINQ-ADAARDCZSA-N.pdb
REMARK                            x       y       z     vdW  Elec       q    Type
REMARK                         _______ _______ _______ _____ _____    ______ ____
ROOT
ATOM      1  C   LIG    1       -1.687  -1.593  -0.406  0.00  0.00    -0.016 A 
ATOM      2  C   LIG    1       -0.785  -1.055   0.469  0.00  0.00    +0.011 A 
ATOM      3  C   LIG    1        0.412  -1.671   0.823  0.00  0.00    -0.024 A 
ATOM      4  C   LIG    1        0.727  -2.889   0.277  0.00  0.00    +0.044 A 
ATOM      5 CL   LIG    1        2.202  -3.742   0.673  0.00  0.00    -0.083 Cl
ATOM      6  C   LIG    1       -0.189  -3.450  -0.619  0.00  0.00    +0.020 A 
ATOM      7  C   LIG    1       -1.368  -2.819  -0.955  0.00  0.00    +0.008 A 
ENDROOT
BRANCH   1  13
ATOM      8  C   LIG    1       -4.028  -1.130   0.257  0.00  0.00    +0.179 C 
ATOM      9  C   LIG    1       -5.208  -0.246  -0.013  0.00  0.00    +0.177 C 
ATOM     10  C   LIG    1       -4.819   1.156  -0.397  0.00  0.00    +0.176 C 
ATOM     11  C   LIG    1       -3.700   1.203  -1.408  0.00  0.00    +0.175 C 
ATOM     12  O   LIG    1       -2.651   0.418  -0.991  0.00  0.00    -0.361 OA
ATOM     13  C   LIG    1       -2.967  -0.907  -0.768  0.00  0.00    +0.180 C 
BRANCH   8  14
ATOM     14  O   LIG    1       -4.476  -2.462   0.089  0.00  0.00    -0.386 OA
ATOM     15  H   LIG    1       -3.849  -3.113   0.467  0.00  0.00    +0.210 HD
ENDBRANCH   8  14
BRANCH   9  16
ATOM     16  O   LIG    1       -5.992  -0.165   1.136  0.00  0.00    -0.386 OA
ATOM     17  H   LIG    1       -5.353  -0.162   1.900  0.00  0.00    +0.210 HD
ENDBRANCH   9  16
BRANCH  10  18
ATOM     18  O   LIG    1       -5.930   1.765  -0.992  0.00  0.00    -0.386 OA
ATOM     19  H   LIG    1       -5.690   2.268  -1.805  0.00  0.00    +0.210 HD
ENDBRANCH  10  18
BRANCH  11  20
ATOM     20  C   LIG    1       -3.194   2.641  -1.441  0.00  0.00    +0.190 C 
BRANCH  20  21
ATOM     21  O   LIG    1       -2.791   2.935  -0.119  0.00  0.00    -0.392 OA
ATOM     22  H   LIG    1       -2.390   2.113   0.277  0.00  0.00    +0.210 HD
ENDBRANCH  20  21
ENDBRANCH  11  20
ENDBRANCH   1  13
BRANCH   3  23
ATOM     23  C   LIG    1        1.292  -0.948   1.771  0.00  0.00    +0.071 C 
BRANCH  23  24
ATOM     24  C   LIG    1        2.422  -0.253   1.140  0.00  0.00    -0.043 A 
ATOM     25  C   LIG    1        3.714  -0.701   1.188  0.00  0.00    +0.007 A 
ATOM     26  C   LIG    1        4.753  -0.044   0.569  0.00  0.00    +0.046 A 
ATOM     27  C   LIG    1        4.501   1.104  -0.124  0.00  0.00    +0.121 A 
ATOM     28  C   LIG    1        3.179   1.562  -0.172  0.00  0.00    +0.046 A 
ATOM     29  C   LIG    1        2.152   0.903   0.445  0.00  0.00    +0.007 A 
BRANCH  27  30
ATOM     30  O   LIG    1        5.492   1.813  -0.766  0.00  0.00    -0.492 OA
BRANCH  30  31
ATOM     31  C   LIG    1        6.825   1.401  -0.724  0.00  0.00    +0.225 C 
ATOM     32  C   LIG    1        7.312   1.434   0.708  0.00  0.00    +0.048 C 
ENDBRANCH  30  31
ENDBRANCH  27  30
ENDBRANCH  23  24
ENDBRANCH   3  23
TORSDOF 10
