REMARK  Name = molecules/JVISQUVIQOJOOQ-PWIZWCRZSA-N.pdb
REMARK                            x       y       z     vdW  Elec       q    Type
REMARK                         _______ _______ _______ _____ _____    ______ ____
ROOT
ATOM      1  C   LIG    1        1.788  -1.484   1.129  0.00  0.00    +0.315 C 
ENDROOT
BRANCH   1   2
ATOM      2  C   LIG    1        2.622  -2.505   0.446  0.00  0.00    +0.004 A 
ATOM      3  C   LIG    1        3.087  -3.627   1.104  0.00  0.00    +0.008 A 
ATOM      4  C   LIG    1        3.862  -4.554   0.430  0.00  0.00    +0.000 A 
ATOM      5  C   LIG    1        4.158  -4.340  -0.900  0.00  0.00    +0.000 A 
ATOM      6  C   LIG    1        3.700  -3.223  -1.573  0.00  0.00    +0.000 A 
ATOM      7  C   LIG    1        2.929  -2.309  -0.886  0.00  0.00    +0.008 A 
ENDBRANCH   1   2
BRANCH   1   8
ATOM      8  C   LIG    1        0.338  -1.663   0.826  0.00  0.00    +0.353 C 
ATOM      9  O   LIG    1       -0.277  -2.720   1.027  0.00  0.00    -0.246 OA
BRANCH   8  10
ATOM     10  O   LIG    1       -0.338  -0.591   0.296  0.00  0.00    -0.459 OA
BRANCH  10  11
ATOM     11  C   LIG    1       -1.722  -0.618  -0.042  0.00  0.00    +0.177 C 
ATOM     12  C   LIG    1       -2.405   0.403   0.806  0.00  0.00    +0.051 C 
ATOM     13  C   LIG    1       -3.692   0.915   0.290  0.00  0.00    -0.031 C 
ATOM     14  C   LIG    1       -4.074   2.144   1.124  0.00  0.00    +0.011 C 
ATOM     15  C   LIG    1       -4.831  -0.046   0.365  0.00  0.00    +0.011 C 
ATOM     16  C   LIG    1       -3.502   1.322  -1.174  0.00  0.00    +0.010 C 
ATOM     17  C   LIG    1       -3.233  -0.009  -1.889  0.00  0.00    -0.010 C 
ATOM     18  C   LIG    1       -3.446   0.105  -3.363  0.00  0.00    +0.007 C 
ATOM     19  C   LIG    1       -1.835  -0.398  -1.507  0.00  0.00    +0.048 C 
ENDBRANCH  10  11
ENDBRANCH   8  10
ENDBRANCH   1   8
BRANCH   1  20
ATOM     20  O   LIG    1        2.238  -0.202   0.810  0.00  0.00    -0.441 OA
BRANCH  20  21
ATOM     21  C   LIG    1        2.781   0.706   1.683  0.00  0.00    +0.342 C 
ATOM     22  O   LIG    1        2.887   0.354   2.891  0.00  0.00    -0.245 OA
BRANCH  21  24
ATOM     23  C   LIG    1        3.099   2.395  -0.077  0.00  0.00    +0.125 A 
ATOM     24  C   LIG    1        3.220   2.024   1.238  0.00  0.00    +0.077 A 
ATOM     25  C   LIG    1        3.768   2.947   2.104  0.00  0.00    +0.018 A 
ATOM     26  C   LIG    1        4.180   4.189   1.678  0.00  0.00    +0.020 A 
ATOM     27  C   LIG    1        4.027   4.485   0.349  0.00  0.00    +0.111 A 
ATOM     28  N   LIG    1        3.496   3.607  -0.518  0.00  0.00    -0.262 NA
ENDBRANCH  21  24
ENDBRANCH  20  21
ENDBRANCH   1  20
TORSDOF 7
