REMARK  Name = molecules/JVTAAEKCZFNVCJ-UWTATZPHSA-N.pdb
REMARK                            x       y       z     vdW  Elec       q    Type
REMARK                         _______ _______ _______ _____ _____    ______ ____
ROOT
ATOM      1  C   LIG    1       -1.340  -0.179   0.428  0.00  0.00    +0.049 C 
ATOM      2  C   LIG    1       -0.093   0.038  -0.400  0.00  0.00    +0.219 C 
ENDROOT
BRANCH   2   3
ATOM      3  C   LIG    1        1.107  -0.484   0.282  0.00  0.00    +0.333 C 
ATOM      4  O   LIG    1        1.118  -1.694   0.579  0.00  0.00    -0.248 OA
BRANCH   3   5
ATOM      5  O   LIG    1        2.151   0.338   0.569  0.00  0.00    -0.479 OA
ATOM      6  H   LIG    1        3.109   0.224   0.277  0.00  0.00    +0.295 HD
ENDBRANCH   3   5
ENDBRANCH   2   3
BRANCH   2   7
ATOM      7  O   LIG    1       -0.007   1.397  -0.688  0.00  0.00    -0.381 OA
ATOM      8  H   LIG    1       -0.877   1.645  -1.093  0.00  0.00    +0.210 HD
ENDBRANCH   2   7
TORSDOF 3
