REMARK  Name = molecules/JWAHBTQSSMYISL-MHTWAQMVSA-N.pdb
REMARK                            x       y       z     vdW  Elec       q    Type
REMARK                         _______ _______ _______ _____ _____    ______ ____
ROOT
ATOM      1  C   LIG    1       -1.378  -0.354   1.557  0.00  0.00    +0.012 C 
ATOM      2  C   LIG    1       -1.529  -0.281   0.080  0.00  0.00    -0.016 C 
ATOM      3  C   LIG    1       -2.896   0.017  -0.352  0.00  0.00    +0.032 C 
ATOM      4  C   LIG    1       -3.013   1.500   0.026  0.00  0.00    +0.015 C 
ATOM      5  C   LIG    1       -1.635   2.077  -0.236  0.00  0.00    +0.005 C 
ATOM      6  C   LIG    1       -3.074  -0.075  -1.869  0.00  0.00    +0.019 C 
ATOM      7  C   LIG    1       -0.734   0.907  -0.504  0.00  0.00    +0.003 C 
ATOM      8  C   LIG    1        0.554   0.939   0.228  0.00  0.00    +0.019 C 
ATOM      9  C   LIG    1        1.233  -0.376   0.028  0.00  0.00    -0.063 C 
ATOM     10  C   LIG    1        2.575  -0.433   0.099  0.00  0.00    -0.044 C 
ATOM     11  C   LIG    1        3.375   0.739   0.363  0.00  0.00    -0.041 C 
ATOM     12  C   LIG    1        2.680   2.015   0.671  0.00  0.00    +0.036 C 
ATOM     13  C   LIG    1        4.697   0.755   0.354  0.00  0.00    +0.050 C 
ATOM     14  C   LIG    1        5.353  -0.524   0.050  0.00  0.00    +0.157 C 
ATOM     15  C   LIG    1        4.632  -1.749   0.480  0.00  0.00    +0.083 C 
ATOM     16  O   LIG    1        6.466  -0.544  -0.543  0.00  0.00    -0.293 OA
ATOM     17  C   LIG    1        3.261  -1.733  -0.103  0.00  0.00    +0.043 C 
ATOM     18  C   LIG    1        0.527  -1.629  -0.239  0.00  0.00    +0.032 C 
ATOM     19  C   LIG    1        1.459   2.076  -0.223  0.00  0.00    +0.013 C 
ATOM     20  C   LIG    1       -0.912  -1.500  -0.558  0.00  0.00    +0.012 C 
ENDROOT
BRANCH   3  21
ATOM     21  C   LIG    1       -3.939  -0.775   0.268  0.00  0.00    +0.137 C 
ATOM     22  C   LIG    1       -4.378  -0.737   1.677  0.00  0.00    +0.086 C 
ATOM     23  O   LIG    1       -4.543  -1.587  -0.460  0.00  0.00    -0.297 OA
ENDBRANCH   3  21
TORSDOF 1
