REMARK  Name = molecules/JWAZRIHNYRIHIV-UHFFFAOYSA-N.pdb
REMARK                            x       y       z     vdW  Elec       q    Type
REMARK                         _______ _______ _______ _____ _____    ______ ____
ROOT
ATOM      1  C   LIG    1        2.242  -0.214  -0.167  0.00  0.00    +0.117 A 
ATOM      2  C   LIG    1        2.042   1.140  -0.020  0.00  0.00    +0.046 A 
ATOM      3  C   LIG    1        0.738   1.608   0.084  0.00  0.00    +0.012 A 
ATOM      4  C   LIG    1       -0.330   0.729   0.040  0.00  0.00    -0.018 A 
ATOM      5  C   LIG    1       -1.642   1.161   0.141  0.00  0.00    +0.008 A 
ATOM      6  C   LIG    1       -2.725   0.330   0.103  0.00  0.00    +0.001 A 
ATOM      7  C   LIG    1       -2.493  -1.023  -0.046  0.00  0.00    +0.001 A 
ATOM      8  C   LIG    1       -1.209  -1.509  -0.151  0.00  0.00    +0.008 A 
ATOM      9  C   LIG    1       -0.139  -0.638  -0.108  0.00  0.00    -0.014 A 
ATOM     10  C   LIG    1        1.161  -1.071  -0.208  0.00  0.00    +0.054 A 
ENDROOT
BRANCH   1  11
ATOM     11  O   LIG    1        3.560  -0.686  -0.272  0.00  0.00    -0.507 OA
ATOM     12  H   LIG    1        4.000  -0.923   0.609  0.00  0.00    +0.292 HD
ENDBRANCH   1  11
TORSDOF 1
