REMARK  Name = molecules/JWBOIMRXGHLCPP-CYBMUJFWSA-N.pdb
REMARK                            x       y       z     vdW  Elec       q    Type
REMARK                         _______ _______ _______ _____ _____    ______ ____
ROOT
ATOM      1  C   LIG    1       -0.043   0.535   0.920  0.00  0.00    +0.083 C 
ENDROOT
BRANCH   1   2
ATOM      2  C   LIG    1       -1.242  -0.117   0.325  0.00  0.00    -0.019 A 
ATOM      3  C   LIG    1       -2.048  -0.899   1.129  0.00  0.00    +0.045 A 
ATOM      4 CL   LIG    1       -1.654  -1.116   2.842  0.00  0.00    -0.083 Cl
ATOM      5  C   LIG    1       -3.157  -1.510   0.596  0.00  0.00    +0.020 A 
ATOM      6  C   LIG    1       -3.462  -1.343  -0.723  0.00  0.00    +0.001 A 
ATOM      7  C   LIG    1       -2.669  -0.573  -1.516  0.00  0.00    +0.000 A 
ATOM      8  C   LIG    1       -1.555   0.051  -1.017  0.00  0.00    +0.006 A 
ENDBRANCH   1   2
BRANCH   1   9
ATOM      9  C   LIG    1        1.193   0.268   0.142  0.00  0.00    -0.037 A 
ATOM     10  C   LIG    1        1.954  -0.850   0.425  0.00  0.00    +0.006 A 
ATOM     11  C   LIG    1        3.110  -1.142  -0.269  0.00  0.00    +0.020 A 
ATOM     12  C   LIG    1        3.555  -0.321  -1.282  0.00  0.00    +0.041 A 
ATOM     13  C   LIG    1        2.800   0.796  -1.570  0.00  0.00    +0.020 A 
ATOM     14 CL   LIG    1        5.008  -0.628  -2.202  0.00  0.00    -0.084 Cl
ATOM     15  C   LIG    1        1.637   1.090  -0.873  0.00  0.00    +0.006 A 
ENDBRANCH   1   9
BRANCH   1  16
ATOM     16  C   LIG    1       -0.243   2.021   1.105  0.00  0.00    +0.183 C 
ATOM     17 CL   LIG    1       -1.524   2.231   2.333  0.00  0.00    -0.104 Cl
ATOM     18 CL   LIG    1        1.256   2.674   1.821  0.00  0.00    -0.104 Cl
ENDBRANCH   1  16
TORSDOF 3
