REMARK  Name = molecules/JWCSIUVGFCSJCK-UOXRKKOCSA-N.pdb
REMARK                            x       y       z     vdW  Elec       q    Type
REMARK                         _______ _______ _______ _____ _____    ______ ____
ROOT
ATOM      1  C   LIG    1       -1.151   0.027  -1.526  0.00  0.00    +0.258 C 
ATOM      2  C   LIG    1        0.207   0.572  -1.160  0.00  0.00    +0.273 C 
ATOM      3  O   LIG    1        0.549   0.483   0.192  0.00  0.00    -0.349 OA
ATOM      4  C   LIG    1        1.901   0.548   0.365  0.00  0.00    +0.196 C 
ATOM      5  C   LIG    1        2.700  -0.317  -0.548  0.00  0.00    -0.006 C 
ATOM      6  C   LIG    1        2.142  -0.896  -1.579  0.00  0.00    +0.125 C 
ATOM      7  N   LIG    1        0.727  -0.641  -1.758  0.00  0.00    -0.230 N 
ATOM      8  C   LIG    1       -0.506  -1.069  -2.298  0.00  0.00    +0.277 C 
ATOM      9  O   LIG    1       -0.873  -1.981  -3.086  0.00  0.00    -0.270 OA
ENDROOT
BRANCH   1  10
ATOM     10  N   LIG    1       -1.882  -0.401  -0.364  0.00  0.00    -0.276 N 
ATOM     11  C   LIG    1       -2.183   0.524   0.654  0.00  0.00    +0.234 C 
ATOM     12  O   LIG    1       -1.809   1.741   0.548  0.00  0.00    -0.274 OA
ATOM     13  H   LIG    1       -2.184  -1.383  -0.277  0.00  0.00    +0.152 HD
BRANCH  11  14
ATOM     14  C   LIG    1       -2.932   0.170   1.886  0.00  0.00    +0.213 C 
BRANCH  14  15
ATOM     15  C   LIG    1       -4.274  -0.334   1.425  0.00  0.00    -0.025 A 
ATOM     16  C   LIG    1       -4.724  -1.591   1.770  0.00  0.00    +0.008 A 
ATOM     17  C   LIG    1       -5.959  -2.054   1.346  0.00  0.00    +0.046 A 
ATOM     18  C   LIG    1       -6.777  -1.272   0.565  0.00  0.00    +0.117 A 
ATOM     19  C   LIG    1       -6.330  -0.009   0.215  0.00  0.00    +0.046 A 
ATOM     20  C   LIG    1       -5.097   0.451   0.640  0.00  0.00    +0.008 A 
BRANCH  18  21
ATOM     21  O   LIG    1       -8.017  -1.755   0.146  0.00  0.00    -0.507 OA
ATOM     22  H   LIG    1       -8.852  -1.615   0.691  0.00  0.00    +0.292 HD
ENDBRANCH  18  21
ENDBRANCH  14  15
BRANCH  14  23
ATOM     23  C   LIG    1       -3.209   1.363   2.724  0.00  0.00    +0.321 C 
ATOM     24  O   LIG    1       -2.859   1.406   3.931  0.00  0.00    -0.250 OA
BRANCH  23  25
ATOM     25  O   LIG    1       -3.859   2.471   2.216  0.00  0.00    -0.480 OA
ATOM     26  H   LIG    1       -4.388   3.122   2.764  0.00  0.00    +0.295 HD
ENDBRANCH  23  25
ENDBRANCH  14  23
ENDBRANCH  11  14
ENDBRANCH   1  10
BRANCH   6  27
ATOM     27  C   LIG    1        2.772  -1.743  -2.559  0.00  0.00    +0.351 C 
ATOM     28  O   LIG    1        2.091  -2.246  -3.514  0.00  0.00    -0.244 OA
BRANCH  27  29
ATOM     29  O   LIG    1        4.098  -2.081  -2.572  0.00  0.00    -0.476 OA
ATOM     30  H   LIG    1        4.788  -1.712  -3.220  0.00  0.00    +0.295 HD
ENDBRANCH  27  29
ENDBRANCH   6  27
BRANCH   1  31
ATOM     31  O   LIG    1       -1.930   0.786  -2.366  0.00  0.00    -0.348 OA
ATOM     32  C   LIG    1       -1.321   1.237  -3.507  0.00  0.00    +0.197 C 
ENDBRANCH   1  31
BRANCH   5  33
ATOM     33  C   LIG    1        4.117  -0.496  -0.225  0.00  0.00    +0.112 C 
BRANCH  33  34
ATOM     34  S   LIG    1        5.028   1.079  -0.263  0.00  0.00    -0.080 S 
BRANCH  34  35
ATOM     35  C   LIG    1        6.728   0.732   0.144  0.00  0.00    +0.209 A 
ATOM     36  N   LIG    1        7.223   0.735   1.393  0.00  0.00    -0.223 N 
ATOM     37  C   LIG    1        6.532   1.005   2.633  0.00  0.00    +0.177 C 
ATOM     38  N   LIG    1        8.513   0.433   1.292  0.00  0.00    -0.043 NA
ATOM     39  N   LIG    1        8.856   0.240   0.037  0.00  0.00    -0.022 NA
ATOM     40  N   LIG    1        7.739   0.427  -0.686  0.00  0.00    -0.102 NA
ENDBRANCH  34  35
ENDBRANCH  33  34
ENDBRANCH   5  33
TORSDOF 12
