REMARK  Name = molecules/JWDYCNIAQWPBHD-SECBINFHSA-N.pdb
REMARK                            x       y       z     vdW  Elec       q    Type
REMARK                         _______ _______ _______ _____ _____    ______ ____
ROOT
ATOM      1  O   LIG    1       -0.233  -0.124  -0.627  0.00  0.00    -0.489 OA
ENDROOT
BRANCH   1   2
ATOM      2  C   LIG    1        1.099  -0.158  -0.271  0.00  0.00    +0.124 A 
ATOM      3  C   LIG    1        1.476  -0.246   1.054  0.00  0.00    +0.046 A 
ATOM      4  C   LIG    1        2.802  -0.282   1.434  0.00  0.00    +0.004 A 
ATOM      5  C   LIG    1        3.743  -0.227   0.427  0.00  0.00    +0.000 A 
ATOM      6  C   LIG    1        3.368  -0.139  -0.897  0.00  0.00    +0.007 A 
ATOM      7  C   LIG    1        2.042  -0.103  -1.276  0.00  0.00    -0.009 A 
ATOM      8  C   LIG    1        1.641  -0.008  -2.714  0.00  0.00    +0.047 C 
ENDBRANCH   1   2
BRANCH   1   9
ATOM      9  C   LIG    1       -1.296  -0.173   0.298  0.00  0.00    +0.262 C 
BRANCH   9  10
ATOM     10  C   LIG    1       -2.585  -0.111  -0.487  0.00  0.00    +0.177 C 
BRANCH  10  11
ATOM     11  O   LIG    1       -2.683   1.052  -1.234  0.00  0.00    -0.386 OA
ATOM     12  H   LIG    1       -1.981   1.702  -1.073  0.00  0.00    +0.210 HD
ENDBRANCH  10  11
BRANCH  10  13
ATOM     13  C   LIG    1       -3.794  -0.178   0.424  0.00  0.00    +0.190 C 
BRANCH  13  14
ATOM     14  O   LIG    1       -3.840   0.923   1.277  0.00  0.00    -0.392 OA
ATOM     15  H   LIG    1       -3.487   1.690   0.751  0.00  0.00    +0.210 HD
ENDBRANCH  13  14
ENDBRANCH  10  13
ENDBRANCH   9  10
ENDBRANCH   1   9
TORSDOF 6
