REMARK  Name = molecules/JWHAUXFOSRPERK-SFHVURJKSA-N.pdb
REMARK                            x       y       z     vdW  Elec       q    Type
REMARK                         _______ _______ _______ _____ _____    ______ ____
ROOT
ATOM      1  C   LIG    1       -0.072  -2.308   0.421  0.00  0.00    +0.131 A 
ATOM      2  C   LIG    1        0.127  -3.631   0.728  0.00  0.00    +0.046 A 
ATOM      3  C   LIG    1       -0.935  -4.483   1.032  0.00  0.00    +0.004 A 
ATOM      4  C   LIG    1       -2.222  -3.991   1.026  0.00  0.00    +0.001 A 
ATOM      5  C   LIG    1       -2.435  -2.656   0.717  0.00  0.00    +0.015 A 
ATOM      6  C   LIG    1       -1.391  -1.818   0.419  0.00  0.00    +0.059 A 
ENDROOT
BRANCH   6   7
ATOM      7  C   LIG    1       -1.589  -0.417   0.093  0.00  0.00    +0.167 C 
ATOM      8  O   LIG    1       -0.649   0.341  -0.177  0.00  0.00    -0.292 OA
BRANCH   7   9
ATOM      9  C   LIG    1       -2.969   0.125   0.082  0.00  0.00    +0.084 C 
BRANCH   9  10
ATOM     10  C   LIG    1       -2.974   1.593  -0.277  0.00  0.00    +0.043 C 
BRANCH  10  11
ATOM     11  C   LIG    1       -4.321   2.166  -0.298  0.00  0.00    -0.047 A 
ATOM     12  C   LIG    1       -4.814   2.713   0.879  0.00  0.00    +0.003 A 
ATOM     13  C   LIG    1       -6.091   3.256   0.856  0.00  0.00    +0.000 A 
ATOM     14  C   LIG    1       -6.839   3.249  -0.305  0.00  0.00    +0.000 A 
ATOM     15  C   LIG    1       -6.348   2.707  -1.472  0.00  0.00    +0.000 A 
ATOM     16  C   LIG    1       -5.087   2.167  -1.460  0.00  0.00    +0.003 A 
ENDBRANCH  10  11
ENDBRANCH   9  10
ENDBRANCH   7   9
ENDBRANCH   6   7
BRANCH   1  17
ATOM     17  O   LIG    1        0.899  -1.459   0.125  0.00  0.00    -0.489 OA
BRANCH  17  18
ATOM     18  C   LIG    1        2.231  -1.338  -0.011  0.00  0.00    +0.261 C 
BRANCH  18  19
ATOM     19  C   LIG    1        3.127  -1.544   1.162  0.00  0.00    +0.166 C 
BRANCH  19  20
ATOM     20  O   LIG    1        3.110  -2.753   1.775  0.00  0.00    -0.387 OA
ATOM     21  H   LIG    1        3.454  -2.681   2.680  0.00  0.00    +0.210 HD
ENDBRANCH  19  20
BRANCH  19  22
ATOM     22  C   LIG    1        4.543  -1.162   0.692  0.00  0.00    +0.115 C 
BRANCH  22  23
ATOM     23  N   LIG    1        4.416   0.130   0.065  0.00  0.00    -0.313 NA
ATOM     24  H   LIG    1        4.094   0.824   0.783  0.00  0.00    +0.122 HD
BRANCH  23  25
ATOM     25  C   LIG    1        5.700   0.611  -0.429  0.00  0.00    +0.081 C 
BRANCH  25  26
ATOM     26  C   LIG    1        5.503   1.963  -1.073  0.00  0.00    +0.012 C 
ATOM     27  C   LIG    1        4.545   1.886  -2.218  0.00  0.00    +0.005 C 
ENDBRANCH  25  26
ENDBRANCH  23  25
ENDBRANCH  22  23
ENDBRANCH  19  22
ENDBRANCH  18  19
ENDBRANCH  17  18
ENDBRANCH   1  17
TORSDOF 12
