REMARK  Name = molecules/JWPGJSVJDAJRLW-UHFFFAOYSA-N.pdb
REMARK                            x       y       z     vdW  Elec       q    Type
REMARK                         _______ _______ _______ _____ _____    ______ ____
ROOT
ATOM      1  N   LIG    1       -1.349   0.237  -0.541  0.00  0.00    -0.221 N 
ATOM      2  C   LIG    1       -1.063  -1.192  -0.749  0.00  0.00    +0.192 C 
ATOM      3  C   LIG    1       -0.038  -1.664   0.252  0.00  0.00    +0.070 C 
ATOM      4  C   LIG    1        1.117  -0.699   0.212  0.00  0.00    -0.039 A 
ATOM      5  C   LIG    1        2.347  -1.178   0.700  0.00  0.00    +0.004 A 
ATOM      6  C   LIG    1        3.487  -0.410   0.728  0.00  0.00    +0.000 A 
ATOM      7  C   LIG    1        3.355   0.874   0.243  0.00  0.00    +0.000 A 
ATOM      8  C   LIG    1        2.172   1.367  -0.237  0.00  0.00    +0.007 A 
ATOM      9  C   LIG    1        1.018   0.584  -0.264  0.00  0.00    -0.013 A 
ATOM     10  C   LIG    1       -0.251   1.134  -0.788  0.00  0.00    +0.223 C 
ENDROOT
BRANCH   1  14
ATOM     11  N   LIG    1       -3.421  -0.019   0.836  0.00  0.00    -0.293 N 
ATOM     12  H   LIG    1       -3.062  -0.368   1.753  0.00  0.00    +0.254 HD
ATOM     13  H   LIG    1       -4.419  -0.188   0.609  0.00  0.00    +0.254 HD
ATOM     14  C   LIG    1       -2.638   0.669  -0.122  0.00  0.00    +0.360 C 
BRANCH  14  15
ATOM     15  N   LIG    1       -3.099   1.748  -0.656  0.00  0.00    -0.100 NA
ATOM     16  H   LIG    1       -4.036   2.116  -0.391  0.00  0.00    +0.290 HD
ENDBRANCH  14  15
ENDBRANCH   1  14
TORSDOF 2
