REMARK  Name = molecules/JWRMHDSINXPDHB-OJAGFMMFSA-N.pdb
REMARK                            x       y       z     vdW  Elec       q    Type
REMARK                         _______ _______ _______ _____ _____    ______ ____
ROOT
ATOM      1  C   LIG    1       -0.225   0.799   1.450  0.00  0.00    +0.015 C 
ATOM      2  C   LIG    1       -0.266  -0.101   0.267  0.00  0.00    +0.010 C 
ATOM      3  C   LIG    1       -1.305  -1.206   0.511  0.00  0.00    +0.005 C 
ATOM      4  C   LIG    1       -0.720  -1.895   1.707  0.00  0.00    +0.011 C 
ATOM      5  C   LIG    1        0.795  -1.634   1.608  0.00  0.00    +0.026 C 
ATOM      6  C   LIG    1        1.577  -2.906   1.720  0.00  0.00    +0.011 C 
ATOM      7  C   LIG    1       -2.593  -0.453   0.798  0.00  0.00    +0.037 C 
ATOM      8  C   LIG    1       -3.629  -1.394   1.361  0.00  0.00    +0.048 C 
ATOM      9  C   LIG    1       -4.897  -0.618   1.625  0.00  0.00    +0.194 C 
ATOM     10  F   LIG    1       -5.850  -1.474   2.100  0.00  0.00    -0.241 F 
ATOM     11  C   LIG    1       -5.315   0.043   0.328  0.00  0.00    -0.020 C 
ATOM     12  C   LIG    1       -6.506  -0.231  -0.098  0.00  0.00    +0.054 C 
ATOM     13  C   LIG    1       -6.990   0.272  -1.379  0.00  0.00    +0.179 C 
ATOM     14  O   LIG    1       -8.126   0.039  -1.829  0.00  0.00    -0.288 OA
ATOM     15  C   LIG    1       -6.049   1.088  -2.129  0.00  0.00    +0.047 C 
ATOM     16  C   LIG    1       -4.847   1.347  -1.664  0.00  0.00    -0.009 C 
ATOM     17  C   LIG    1       -4.343   0.866  -0.383  0.00  0.00    +0.047 C 
ATOM     18  C   LIG    1       -4.148   2.114   0.480  0.00  0.00    +0.023 C 
ATOM     19  C   LIG    1       -3.046   0.091  -0.525  0.00  0.00    +0.153 C 
ATOM     20  C   LIG    1       -2.008   0.828  -1.295  0.00  0.00    +0.154 C 
ATOM     21  F   LIG    1       -3.396  -1.032  -1.298  0.00  0.00    -0.238 F 
ATOM     22  C   LIG    1        0.955  -0.997   0.227  0.00  0.00    +0.135 C 
ATOM     23  C   LIG    1       -0.590   0.556  -1.006  0.00  0.00    +0.044 C 
ENDROOT
BRANCH  20  24
ATOM     24  O   LIG    1       -2.217   2.206  -1.076  0.00  0.00    -0.389 OA
ATOM     25  H   LIG    1       -1.913   2.754  -1.824  0.00  0.00    +0.210 HD
ENDBRANCH  20  24
BRANCH  22  26
ATOM     26  C   LIG    1        2.223  -0.358  -0.018  0.00  0.00    +0.202 C 
ATOM     27  O   LIG    1        2.644   0.550   0.654  0.00  0.00    -0.291 OA
BRANCH  26  28
ATOM     28  C   LIG    1        3.079  -0.821  -1.155  0.00  0.00    +0.309 C 
BRANCH  28  29
ATOM     29  O   LIG    1        4.282  -0.082  -1.236  0.00  0.00    -0.456 OA
BRANCH  29  30
ATOM     30  C   LIG    1        5.200  -0.050  -0.205  0.00  0.00    +0.313 C 
ATOM     31  O   LIG    1        4.956  -0.697   0.837  0.00  0.00    -0.250 OA
BRANCH  30  32
ATOM     32  C   LIG    1        6.449   0.747  -0.350  0.00  0.00    +0.059 C 
ATOM     33  C   LIG    1        7.311   0.653   0.874  0.00  0.00    +0.022 C 
ATOM     34  C   LIG    1        6.067   2.198  -0.565  0.00  0.00    +0.022 C 
ATOM     35  C   LIG    1        7.271   0.264  -1.533  0.00  0.00    +0.022 C 
ENDBRANCH  30  32
ENDBRANCH  29  30
ENDBRANCH  28  29
ENDBRANCH  26  28
ENDBRANCH  22  26
BRANCH  22  36
ATOM     36  O   LIG    1        0.692  -2.058  -0.664  0.00  0.00    -0.380 OA
ATOM     37  H   LIG    1        0.850  -1.837  -1.594  0.00  0.00    +0.211 HD
ENDBRANCH  22  36
TORSDOF 7
