REMARK  Name = molecules/JWZZKOKVBUJMES-NSHDSACASA-N.pdb
REMARK                            x       y       z     vdW  Elec       q    Type
REMARK                         _______ _______ _______ _____ _____    ______ ____
ROOT
ATOM      1  C   LIG    1        1.481  -0.105   0.192  0.00  0.00    -0.014 A 
ATOM      2  C   LIG    1        2.410   0.912   0.106  0.00  0.00    +0.055 A 
ATOM      3  C   LIG    1        3.749   0.666  -0.071  0.00  0.00    +0.159 A 
ATOM      4  C   LIG    1        4.187  -0.634  -0.168  0.00  0.00    +0.158 A 
ATOM      5  C   LIG    1        3.253  -1.679  -0.083  0.00  0.00    +0.049 A 
ATOM      6  C   LIG    1        1.912  -1.395   0.097  0.00  0.00    +0.010 A 
ENDROOT
BRANCH   3   7
ATOM      7  O   LIG    1        4.718   1.684  -0.161  0.00  0.00    -0.503 OA
ATOM      8  H   LIG    1        4.364   2.628  -0.083  0.00  0.00    +0.292 HD
ENDBRANCH   3   7
BRANCH   4   9
ATOM      9  O   LIG    1        5.534  -0.913  -0.348  0.00  0.00    -0.503 OA
ATOM     10  H   LIG    1        5.824  -1.891  -0.417  0.00  0.00    +0.292 HD
ENDBRANCH   4   9
BRANCH   1  11
ATOM     11  C   LIG    1        0.066   0.282   0.388  0.00  0.00    +0.158 C 
BRANCH  11  12
ATOM     12  O   LIG    1       -0.258   1.237  -0.549  0.00  0.00    -0.386 OA
ATOM     13  H   LIG    1        0.413   1.395  -1.241  0.00  0.00    +0.210 HD
ENDBRANCH  11  12
BRANCH  11  14
ATOM     14  C   LIG    1       -0.866  -0.852   0.535  0.00  0.00    +0.117 C 
BRANCH  14  15
ATOM     15  N   LIG    1       -2.185  -0.623   0.906  0.00  0.00    -0.311 NA
ATOM     16  H   LIG    1       -2.446  -0.764   1.900  0.00  0.00    +0.122 HD
BRANCH  15  18
ATOM     17  C   LIG    1       -4.523  -0.355   0.664  0.00  0.00    +0.023 C 
ATOM     18  C   LIG    1       -3.125   0.002   0.083  0.00  0.00    +0.048 C 
ATOM     19  C   LIG    1       -3.087   1.482  -0.052  0.00  0.00    +0.023 C 
ENDBRANCH  15  18
ENDBRANCH  14  15
ENDBRANCH  11  14
ENDBRANCH   1  11
TORSDOF 7
