REMARK  Name = molecules/JXJPYHDHJZJWRI-UHFFFAOYSA-N.pdb
REMARK                            x       y       z     vdW  Elec       q    Type
REMARK                         _______ _______ _______ _____ _____    ______ ____
ROOT
ATOM      1  C   LIG    1       -1.287   0.587  -0.611  0.00  0.00    +0.050 C 
ENDROOT
BRANCH   1   2
ATOM      2  C   LIG    1       -2.175   1.669  -0.147  0.00  0.00    -0.040 A 
ATOM      3  C   LIG    1       -2.202   1.987   1.192  0.00  0.00    +0.004 A 
ATOM      4  C   LIG    1       -3.023   2.993   1.668  0.00  0.00    +0.000 A 
ATOM      5  C   LIG    1       -3.849   3.717   0.814  0.00  0.00    +0.000 A 
ATOM      6  C   LIG    1       -3.804   3.379  -0.524  0.00  0.00    +0.000 A 
ATOM      7  C   LIG    1       -2.994   2.384  -1.010  0.00  0.00    +0.004 A 
ENDBRANCH   1   2
BRANCH   1   8
ATOM      8  C   LIG    1       -1.949  -0.729  -0.647  0.00  0.00    -0.040 A 
ATOM      9  C   LIG    1       -2.015  -1.523   0.471  0.00  0.00    +0.004 A 
ATOM     10  C   LIG    1       -2.652  -2.748   0.392  0.00  0.00    +0.000 A 
ATOM     11  C   LIG    1       -3.224  -3.220  -0.751  0.00  0.00    +0.000 A 
ATOM     12  C   LIG    1       -3.166  -2.435  -1.882  0.00  0.00    +0.000 A 
ATOM     13  C   LIG    1       -2.536  -1.205  -1.830  0.00  0.00    +0.004 A 
ENDBRANCH   1   8
BRANCH   1  14
ATOM     14  C   LIG    1        0.051   0.580   0.087  0.00  0.00    +0.028 C 
BRANCH  14  15
ATOM     15  C   LIG    1        1.015  -0.361  -0.598  0.00  0.00    +0.085 C 
BRANCH  15  16
ATOM     16  N   LIG    1        2.288  -0.437  -0.015  0.00  0.00    -0.302 NA
ATOM     17  C   LIG    1        2.902  -1.701   0.075  0.00  0.00    +0.084 C 
ATOM     18  C   LIG    1        4.309  -1.665  -0.500  0.00  0.00    +0.015 C 
ATOM     19  C   LIG    1        5.173  -0.702   0.261  0.00  0.00    +0.002 C 
ATOM     20  C   LIG    1        4.350   0.425   0.812  0.00  0.00    +0.015 C 
ATOM     21  C   LIG    1        3.134   0.692  -0.086  0.00  0.00    +0.084 C 
ENDBRANCH  15  16
ENDBRANCH  14  15
ENDBRANCH   1  14
TORSDOF 5
