REMARK  Name = molecules/JXUMCVDPMJWGSI-UHFFFAOYSA-N.pdb
REMARK                            x       y       z     vdW  Elec       q    Type
REMARK                         _______ _______ _______ _____ _____    ______ ____
ROOT
ATOM      1  C   LIG    1       -0.141  -0.089  -0.373  0.00  0.00    +0.133 A 
ATOM      2  O   LIG    1       -0.948   0.823   0.080  0.00  0.00    -0.437 OA
ATOM      3  C   LIG    1       -2.186   0.412   0.159  0.00  0.00    +0.280 A 
ATOM      4  C   LIG    1       -2.185  -0.898  -0.286  0.00  0.00    +0.076 A 
ATOM      5  C   LIG    1       -0.895  -1.210  -0.620  0.00  0.00    +0.049 A 
ENDROOT
BRANCH   3   6
ATOM      6  N   LIG    1       -3.292   1.180   0.616  0.00  0.00    +0.093 N 
ATOM      7  O   LIG    1       -3.071   2.469   1.015  0.00  0.00    -0.123 OA
ATOM      8  O   LIG    1       -4.450   0.732   0.669  0.00  0.00    -0.123 OA
ENDBRANCH   3   6
BRANCH   1   9
ATOM      9  C   LIG    1        1.318   0.107  -0.565  0.00  0.00    +0.233 C 
BRANCH   9  11
ATOM     10  C   LIG    1        3.331  -0.104   0.542  0.00  0.00    +0.194 C 
ATOM     11  O   LIG    1        1.946  -0.250   0.611  0.00  0.00    -0.375 OA
ENDBRANCH   9  11
ENDBRANCH   1   9
TORSDOF 3
