REMARK  Name = molecules/JXZZEXZZKAWDSP-UHFFFAOYSA-N.pdb
REMARK                            x       y       z     vdW  Elec       q    Type
REMARK                         _______ _______ _______ _____ _____    ______ ____
ROOT
ATOM      1  N   LIG    1       -0.741  -0.474   0.576  0.00  0.00    -0.302 NA
ATOM      2  C   LIG    1        0.018   0.189   1.568  0.00  0.00    +0.086 C 
ATOM      3  C   LIG    1        1.370   0.609   1.052  0.00  0.00    +0.037 C 
ATOM      4  C   LIG    1        2.007  -0.549   0.354  0.00  0.00    +0.076 C 
ATOM      5  C   LIG    1        1.167  -0.937  -0.834  0.00  0.00    +0.037 C 
ATOM      6  C   LIG    1       -0.249  -0.417  -0.746  0.00  0.00    +0.086 C 
ENDROOT
BRANCH   4   7
ATOM      7  N   LIG    1        3.335  -0.101  -0.101  0.00  0.00    -0.308 N 
ATOM      8  C   LIG    1        4.488  -0.731   0.389  0.00  0.00    +0.244 C 
ATOM      9  O   LIG    1        4.387  -1.671   1.211  0.00  0.00    -0.270 OA
ATOM     10  H   LIG    1        3.321   0.687  -0.786  0.00  0.00    +0.149 HD
BRANCH   8  11
ATOM     11  C   LIG    1        5.800  -0.310  -0.041  0.00  0.00    +0.037 A 
ATOM     12  C   LIG    1        6.915  -0.958   0.437  0.00  0.00    +0.013 A 
ATOM     13  C   LIG    1        8.202  -0.613   0.073  0.00  0.00    +0.001 A 
ATOM     14  C   LIG    1        8.343   0.435  -0.814  0.00  0.00    +0.000 A 
ATOM     15  C   LIG    1        7.256   1.115  -1.321  0.00  0.00    +0.001 A 
ATOM     16  C   LIG    1        5.977   0.732  -0.924  0.00  0.00    +0.013 A 
ENDBRANCH   8  11
ENDBRANCH   4   7
BRANCH   1  17
ATOM     17  C   LIG    1       -2.156  -0.417   0.729  0.00  0.00    +0.089 C 
BRANCH  17  18
ATOM     18  C   LIG    1       -2.758   0.912   0.363  0.00  0.00    +0.052 C 
BRANCH  18  19
ATOM     19  C   LIG    1       -4.222   0.868   0.555  0.00  0.00    -0.021 A 
ATOM     20  C   LIG    1       -4.932   1.430   1.590  0.00  0.00    +0.087 A 
ATOM     21  N   LIG    1       -6.260   1.167   1.404  0.00  0.00    -0.360 N 
ATOM     22  H   LIG    1       -7.043   1.470   2.035  0.00  0.00    +0.165 HD
ATOM     23  C   LIG    1       -6.424   0.451   0.278  0.00  0.00    +0.047 A 
ATOM     24  C   LIG    1       -7.503  -0.081  -0.387  0.00  0.00    +0.026 A 
ATOM     25  C   LIG    1       -7.359  -0.795  -1.564  0.00  0.00    +0.002 A 
ATOM     26  C   LIG    1       -6.111  -0.991  -2.105  0.00  0.00    +0.001 A 
ATOM     27  C   LIG    1       -5.029  -0.453  -1.431  0.00  0.00    +0.010 A 
ATOM     28  C   LIG    1       -5.148   0.261  -0.259  0.00  0.00    +0.003 A 
ENDBRANCH  18  19
ENDBRANCH  17  18
ENDBRANCH   1  17
TORSDOF 5
