REMARK  Name = molecules/JYGLAHSAISAEAL-UHFFFAOYSA-N.pdb
REMARK                            x       y       z     vdW  Elec       q    Type
REMARK                         _______ _______ _______ _____ _____    ______ ____
ROOT
ATOM      1  C   LIG    1       -0.945   0.502  -0.622  0.00  0.00    +0.116 C 
ENDROOT
BRANCH   1   2
ATOM      2  C   LIG    1       -1.975   1.541  -0.457  0.00  0.00    -0.033 A 
ATOM      3  C   LIG    1       -2.642   1.778   0.720  0.00  0.00    +0.004 A 
ATOM      4  C   LIG    1       -3.607   2.782   0.823  0.00  0.00    +0.000 A 
ATOM      5  C   LIG    1       -3.919   3.569  -0.266  0.00  0.00    +0.000 A 
ATOM      6  C   LIG    1       -3.257   3.338  -1.444  0.00  0.00    +0.000 A 
ATOM      7  C   LIG    1       -2.305   2.340  -1.526  0.00  0.00    +0.004 A 
ENDBRANCH   1   2
BRANCH   1   8
ATOM      8  C   LIG    1       -1.561  -0.861  -0.706  0.00  0.00    -0.033 A 
ATOM      9  C   LIG    1       -1.754  -1.578   0.457  0.00  0.00    +0.004 A 
ATOM     10  C   LIG    1       -2.310  -2.832   0.476  0.00  0.00    +0.000 A 
ATOM     11  C   LIG    1       -2.692  -3.397  -0.733  0.00  0.00    +0.000 A 
ATOM     12  C   LIG    1       -2.499  -2.678  -1.900  0.00  0.00    +0.000 A 
ATOM     13  C   LIG    1       -1.940  -1.423  -1.899  0.00  0.00    +0.004 A 
ENDBRANCH   1   8
BRANCH   1  14
ATOM     14  C   LIG    1        0.007   0.571   0.500  0.00  0.00    +0.163 C 
ATOM     15  O   LIG    1       -0.176   1.403   1.368  0.00  0.00    -0.295 OA
BRANCH  14  16
ATOM     16  C   LIG    1        1.184  -0.322   0.635  0.00  0.00    +0.198 C 
ATOM     17  C   LIG    1        2.018   0.169   1.758  0.00  0.00    +0.182 C 
ATOM     18  O   LIG    1        1.700   0.765   2.803  0.00  0.00    -0.291 OA
ATOM     19  C   LIG    1        3.403  -0.201   1.392  0.00  0.00    +0.029 A 
ATOM     20  C   LIG    1        4.559  -0.347   2.125  0.00  0.00    +0.012 A 
ATOM     21  C   LIG    1        5.780  -0.712   1.552  0.00  0.00    +0.001 A 
ATOM     22  C   LIG    1        5.812  -0.931   0.195  0.00  0.00    +0.001 A 
ATOM     23  C   LIG    1        4.675  -0.792  -0.555  0.00  0.00    +0.012 A 
ATOM     24  C   LIG    1        3.457  -0.424   0.037  0.00  0.00    +0.029 A 
ATOM     25  C   LIG    1        2.120  -0.207  -0.502  0.00  0.00    +0.182 C 
ATOM     26  O   LIG    1        1.919   0.027  -1.722  0.00  0.00    -0.291 OA
ENDBRANCH  14  16
ENDBRANCH   1  14
TORSDOF 4
