REMARK  Name = molecules/JYIKNQVWKBUSNH-WVDDFWQHSA-N.pdb
REMARK                            x       y       z     vdW  Elec       q    Type
REMARK                         _______ _______ _______ _____ _____    ______ ____
ROOT
ATOM      1  C   LIG    1       -3.593   0.122   1.663  0.00  0.00    +0.111 C 
ATOM      2  N   LIG    1       -4.480  -0.623   2.604  0.00  0.00    -0.286 N 
ATOM      3  C   LIG    1       -5.697  -0.246   3.074  0.00  0.00    +0.239 C 
ATOM      4  O   LIG    1       -5.647   0.507   4.199  0.00  0.00    -0.273 OA
ATOM      5  C   LIG    1       -7.114  -0.407   2.714  0.00  0.00    +0.188 C 
ATOM      6  N   LIG    1       -7.629   0.726   1.961  0.00  0.00    -0.300 N 
ATOM      7  H   LIG    1       -8.540   1.070   2.497  0.00  0.00    +0.150 HD
ATOM      8  C   LIG    1       -7.303   1.455   0.858  0.00  0.00    +0.237 C 
ATOM      9  O   LIG    1       -6.897   2.696   1.180  0.00  0.00    -0.274 OA
ATOM     10  C   LIG    1       -7.269   1.284  -0.600  0.00  0.00    +0.190 C 
ATOM     11  N   LIG    1       -6.192   0.524  -1.154  0.00  0.00    -0.300 N 
ATOM     12  H   LIG    1       -6.286  -0.515  -1.118  0.00  0.00    +0.150 HD
ATOM     13  C   LIG    1       -5.014   1.014  -1.808  0.00  0.00    +0.234 C 
ATOM     14  C   LIG    1       -4.254   2.136  -1.369  0.00  0.00    +0.164 C 
ATOM     15  N   LIG    1       -2.840   2.172  -1.182  0.00  0.00    -0.286 N 
ATOM     16  C   LIG    1       -2.783   3.677  -0.824  0.00  0.00    +0.140 C 
ATOM     17  C   LIG    1       -3.358   4.227  -2.130  0.00  0.00    +0.134 C 
ATOM     18  C   LIG    1       -1.749   1.333  -1.223  0.00  0.00    +0.239 C 
ATOM     19  O   LIG    1       -1.222   1.140  -0.029  0.00  0.00    -0.273 OA
ATOM     20  C   LIG    1       -0.978   0.577  -2.220  0.00  0.00    +0.187 C 
ATOM     21  N   LIG    1        0.457   0.633  -1.914  0.00  0.00    -0.300 N 
ATOM     22  C   LIG    1        1.183   0.339  -0.765  0.00  0.00    +0.234 C 
ATOM     23  C   LIG    1        1.460  -0.931  -0.076  0.00  0.00    +0.161 C 
ATOM     24  C   LIG    1        0.963  -0.979   1.378  0.00  0.00    +0.066 C 
ATOM     25  C   LIG    1        0.680  -2.382   1.822  0.00  0.00    +0.151 C 
ATOM     26  C   LIG    1       -0.257  -2.525   2.929  0.00  0.00    +0.170 C 
ATOM     27  N   LIG    1       -1.067  -1.365   3.201  0.00  0.00    -0.296 N 
ATOM     28  C   LIG    1       -2.416  -1.295   3.523  0.00  0.00    +0.237 C 
ATOM     29  O   LIG    1       -2.743  -0.718   4.627  0.00  0.00    -0.274 OA
ATOM     30  H   LIG    1       -0.535  -0.434   3.180  0.00  0.00    +0.150 HD
ATOM     31  O   LIG    1        1.746   1.356  -0.155  0.00  0.00    -0.274 OA
ATOM     32  H   LIG    1        1.087   0.993  -2.743  0.00  0.00    +0.150 HD
ATOM     33  C   LIG    1       -4.434   3.226  -2.482  0.00  0.00    +0.065 C 
ATOM     34  O   LIG    1       -4.623   0.394  -2.856  0.00  0.00    -0.274 OA
ATOM     35  C   LIG    1       -3.613  -1.791   2.784  0.00  0.00    +0.190 C 
ATOM     36  C   LIG    1       -3.286  -2.211   1.388  0.00  0.00    +0.145 C 
ATOM     37  C   LIG    1       -3.659  -0.968   0.570  0.00  0.00    +0.052 C 
ENDROOT
BRANCH  23  38
ATOM     38  N   LIG    1        2.933  -1.008   0.078  0.00  0.00    -0.304 N 
ATOM     39  H   LIG    1        3.419  -0.443   0.811  0.00  0.00    +0.149 HD
ATOM     40  C   LIG    1        3.735  -1.823  -0.737  0.00  0.00    +0.214 C 
ATOM     41  O   LIG    1        3.183  -2.477  -1.669  0.00  0.00    -0.276 OA
BRANCH  40  42
ATOM     42  C   LIG    1        5.218  -1.938  -0.524  0.00  0.00    +0.096 C 
BRANCH  42  43
ATOM     43  C   LIG    1        5.931  -2.598  -1.645  0.00  0.00    +0.009 C 
BRANCH  43  44
ATOM     44  C   LIG    1        7.322  -2.952  -1.424  0.00  0.00    +0.000 C 
BRANCH  44  45
ATOM     45  C   LIG    1        8.387  -2.041  -1.005  0.00  0.00    +0.000 C 
BRANCH  45  46
ATOM     46  C   LIG    1        8.303  -1.413   0.331  0.00  0.00    +0.000 C 
BRANCH  46  47
ATOM     47  C   LIG    1        9.538  -0.571   0.654  0.00  0.00    +0.000 C 
BRANCH  47  48
ATOM     48  C   LIG    1       10.791  -1.413   0.683  0.00  0.00    +0.000 C 
BRANCH  48  49
ATOM     49  C   LIG    1       11.976  -0.596   1.118  0.00  0.00    +0.003 C 
BRANCH  49  50
ATOM     50  C   LIG    1       12.306   0.556   0.236  0.00  0.00    -0.014 C 
ATOM     51  C   LIG    1       13.490   1.276   0.882  0.00  0.00    +0.007 C 
BRANCH  50  52
ATOM     52  C   LIG    1       12.663   0.165  -1.158  0.00  0.00    +0.006 C 
BRANCH  52  53
ATOM     53  C   LIG    1       13.009   1.364  -2.018  0.00  0.00    -0.014 C 
ATOM     54  C   LIG    1       13.414   0.875  -3.395  0.00  0.00    +0.007 C 
BRANCH  53  55
ATOM     55  C   LIG    1       11.888   2.348  -2.155  0.00  0.00    -0.000 C 
ATOM     56  C   LIG    1       12.382   3.482  -3.027  0.00  0.00    +0.004 C 
ENDBRANCH  53  55
ENDBRANCH  52  53
ENDBRANCH  50  52
ENDBRANCH  49  50
ENDBRANCH  48  49
ENDBRANCH  47  48
ENDBRANCH  46  47
ENDBRANCH  45  46
ENDBRANCH  44  45
ENDBRANCH  43  44
ENDBRANCH  42  43
ENDBRANCH  40  42
ENDBRANCH  23  38
BRANCH  25  57
ATOM     57  O   LIG    1        1.923  -3.009   2.095  0.00  0.00    -0.389 OA
ATOM     58  H   LIG    1        2.657  -2.420   1.893  0.00  0.00    +0.210 HD
ENDBRANCH  25  57
BRANCH  20  59
ATOM     59  C   LIG    1       -1.378  -0.781  -2.614  0.00  0.00    +0.141 C 
ATOM     60  C   LIG    1       -0.468  -1.154  -3.833  0.00  0.00    +0.040 C 
BRANCH  59  61
ATOM     61  O   LIG    1       -1.173  -1.791  -1.714  0.00  0.00    -0.390 OA
ATOM     62  H   LIG    1       -1.160  -1.627  -0.785  0.00  0.00    +0.210 HD
ENDBRANCH  59  61
ENDBRANCH  20  59
BRANCH  26  63
ATOM     63  N   LIG    1        0.444  -2.838   4.183  0.00  0.00    -0.295 NA
ATOM     64  H   LIG    1        0.942  -3.739   4.068  0.00  0.00    +0.124 HD
BRANCH  63  65
ATOM     65  C   LIG    1        1.306  -1.821   4.655  0.00  0.00    +0.097 C 
BRANCH  65  66
ATOM     66  C   LIG    1        1.843  -2.283   6.027  0.00  0.00    +0.093 C 
BRANCH  66  67
ATOM     67  N   LIG    1        0.734  -2.484   6.950  0.00  0.00    -0.329 NA
ATOM     68  H   LIG    1        0.361  -3.441   6.802  0.00  0.00    +0.118 HD
ATOM     69  H   LIG    1       -0.006  -1.786   6.782  0.00  0.00    +0.118 HD
ENDBRANCH  66  67
ENDBRANCH  65  66
ENDBRANCH  63  65
ENDBRANCH  26  63
BRANCH  17  70
ATOM     70  O   LIG    1       -3.853   5.484  -1.876  0.00  0.00    -0.390 OA
ATOM     71  H   LIG    1       -3.138   6.175  -1.920  0.00  0.00    +0.210 HD
ENDBRANCH  17  70
BRANCH  36  72
ATOM     72  O   LIG    1       -4.114  -3.280   1.046  0.00  0.00    -0.389 OA
ATOM     73  H   LIG    1       -3.902  -3.484   0.083  0.00  0.00    +0.210 HD
ENDBRANCH  36  72
BRANCH  10  74
ATOM     74  C   LIG    1       -8.553   0.676  -1.157  0.00  0.00    +0.176 C 
BRANCH  74  75
ATOM     75  O   LIG    1       -8.454   0.632  -2.583  0.00  0.00    -0.387 OA
ATOM     76  H   LIG    1       -7.798  -0.082  -2.795  0.00  0.00    +0.210 HD
ENDBRANCH  74  75
BRANCH  74  77
ATOM     77  C   LIG    1       -9.800   1.477  -0.874  0.00  0.00    +0.175 C 
BRANCH  77  78
ATOM     78  C   LIG    1      -10.045   2.606  -1.753  0.00  0.00    -0.016 A 
ATOM     79  C   LIG    1       -9.523   3.842  -1.532  0.00  0.00    +0.010 A 
ATOM     80  C   LIG    1       -9.773   4.927  -2.368  0.00  0.00    +0.046 A 
ATOM     81  C   LIG    1      -10.580   4.746  -3.461  0.00  0.00    +0.117 A 
ATOM     82  C   LIG    1      -11.124   3.490  -3.707  0.00  0.00    +0.046 A 
ATOM     83  C   LIG    1      -10.848   2.469  -2.861  0.00  0.00    +0.010 A 
BRANCH  81  84
ATOM     84  O   LIG    1      -10.873   5.810  -4.348  0.00  0.00    -0.507 OA
ATOM     85  H   LIG    1      -11.715   6.335  -4.069  0.00  0.00    +0.292 HD
ENDBRANCH  81  84
ENDBRANCH  77  78
BRANCH  77  86
ATOM     86  O   LIG    1       -9.947   1.688   0.470  0.00  0.00    -0.385 OA
ATOM     87  H   LIG    1      -10.386   2.569   0.645  0.00  0.00    +0.210 HD
ENDBRANCH  77  86
ENDBRANCH  74  77
ENDBRANCH  10  74
BRANCH   5  88
ATOM     88  C   LIG    1       -7.574  -1.676   2.138  0.00  0.00    +0.145 C 
BRANCH  88  89
ATOM     89  O   LIG    1       -7.238  -1.992   0.851  0.00  0.00    -0.389 OA
ATOM     90  H   LIG    1       -7.118  -2.957   0.720  0.00  0.00    +0.210 HD
ENDBRANCH  88  89
BRANCH  88  91
ATOM     91  C   LIG    1       -9.122  -1.602   2.104  0.00  0.00    +0.048 C 
BRANCH  91  92
ATOM     92  C   LIG    1       -9.690  -2.869   1.515  0.00  0.00    +0.080 C 
BRANCH  92  93
ATOM     93  N   LIG    1      -11.150  -2.688   1.537  0.00  0.00    -0.330 NA
ATOM     94  H   LIG    1      -11.452  -2.608   2.521  0.00  0.00    +0.118 HD
ATOM     95  H   LIG    1      -11.647  -3.402   0.994  0.00  0.00    +0.118 HD
ENDBRANCH  92  93
ENDBRANCH  91  92
ENDBRANCH  88  91
ENDBRANCH   5  88
TORSDOF 33
