REMARK  Name = molecules/JYJGXBHAXCGVHV-UHFFFAOYSA-N.pdb
REMARK                            x       y       z     vdW  Elec       q    Type
REMARK                         _______ _______ _______ _____ _____    ______ ____
ROOT
ATOM      1  C   LIG    1       -1.799  -2.724   0.328  0.00  0.00    +0.048 C 
ATOM      2  C   LIG    1       -0.822  -1.613   0.208  0.00  0.00    -0.002 A 
ATOM      3  C   LIG    1       -1.259  -0.335   0.462  0.00  0.00    +0.170 A 
ATOM      4  C   LIG    1       -0.389   0.731   0.364  0.00  0.00    +0.031 A 
ATOM      5  C   LIG    1       -0.828   1.991   0.617  0.00  0.00    +0.012 A 
ATOM      6  C   LIG    1       -0.028   3.091   0.540  0.00  0.00    +0.001 A 
ATOM      7  C   LIG    1        1.300   2.908   0.186  0.00  0.00    +0.001 A 
ATOM      8  C   LIG    1        1.756   1.620  -0.074  0.00  0.00    +0.012 A 
ATOM      9  C   LIG    1        0.947   0.516   0.004  0.00  0.00    +0.030 A 
ATOM     10  C   LIG    1        1.393  -0.757  -0.252  0.00  0.00    +0.167 A 
ATOM     11  C   LIG    1        0.516  -1.821  -0.152  0.00  0.00    +0.056 A 
ENDROOT
BRANCH   3  12
ATOM     12  O   LIG    1       -2.561  -0.104   0.816  0.00  0.00    -0.324 OA
BRANCH  12  13
ATOM     13  S   LIG    1       -3.829   0.211  -0.240  0.00  0.00    +0.251 S 
ATOM     14  O   LIG    1       -4.957  -0.749   0.108  0.00  0.00    -0.108 OA
ATOM     15  O   LIG    1       -3.467  -0.020  -1.677  0.00  0.00    -0.108 OA
BRANCH  13  16
ATOM     16  O   LIG    1       -4.425   1.754  -0.050  0.00  0.00    -0.222 OA
ATOM     17  H   LIG    1       -4.044   2.370  -0.728  0.00  0.00    +0.248 HD
ENDBRANCH  13  16
ENDBRANCH  12  13
ENDBRANCH   3  12
BRANCH  10  18
ATOM     18  O   LIG    1        2.713  -0.976  -0.608  0.00  0.00    -0.324 OA
BRANCH  18  19
ATOM     19  S   LIG    1        3.951  -1.278   0.503  0.00  0.00    +0.251 S 
ATOM     20  O   LIG    1        3.903  -0.271   1.628  0.00  0.00    -0.108 OA
ATOM     21  O   LIG    1        3.925  -2.686   1.013  0.00  0.00    -0.108 OA
BRANCH  19  22
ATOM     22  O   LIG    1        5.420  -1.070  -0.310  0.00  0.00    -0.222 OA
ATOM     23  H   LIG    1        5.280  -0.383  -1.018  0.00  0.00    +0.248 HD
ENDBRANCH  19  22
ENDBRANCH  18  19
ENDBRANCH  10  18
TORSDOF 6
