REMARK  Name = molecules/JYJTVFIEFKZWCJ-JTQLQIEISA-N.pdb
REMARK                            x       y       z     vdW  Elec       q    Type
REMARK                         _______ _______ _______ _____ _____    ______ ____
ROOT
ATOM      1  C   LIG    1        0.154   0.016  -0.137  0.00  0.00    +0.001 A 
ATOM      2  C   LIG    1       -0.725   1.082  -0.007  0.00  0.00    +0.071 A 
ATOM      3  C   LIG    1       -0.256   2.374   0.055  0.00  0.00    +0.145 A 
ATOM      4  F   LIG    1       -1.106   3.428   0.182  0.00  0.00    -0.204 F 
ATOM      5  C   LIG    1        1.101   2.558  -0.017  0.00  0.00    +0.054 A 
ATOM      6  C   LIG    1        1.993   1.486  -0.148  0.00  0.00    +0.049 A 
ATOM      7  C   LIG    1        3.337   1.715  -0.215  0.00  0.00    +0.203 A 
ATOM      8  O   LIG    1        3.724   2.928  -0.154  0.00  0.00    -0.286 OA
ATOM      9  C   LIG    1        4.230   0.679  -0.344  0.00  0.00    +0.122 A 
ATOM     10  C   LIG    1        3.723  -0.590  -0.403  0.00  0.00    +0.105 A 
ATOM     11  N   LIG    1        2.385  -0.855  -0.339  0.00  0.00    -0.343 N 
ATOM     12  C   LIG    1        1.897  -2.193  -0.410  0.00  0.00    +0.085 C 
ATOM     13  C   LIG    1        0.581  -2.382   0.294  0.00  0.00    +0.029 C 
ATOM     14  C   LIG    1        2.857  -3.217   0.140  0.00  0.00    +0.031 C 
ATOM     15  C   LIG    1       -0.439  -1.372  -0.190  0.00  0.00    +0.041 C 
ATOM     16  C   LIG    1        1.530   0.174  -0.212  0.00  0.00    +0.058 A 
ENDROOT
BRANCH   2  17
ATOM     17  N   LIG    1       -2.127   0.881   0.066  0.00  0.00    -0.327 N 
ATOM     18  C   LIG    1       -2.734   0.695   1.337  0.00  0.00    +0.107 C 
ATOM     19  C   LIG    1       -3.934  -0.185   1.343  0.00  0.00    +0.050 C 
ATOM     20  C   LIG    1       -4.718  -0.193   0.076  0.00  0.00    +0.118 C 
ATOM     21  C   LIG    1       -4.362   1.024  -0.740  0.00  0.00    +0.050 C 
ATOM     22  C   LIG    1       -2.900   0.869  -1.144  0.00  0.00    +0.107 C 
BRANCH  20  23
ATOM     23  O   LIG    1       -6.089  -0.238   0.352  0.00  0.00    -0.392 OA
ATOM     24  H   LIG    1       -6.503   0.661   0.328  0.00  0.00    +0.210 HD
ENDBRANCH  20  23
ENDBRANCH   2  17
BRANCH   9  25
ATOM     25  C   LIG    1        5.648   0.975  -0.411  0.00  0.00    +0.342 C 
ATOM     26  O   LIG    1        6.474   0.047  -0.528  0.00  0.00    -0.245 OA
BRANCH  25  27
ATOM     27  O   LIG    1        6.077   2.276  -0.346  0.00  0.00    -0.477 OA
ATOM     28  H   LIG    1        6.982   2.577  -0.043  0.00  0.00    +0.295 HD
ENDBRANCH  25  27
ENDBRANCH   9  25
TORSDOF 4
