REMARK  Name = molecules/JYPVVOOBQVVUQV-CGHBYZBKSA-N.pdb
REMARK                            x       y       z     vdW  Elec       q    Type
REMARK                         _______ _______ _______ _____ _____    ______ ____
ROOT
ATOM      1  CA  TYR A  4       -1.350   1.093  -0.034  0.00  0.00    +0.163 C 
ENDROOT
BRANCH   1   2
ATOM      2  C   TYR A  4        0.132   1.172  -0.186  0.00  0.00    +0.234 C 
ATOM      3  O   TYR A  4        0.762   0.863   0.856  0.00  0.00    -0.274 OA
ATOM      4  N   VAL A  5        0.745   1.577  -1.381  0.00  0.00    -0.302 N 
ATOM      5  H   VAL A  5       -0.092   1.611  -2.182  0.00  0.00    +0.150 HD
BRANCH   4   6
ATOM      6  CA  VAL A  5        1.946   1.943  -1.927  0.00  0.00    +0.161 C 
BRANCH   6   7
ATOM      7  C   VAL A  5        3.147   1.637  -1.038  0.00  0.00    +0.234 C 
ATOM      8  O   VAL A  5        2.941   1.800   0.168  0.00  0.00    -0.274 OA
ATOM      9  N   HIS A  6        4.336   1.222  -1.574  0.00  0.00    -0.302 N 
ATOM     10  H   HIS A  6        4.300   1.102  -2.672  0.00  0.00    +0.150 HD
BRANCH   9  11
ATOM     11  CA  HIS A  6        5.598   0.900  -1.067  0.00  0.00    +0.165 C 
BRANCH  11  12
ATOM     12  C   HIS A  6        6.292  -0.193  -1.735  0.00  0.00    +0.237 C 
ATOM     13  N   PRO A  7        7.681  -0.127  -2.030  0.00  0.00    -0.288 N 
ATOM     14  CD  PRO A  7        8.570   0.965  -1.721  0.00  0.00    +0.109 C 
ATOM     15  CG  PRO A  7        9.707   0.869  -2.730  0.00  0.00    +0.021 C 
ATOM     16  CB  PRO A  7        9.409  -0.295  -3.607  0.00  0.00    +0.033 C 
ATOM     17  CA  PRO A  7        8.441  -1.113  -2.734  0.00  0.00    +0.162 C 
ATOM     18  O   HIS A  6        5.683  -1.254  -2.088  0.00  0.00    -0.274 OA
BRANCH  17  19
ATOM     19  C   PRO A  7        9.247  -2.044  -1.964  0.00  0.00    +0.234 C 
ATOM     20  N   PHE A  8        9.681  -1.969  -0.638  0.00  0.00    -0.301 N 
ATOM     21  H   PHE A  8        9.448  -1.165  -0.045  0.00  0.00    +0.150 HD
ATOM     22  O   PRO A  7        9.624  -3.104  -2.604  0.00  0.00    -0.274 OA
BRANCH  20  23
ATOM     23  CA  PHE A  8       10.492  -3.030  -0.032  0.00  0.00    +0.186 C 
BRANCH  23  24
ATOM     24  C   PHE A  8        9.830  -3.439   1.225  0.00  0.00    +0.326 C 
ATOM     25  O   PHE A  8        8.829  -2.903   1.721  0.00  0.00    -0.249 OA
BRANCH  24  26
ATOM     26  OXT PHE A  8       10.413  -4.537   1.885  0.00  0.00    -0.479 OA
ATOM     27  HXT PHE A  8       10.568  -4.504   2.866  0.00  0.00    +0.295 HD
ENDBRANCH  24  26
ENDBRANCH  23  24
BRANCH  23  28
ATOM     28  CB  PHE A  8       11.889  -2.593   0.271  0.00  0.00    +0.069 C 
BRANCH  28  29
ATOM     29  CG  PHE A  8       12.019  -1.462   1.194  0.00  0.00    -0.045 A 
ATOM     30  CD2 PHE A  8       12.092  -1.596   2.555  0.00  0.00    +0.004 A 
ATOM     31  CE2 PHE A  8       12.230  -0.531   3.437  0.00  0.00    +0.000 A 
ATOM     32  CZ  PHE A  8       12.302   0.757   2.910  0.00  0.00    +0.000 A 
ATOM     33  CE1 PHE A  8       12.232   0.908   1.544  0.00  0.00    +0.000 A 
ATOM     34  CD1 PHE A  8       12.095  -0.166   0.702  0.00  0.00    +0.004 A 
ENDBRANCH  28  29
ENDBRANCH  23  28
ENDBRANCH  20  23
ENDBRANCH  17  19
ENDBRANCH  11  12
BRANCH  11  35
ATOM     35  CB  HIS A  6        5.727   0.720   0.436  0.00  0.00    +0.088 C 
BRANCH  35  36
ATOM     36  CG  HIS A  6        5.505   1.958   1.193  0.00  0.00    +0.061 A 
ATOM     37  ND1 HIS A  6        5.364   2.021   2.522  0.00  0.00    -0.241 NA
ATOM     38  CE1 HIS A  6        5.197   3.290   2.929  0.00  0.00    +0.196 A 
ATOM     39  NE2 HIS A  6        5.233   4.067   1.817  0.00  0.00    -0.351 N 
ATOM     40  HE2 HIS A  6        5.124   5.109   1.836  0.00  0.00    +0.166 HD
ATOM     41  CD2 HIS A  6        5.421   3.263   0.750  0.00  0.00    +0.107 A 
ENDBRANCH  35  36
ENDBRANCH  11  35
ENDBRANCH   9  11
ENDBRANCH   6   7
BRANCH   6  42
ATOM     42  CB  VAL A  5        2.044   3.357  -2.426  0.00  0.00    +0.012 C 
ATOM     43  CG2 VAL A  5        1.843   4.360  -1.298  0.00  0.00    +0.009 C 
ATOM     44  CG1 VAL A  5        3.328   3.691  -3.123  0.00  0.00    +0.009 C 
ENDBRANCH   6  42
ENDBRANCH   4   6
ENDBRANCH   1   2
BRANCH   1  46
ATOM     45  C   VAL A  3       -3.331  -0.379  -0.229  0.00  0.00    +0.234 C 
ATOM     46  N   TYR A  4       -2.001  -0.073   0.295  0.00  0.00    -0.302 N 
ATOM     47  H   TYR A  4       -1.591  -0.798   0.938  0.00  0.00    +0.150 HD
ATOM     48  O   VAL A  3       -3.846   0.497  -1.004  0.00  0.00    -0.274 OA
BRANCH  45  49
ATOM     49  CA  VAL A  3       -4.097  -1.585   0.072  0.00  0.00    +0.161 C 
BRANCH  49  52
ATOM     50  C   ARG A  2       -6.530  -1.983   0.383  0.00  0.00    +0.234 C 
ATOM     51  O   ARG A  2       -6.235  -2.505   1.534  0.00  0.00    -0.274 OA
ATOM     52  N   VAL A  3       -5.473  -1.490  -0.396  0.00  0.00    -0.302 N 
ATOM     53  H   VAL A  3       -5.653  -1.038  -1.311  0.00  0.00    +0.150 HD
BRANCH  50  54
ATOM     54  CA  ARG A  2       -7.956  -2.000   0.065  0.00  0.00    +0.159 C 
BRANCH  54  56
ATOM     55  C   ASN A  1       -9.477  -3.984  -0.193  0.00  0.00    +0.231 C 
ATOM     56  N   ARG A  2       -8.526  -3.309   0.583  0.00  0.00    -0.303 N 
ATOM     57  H   ARG A  2       -8.167  -3.625   1.482  0.00  0.00    +0.149 HD
ATOM     58  O   ASN A  1       -9.828  -3.527  -1.303  0.00  0.00    -0.274 OA
BRANCH  55  59
ATOM     59  CA  ASN A  1      -10.091  -5.239   0.284  0.00  0.00    +0.146 C 
BRANCH  59  60
ATOM     60  N   ASN A  1       -9.658  -5.492   1.632  0.00  0.00    -0.320 NA
ATOM     61  H1  ASN A  1       -9.755  -4.619   2.192  0.00  0.00    +0.119 HD
ATOM     62  H2  ASN A  1       -8.695  -5.867   1.700  0.00  0.00    +0.119 HD
ENDBRANCH  59  60
BRANCH  59  63
ATOM     63  CB  ASN A  1      -11.621  -5.120   0.282  0.00  0.00    +0.123 C 
BRANCH  63  64
ATOM     64  CG  ASN A  1      -12.089  -4.025   1.147  0.00  0.00    +0.212 C 
ATOM     65  OD1 ASN A  1      -12.021  -4.160   2.419  0.00  0.00    -0.276 OA
ATOM     66  ND2 ASN A  1      -12.614  -2.821   0.651  0.00  0.00    -0.329 N 
ATOM     67 HD21 ASN A  1      -12.537  -1.935   1.178  0.00  0.00    +0.145 HD
ATOM     68 HD22 ASN A  1      -13.103  -2.788  -0.280  0.00  0.00    +0.145 HD
ENDBRANCH  63  64
ENDBRANCH  59  63
ENDBRANCH  55  59
ENDBRANCH  54  56
BRANCH  54  69
ATOM     69  CB  ARG A  2       -8.769  -1.016   0.866  0.00  0.00    +0.035 C 
BRANCH  69  70
ATOM     70  CG  ARG A  2       -8.609   0.433   0.629  0.00  0.00    +0.039 C 
BRANCH  70  71
ATOM     71  CD  ARG A  2       -9.548   1.142   1.623  0.00  0.00    +0.196 C 
BRANCH  71  72
ATOM     72  NE  ARG A  2       -9.574   2.544   1.413  0.00  0.00    -0.276 N 
ATOM     73  HE  ARG A  2       -9.133   3.177   2.104  0.00  0.00    +0.258 HD
BRANCH  72  74
ATOM     74  CZ  ARG A  2      -10.224   3.082   0.245  0.00  0.00    +0.376 C 
ATOM     75  NH1 ARG A  2      -10.940   2.238  -0.635  0.00  0.00    -0.289 N 
ATOM     76 HH11 ARG A  2      -11.890   1.933  -0.312  0.00  0.00    +0.255 HD
ATOM     77 HH12 ARG A  2      -10.561   1.931  -1.551  0.00  0.00    +0.255 HD
BRANCH  74  78
ATOM     78  NH2 ARG A  2      -10.149   4.354  -0.006  0.00  0.00    -0.130 NA
ATOM     79  HH2 ARG A  2       -9.624   4.960   0.628  0.00  0.00    +0.306 HD
ENDBRANCH  74  78
ENDBRANCH  72  74
ENDBRANCH  71  72
ENDBRANCH  70  71
ENDBRANCH  69  70
ENDBRANCH  54  69
ENDBRANCH  50  54
ENDBRANCH  49  52
BRANCH  49  80
ATOM     80  CB  VAL A  3       -3.417  -2.738  -0.729  0.00  0.00    +0.012 C 
ATOM     81  CG2 VAL A  3       -4.177  -4.022  -0.490  0.00  0.00    +0.009 C 
ATOM     82  CG1 VAL A  3       -3.348  -2.372  -2.192  0.00  0.00    +0.009 C 
ENDBRANCH  49  80
ENDBRANCH  45  49
ENDBRANCH   1  46
BRANCH   1  83
ATOM     83  CB  TYR A  4       -1.667   2.248   0.926  0.00  0.00    +0.067 C 
BRANCH  83  84
ATOM     84  CG  TYR A  4       -3.061   2.693   0.887  0.00  0.00    -0.045 A 
ATOM     85  CD2 TYR A  4       -4.012   2.153   1.697  0.00  0.00    +0.007 A 
ATOM     86  CE2 TYR A  4       -5.342   2.601   1.629  0.00  0.00    +0.045 A 
ATOM     87  CZ  TYR A  4       -5.638   3.576   0.742  0.00  0.00    +0.117 A 
ATOM     88  CE1 TYR A  4       -4.688   4.145  -0.096  0.00  0.00    +0.045 A 
ATOM     89  CD1 TYR A  4       -3.390   3.716  -0.038  0.00  0.00    +0.007 A 
BRANCH  87  90
ATOM     90  OH  TYR A  4       -6.949   4.082   0.601  0.00  0.00    -0.507 OA
ATOM     91  HH  TYR A  4       -7.509   3.589  -0.099  0.00  0.00    +0.292 HD
ENDBRANCH  87  90
ENDBRANCH  83  84
ENDBRANCH   1  83
TORSDOF 33
