REMARK  Name = molecules/JYXACOFERDBGGQ-RHSMWYFYSA-N.pdb
REMARK                            x       y       z     vdW  Elec       q    Type
REMARK                         _______ _______ _______ _____ _____    ______ ____
ROOT
ATOM      1  CA  LIG    1        4.376   0.701  -1.363  0.00  0.00    +0.125 C 
ATOM      2  C   LIG    1        4.590   1.120  -0.118  0.00  0.00    +0.006 C 
ATOM      3  C   LIG    1        3.509   1.168   0.900  0.00  0.00    +0.107 C 
ATOM      4  S   LIG    1        1.860   1.480   0.264  0.00  0.00    -0.131 S 
ATOM      5  C   LIG    1        1.879   1.044  -1.467  0.00  0.00    +0.169 C 
ATOM      6  CA  LIG    1        0.986  -0.138  -1.782  0.00  0.00    +0.191 C 
ATOM      7  C   LIG    1        2.246  -0.665  -2.393  0.00  0.00    +0.244 C 
ATOM      8  O   LIG    1        2.427  -1.625  -3.186  0.00  0.00    -0.273 OA
ATOM      9  N   LIG    1        3.062   0.289  -1.756  0.00  0.00    -0.249 N 
ENDROOT
BRANCH   6  10
ATOM     10  N   LIG    1        0.570  -0.949  -0.682  0.00  0.00    -0.301 N 
ATOM     11  H   LIG    1        1.183  -1.067   0.145  0.00  0.00    +0.150 HD
ATOM     12  C   LIG    1       -0.686  -1.612  -0.691  0.00  0.00    +0.224 C 
ATOM     13  O   LIG    1       -1.483  -1.506  -1.674  0.00  0.00    -0.275 OA
BRANCH  12  14
ATOM     14  C   LIG    1       -1.111  -2.452   0.448  0.00  0.00    +0.172 C 
BRANCH  14  15
ATOM     15  S   LIG    1       -2.795  -3.018   0.193  0.00  0.00    -0.082 S 
BRANCH  15  16
ATOM     16  C   LIG    1       -3.955  -1.693   0.452  0.00  0.00    +0.150 C 
ATOM     17  N   LIG    1       -5.179  -1.952   0.236  0.00  0.00    -0.261 NA
BRANCH  17  18
ATOM     18  C   LIG    1       -6.329  -1.149   0.345  0.00  0.00    +0.102 C 
ATOM     19  C   LIG    1       -7.550  -2.060   0.663  0.00  0.00    +0.032 C 
ATOM     20  C   LIG    1       -6.652  -0.464  -0.952  0.00  0.00    +0.032 C 
ENDBRANCH  17  18
BRANCH  16  21
ATOM     21  N   LIG    1       -3.526  -0.445   0.898  0.00  0.00    -0.322 N 
ATOM     22  H   LIG    1       -2.947  -0.502   1.818  0.00  0.00    +0.148 HD
BRANCH  21  23
ATOM     23  C   LIG    1       -3.703   0.860   0.381  0.00  0.00    +0.066 C 
ATOM     24  C   LIG    1       -2.894   1.844   1.264  0.00  0.00    +0.027 C 
ATOM     25  C   LIG    1       -3.146   1.081  -1.014  0.00  0.00    +0.027 C 
ENDBRANCH  21  23
ENDBRANCH  16  21
ENDBRANCH  15  16
ENDBRANCH  14  15
ENDBRANCH  12  14
ENDBRANCH   6  10
BRANCH   1  26
ATOM     26  C   LIG    1        5.393   0.534  -2.363  0.00  0.00    +0.351 C 
ATOM     27  OXT LIG    1        6.597   0.755  -2.156  0.00  0.00    -0.244 OA
BRANCH  26  28
ATOM     28  O   LIG    1        5.106   0.102  -3.664  0.00  0.00    -0.476 OA
ATOM     29  H   LIG    1        4.955   0.773  -4.414  0.00  0.00    +0.295 HD
ENDBRANCH  26  28
ENDBRANCH   1  26
BRANCH   2  30
ATOM     30  C   LIG    1        5.892   1.656   0.256  0.00  0.00    +0.266 C 
BRANCH  30  31
ATOM     31  O   LIG    1        6.551   0.964   1.236  0.00  0.00    -0.460 OA
BRANCH  31  32
ATOM     32  C   LIG    1        6.438   0.684   2.525  0.00  0.00    +0.304 C 
ATOM     33  C   LIG    1        7.425  -0.182   3.287  0.00  0.00    +0.136 C 
ATOM     34  O   LIG    1        5.479   1.140   3.185  0.00  0.00    -0.251 OA
ENDBRANCH  31  32
ENDBRANCH  30  31
ENDBRANCH   2  30
TORSDOF 12
