REMARK  Name = molecules/JZFPYUNJRRFVQU-UHFFFAOYSA-N.pdb
REMARK                            x       y       z     vdW  Elec       q    Type
REMARK                         _______ _______ _______ _____ _____    ______ ____
ROOT
ATOM      1  N   LIG    1       -0.344   0.244   0.514  0.00  0.00    -0.299 N 
ATOM      2  H   LIG    1       -0.181   0.902   1.321  0.00  0.00    +0.154 HD
ENDROOT
BRANCH   1   3
ATOM      3  C   LIG    1       -1.665   0.016   0.180  0.00  0.00    +0.137 A 
ATOM      4  C   LIG    1       -2.735   0.377   1.036  0.00  0.00    +0.099 A 
ATOM      5  C   LIG    1       -3.990   0.264   0.479  0.00  0.00    +0.020 A 
ATOM      6  C   LIG    1       -4.255  -0.155  -0.804  0.00  0.00    +0.021 A 
ATOM      7  C   LIG    1       -3.164  -0.510  -1.616  0.00  0.00    +0.113 A 
ATOM      8  N   LIG    1       -1.977  -0.388  -1.044  0.00  0.00    -0.239 NA
BRANCH   4   9
ATOM      9  C   LIG    1       -2.586   0.718   2.440  0.00  0.00    +0.340 C 
ATOM     10  O   LIG    1       -3.438   1.047   3.199  0.00  0.00    -0.245 OA
BRANCH   9  11
ATOM     11  O   LIG    1       -1.235   0.604   2.916  0.00  0.00    -0.477 OA
ATOM     12  H   LIG    1       -0.878   1.211   3.645  0.00  0.00    +0.295 HD
ENDBRANCH   9  11
ENDBRANCH   4   9
ENDBRANCH   1   3
BRANCH   1  13
ATOM     13  C   LIG    1        0.844  -0.226  -0.127  0.00  0.00    +0.033 A 
ATOM     14  C   LIG    1        1.997   0.558  -0.001  0.00  0.00    +0.035 A 
ATOM     15  C   LIG    1        3.248   0.149  -0.408  0.00  0.00    +0.057 A 
ATOM     16  C   LIG    1        3.359  -1.100  -0.970  0.00  0.00    +0.012 A 
ATOM     17  C   LIG    1        2.215  -1.900  -1.116  0.00  0.00    +0.002 A 
ATOM     18  C   LIG    1        0.951  -1.449  -0.689  0.00  0.00    +0.023 A 
BRANCH  15  19
ATOM     19  C   LIG    1        4.415   1.046  -0.185  0.00  0.00    +0.417 C 
ATOM     20  F   LIG    1        4.718   1.113   1.139  0.00  0.00    -0.166 F 
ATOM     21  F   LIG    1        4.062   2.348  -0.587  0.00  0.00    -0.166 F 
ATOM     22  F   LIG    1        5.491   0.587  -0.890  0.00  0.00    -0.166 F 
ENDBRANCH  15  19
ENDBRANCH   1  13
TORSDOF 5
