REMARK  Name = molecules/JZUFKLXOESDKRF-UHFFFAOYSA-N.pdb
REMARK                            x       y       z     vdW  Elec       q    Type
REMARK                         _______ _______ _______ _____ _____    ______ ____
ROOT
ATOM      1  C   LIG    1        1.726  -0.299  -0.094  0.00  0.00    +0.125 A 
ATOM      2  C   LIG    1        1.304  -1.211   0.852  0.00  0.00    +0.069 A 
ATOM      3 CL   LIG    1        2.533  -2.134   1.694  0.00  0.00    -0.081 Cl
ATOM      4  C   LIG    1       -0.050  -1.383   1.119  0.00  0.00    +0.047 A 
ATOM      5  C   LIG    1       -1.015  -0.641   0.441  0.00  0.00    +0.056 A 
ATOM      6  N   LIG    1       -2.389  -0.807   0.704  0.00  0.00    -0.328 N 
ATOM      7  H   LIG    1       -2.622  -1.535   1.445  0.00  0.00    +0.147 HD
ATOM      8  C   LIG    1       -3.471  -0.129   0.104  0.00  0.00    +0.209 C 
ATOM      9  N   LIG    1       -3.245   1.069  -0.572  0.00  0.00    -0.173 NA
ATOM     10  H   LIG    1       -3.627   1.934  -0.175  0.00  0.00    +0.150 HD
ATOM     11  S   LIG    1       -1.757   1.226  -1.383  0.00  0.00    +0.062 S 
ATOM     12  O   LIG    1       -1.295   2.625  -1.552  0.00  0.00    -0.153 OA
ATOM     13  O   LIG    1       -1.878   0.574  -2.747  0.00  0.00    -0.153 OA
ATOM     14  C   LIG    1       -0.588   0.250  -0.484  0.00  0.00    +0.128 A 
ATOM     15  C   LIG    1        0.722   0.423  -0.750  0.00  0.00    +0.060 A 
ENDROOT
BRANCH   1  16
ATOM     16  S   LIG    1        3.418  -0.048  -0.464  0.00  0.00    +0.057 S 
ATOM     17  O   LIG    1        4.004  -1.353  -0.948  0.00  0.00    -0.153 OA
ATOM     18  O   LIG    1        3.531   0.993  -1.523  0.00  0.00    -0.153 OA
BRANCH  16  19
ATOM     19  N   LIG    1        4.275   0.470   0.938  0.00  0.00    -0.203 NA
ATOM     20  H   LIG    1        3.679   0.206   1.763  0.00  0.00    +0.144 HD
ATOM     21  H   LIG    1        4.278   1.525   0.937  0.00  0.00    +0.144 HD
ENDBRANCH  16  19
ENDBRANCH   1  16
TORSDOF 2
