REMARK  Name = molecules/KAJZGRFYZKWYDX-UHFFFAOYSA-N.pdb
REMARK                            x       y       z     vdW  Elec       q    Type
REMARK                         _______ _______ _______ _____ _____    ______ ____
ROOT
ATOM      1  C   LIG    1        0.029  -0.159  -1.067  0.00  0.00    +0.007 C 
ATOM      2  C   LIG    1        0.972  -0.417  -0.231  0.00  0.00    -0.063 C 
ATOM      3  C   LIG    1        0.721  -0.556   1.223  0.00  0.00    +0.039 C 
ENDROOT
BRANCH   1   4
ATOM      4  C   LIG    1       -1.389   0.032  -0.830  0.00  0.00    -0.025 A 
ATOM      5  C   LIG    1       -2.114  -0.757   0.026  0.00  0.00    +0.008 A 
ATOM      6  C   LIG    1       -3.483  -0.544   0.237  0.00  0.00    +0.001 A 
ATOM      7  C   LIG    1       -4.159   0.465  -0.405  0.00  0.00    +0.000 A 
ATOM      8  C   LIG    1       -3.434   1.261  -1.267  0.00  0.00    +0.001 A 
ATOM      9  C   LIG    1       -2.088   1.052  -1.474  0.00  0.00    +0.008 A 
ENDBRANCH   1   4
BRANCH   2  10
ATOM     10  C   LIG    1        2.367  -0.575  -0.706  0.00  0.00    +0.126 C 
BRANCH  10  11
ATOM     11  C   LIG    1        3.315   0.390  -0.128  0.00  0.00    +0.214 C 
ATOM     12  O   LIG    1        2.915   1.275   0.668  0.00  0.00    -0.276 OA
ATOM     13  N   LIG    1        4.666   0.301  -0.480  0.00  0.00    -0.329 N 
ATOM     14  H   LIG    1        5.396  -0.165   0.117  0.00  0.00    +0.145 HD
ATOM     15  H   LIG    1        4.968   0.723  -1.395  0.00  0.00    +0.145 HD
ENDBRANCH  10  11
ENDBRANCH   2  10
TORSDOF 3
