REMARK  Name = molecules/KANJSNBRCNMZMV-ABRZTLGGSA-N.pdb
REMARK                            x       y       z     vdW  Elec       q    Type
REMARK                         _______ _______ _______ _____ _____    ______ ____
ROOT
ATOM      1  C   LIG    1        1.838  -0.891  -0.459  0.00  0.00    +0.185 C 
ATOM      2  C   LIG    1        0.870  -0.719   0.712  0.00  0.00    +0.206 C 
ATOM      3  C   LIG    1       -0.308  -1.621   0.383  0.00  0.00    +0.168 C 
ATOM      4  C   LIG    1       -1.038  -0.948  -0.747  0.00  0.00    +0.272 C 
ATOM      5  O   LIG    1       -0.210  -0.039  -1.424  0.00  0.00    -0.341 OA
ATOM      6  C   LIG    1        1.061  -0.481  -1.683  0.00  0.00    +0.181 C 
ENDROOT
BRANCH   3   7
ATOM      7  N   LIG    1       -1.189  -1.770   1.517  0.00  0.00    -0.159 NA
ATOM      8  H   LIG    1       -0.875  -1.208   2.342  0.00  0.00    +0.151 HD
BRANCH   7   9
ATOM      9  S   LIG    1       -1.376  -3.440   1.924  0.00  0.00    +0.149 S 
ATOM     10  O   LIG    1       -1.483  -3.533   3.427  0.00  0.00    -0.130 OA
ATOM     11  O   LIG    1       -0.073  -4.145   1.561  0.00  0.00    -0.130 OA
BRANCH   9  12
ATOM     12  O   LIG    1       -2.633  -4.177   1.134  0.00  0.00    -0.240 OA
ATOM     13  H   LIG    1       -3.243  -4.600   1.813  0.00  0.00    +0.246 HD
ENDBRANCH   9  12
ENDBRANCH   7   9
ENDBRANCH   3   7
BRANCH   6  14
ATOM     14  C   LIG    1        1.071  -1.459  -2.805  0.00  0.00    +0.230 C 
BRANCH  14  15
ATOM     15  O   LIG    1        0.316  -2.583  -2.609  0.00  0.00    -0.213 OA
BRANCH  15  16
ATOM     16  S   LIG    1        0.387  -3.633  -3.921  0.00  0.00    +0.208 S 
ATOM     17  O   LIG    1        1.725  -3.507  -4.598  0.00  0.00    -0.118 OA
ATOM     18  O   LIG    1       -0.670  -3.242  -4.913  0.00  0.00    -0.118 OA
BRANCH  16  19
ATOM     19  O   LIG    1        0.158  -5.223  -3.492  0.00  0.00    -0.231 OA
ATOM     20  H   LIG    1        0.905  -5.792  -3.830  0.00  0.00    +0.247 HD
ENDBRANCH  16  19
ENDBRANCH  15  16
ENDBRANCH  14  15
ENDBRANCH   6  14
BRANCH   1  21
ATOM     21  O   LIG    1        2.902  -0.045  -0.197  0.00  0.00    -0.340 OA
BRANCH  21  22
ATOM     22  C   LIG    1        4.102  -0.668   0.014  0.00  0.00    +0.283 C 
ATOM     23  O   LIG    1        4.674  -0.357   1.218  0.00  0.00    -0.331 OA
ATOM     24  C   LIG    1        5.935  -0.846   1.447  0.00  0.00    +0.260 C 
ATOM     25  C   LIG    1        6.903  -0.592   0.354  0.00  0.00    +0.192 C 
ATOM     26  C   LIG    1        6.321  -1.189  -0.924  0.00  0.00    +0.180 C 
ATOM     27  C   LIG    1        5.034  -0.356  -1.143  0.00  0.00    +0.201 C 
BRANCH  26  28
ATOM     28  O   LIG    1        7.109  -0.897  -2.030  0.00  0.00    -0.386 OA
ATOM     29  H   LIG    1        6.813  -1.461  -2.783  0.00  0.00    +0.210 HD
ENDBRANCH  26  28
BRANCH  27  30
ATOM     30  O   LIG    1        4.517  -0.800  -2.346  0.00  0.00    -0.384 OA
ATOM     31  H   LIG    1        4.672  -0.186  -3.099  0.00  0.00    +0.210 HD
ENDBRANCH  27  30
BRANCH  24  32
ATOM     32  C   LIG    1        6.452  -0.370   2.777  0.00  0.00    +0.337 C 
ATOM     33  O   LIG    1        5.720   0.448   3.446  0.00  0.00    -0.248 OA
BRANCH  32  34
ATOM     34  O   LIG    1        7.636  -0.753   3.306  0.00  0.00    -0.479 OA
ATOM     35  H   LIG    1        7.750  -1.457   4.020  0.00  0.00    +0.295 HD
ENDBRANCH  32  34
ENDBRANCH  24  32
BRANCH  25  36
ATOM     36  O   LIG    1        8.201  -0.920   0.609  0.00  0.00    -0.341 OA
BRANCH  36  37
ATOM     37  C   LIG    1        9.114   0.082   0.361  0.00  0.00    +0.272 C 
ATOM     38  O   LIG    1        9.813   0.349   1.531  0.00  0.00    -0.341 OA
ATOM     39  C   LIG    1       10.638   1.443   1.478  0.00  0.00    +0.180 C 
ATOM     40  C   LIG    1       11.523   1.534   0.281  0.00  0.00    +0.176 C 
ATOM     41  C   LIG    1       10.958   0.917  -0.968  0.00  0.00    +0.169 C 
ATOM     42  C   LIG    1       10.195  -0.375  -0.634  0.00  0.00    +0.165 C 
BRANCH  40  43
ATOM     43  O   LIG    1       12.783   0.982   0.517  0.00  0.00    -0.387 OA
ATOM     44  H   LIG    1       13.075   1.088   1.446  0.00  0.00    +0.210 HD
ENDBRANCH  40  43
BRANCH  41  45
ATOM     45  O   LIG    1       10.065   1.813  -1.557  0.00  0.00    -0.387 OA
ATOM     46  H   LIG    1       10.012   1.618  -2.545  0.00  0.00    +0.210 HD
ENDBRANCH  41  45
BRANCH  42  47
ATOM     47  N   LIG    1       11.151  -1.232   0.026  0.00  0.00    -0.160 NA
ATOM     48  H   LIG    1       10.798  -1.453   0.980  0.00  0.00    +0.151 HD
BRANCH  47  49
ATOM     49  S   LIG    1       11.444  -2.691  -0.806  0.00  0.00    +0.149 S 
ATOM     50  O   LIG    1       11.879  -3.716   0.233  0.00  0.00    -0.130 OA
ATOM     51  O   LIG    1       10.248  -3.242  -1.488  0.00  0.00    -0.130 OA
BRANCH  49  52
ATOM     52  O   LIG    1       12.709  -2.581  -1.903  0.00  0.00    -0.240 OA
ATOM     53  H   LIG    1       12.495  -2.910  -2.795  0.00  0.00    +0.246 HD
ENDBRANCH  49  52
ENDBRANCH  47  49
ENDBRANCH  42  47
BRANCH  39  54
ATOM     54  C   LIG    1        9.819   2.697   1.698  0.00  0.00    +0.230 C 
BRANCH  54  55
ATOM     55  O   LIG    1       10.685   3.812   1.645  0.00  0.00    -0.213 OA
BRANCH  55  56
ATOM     56  S   LIG    1        9.788   5.215   1.880  0.00  0.00    +0.208 S 
ATOM     57  O   LIG    1        9.328   5.304   3.286  0.00  0.00    -0.118 OA
ATOM     58  O   LIG    1       10.694   6.377   1.572  0.00  0.00    -0.118 OA
BRANCH  56  59
ATOM     59  O   LIG    1        8.442   5.197   0.852  0.00  0.00    -0.231 OA
ATOM     60  H   LIG    1        8.700   4.682   0.059  0.00  0.00    +0.247 HD
ENDBRANCH  56  59
ENDBRANCH  55  56
ENDBRANCH  54  55
ENDBRANCH  39  54
ENDBRANCH  36  37
ENDBRANCH  25  36
ENDBRANCH  21  22
ENDBRANCH   1  21
BRANCH   2  61
ATOM     61  O   LIG    1        1.410  -0.956   1.932  0.00  0.00    -0.208 OA
BRANCH  61  62
ATOM     62  S   LIG    1        1.269   0.218   3.077  0.00  0.00    +0.208 S 
ATOM     63  O   LIG    1        2.638   0.754   3.398  0.00  0.00    -0.118 OA
ATOM     64  O   LIG    1        0.471   1.396   2.551  0.00  0.00    -0.118 OA
BRANCH  62  65
ATOM     65  O   LIG    1        0.622  -0.349   4.521  0.00  0.00    -0.231 OA
ATOM     66  H   LIG    1        0.932  -1.276   4.669  0.00  0.00    +0.247 HD
ENDBRANCH  62  65
ENDBRANCH  61  62
ENDBRANCH   2  61
BRANCH   4  67
ATOM     67  O   LIG    1       -2.111  -0.139  -0.288  0.00  0.00    -0.341 OA
BRANCH  67  68
ATOM     68  C   LIG    1       -3.261  -0.386  -0.998  0.00  0.00    +0.192 C 
ATOM     69  C   LIG    1       -4.273  -1.055  -0.101  0.00  0.00    +0.182 C 
ATOM     70  C   LIG    1       -5.167   0.055   0.467  0.00  0.00    +0.238 C 
ATOM     71  C   LIG    1       -5.917   0.748  -0.641  0.00  0.00    +0.285 C 
ATOM     72  O   LIG    1       -5.194   0.831  -1.829  0.00  0.00    -0.331 OA
ATOM     73  C   LIG    1       -3.832   0.845  -1.657  0.00  0.00    +0.260 C 
BRANCH  69  74
ATOM     74  O   LIG    1       -5.135  -1.881  -0.833  0.00  0.00    -0.386 OA
ATOM     75  H   LIG    1       -5.115  -1.550  -1.766  0.00  0.00    +0.210 HD
ENDBRANCH  69  74
BRANCH  73  76
ATOM     76  C   LIG    1       -3.336   2.123  -1.098  0.00  0.00    +0.337 C 
ATOM     77  O   LIG    1       -4.127   3.098  -0.869  0.00  0.00    -0.248 OA
BRANCH  76  78
ATOM     78  O   LIG    1       -2.013   2.364  -0.787  0.00  0.00    -0.479 OA
ATOM     79  H   LIG    1       -1.621   3.297  -0.730  0.00  0.00    +0.295 HD
ENDBRANCH  76  78
ENDBRANCH  73  76
BRANCH  71  80
ATOM     80  O   LIG    1       -7.080   0.065  -0.888  0.00  0.00    -0.340 OA
BRANCH  80  81
ATOM     81  C   LIG    1       -8.235   0.822  -0.604  0.00  0.00    +0.183 C 
ATOM     82  C   LIG    1       -9.032   0.110   0.404  0.00  0.00    +0.181 C 
ATOM     83  O   LIG    1      -10.325  -0.203   0.165  0.00  0.00    -0.341 OA
ATOM     84  C   LIG    1      -10.806  -0.167  -1.107  0.00  0.00    +0.271 C 
ATOM     85  C   LIG    1      -10.389   1.187  -1.687  0.00  0.00    +0.165 C 
ATOM     86  C   LIG    1       -8.897   1.004  -1.966  0.00  0.00    +0.169 C 
BRANCH  85  87
ATOM     87  N   LIG    1      -11.133   1.557  -2.849  0.00  0.00    -0.160 NA
ATOM     88  H   LIG    1      -10.453   1.716  -3.624  0.00  0.00    +0.151 HD
BRANCH  87  89
ATOM     89  S   LIG    1      -11.868   3.107  -2.524  0.00  0.00    +0.149 S 
ATOM     90  O   LIG    1      -11.021   3.930  -1.600  0.00  0.00    -0.130 OA
ATOM     91  O   LIG    1      -12.091   3.858  -3.808  0.00  0.00    -0.130 OA
BRANCH  89  92
ATOM     92  O   LIG    1      -13.374   2.914  -1.807  0.00  0.00    -0.240 OA
ATOM     93  H   LIG    1      -13.466   3.462  -0.976  0.00  0.00    +0.246 HD
ENDBRANCH  89  92
ENDBRANCH  87  89
ENDBRANCH  85  87
BRANCH  84  94
ATOM     94  O   LIG    1      -10.284  -1.174  -1.919  0.00  0.00    -0.353 OA
ATOM     95  C   LIG    1      -11.281  -1.988  -2.458  0.00  0.00    +0.197 C 
ENDBRANCH  84  94
BRANCH  86  96
ATOM     96  O   LIG    1       -8.456   2.178  -2.551  0.00  0.00    -0.387 OA
ATOM     97  H   LIG    1       -8.040   2.012  -3.456  0.00  0.00    +0.210 HD
ENDBRANCH  86  96
BRANCH  82  98
ATOM     98  C   LIG    1       -9.051   0.964   1.700  0.00  0.00    +0.230 C 
BRANCH  98  99
ATOM     99  O   LIG    1       -9.603   0.179   2.711  0.00  0.00    -0.213 OA
BRANCH  99 100
ATOM    100  S   LIG    1       -9.692   0.972   4.162  0.00  0.00    +0.208 S 
ATOM    101  O   LIG    1       -9.773  -0.016   5.314  0.00  0.00    -0.118 OA
ATOM    102  O   LIG    1       -8.548   1.874   4.425  0.00  0.00    -0.118 OA
BRANCH 100 103
ATOM    103  O   LIG    1      -11.147   1.836   4.212  0.00  0.00    -0.231 OA
ATOM    104  H   LIG    1      -11.865   1.239   3.860  0.00  0.00    +0.247 HD
ENDBRANCH 100 103
ENDBRANCH  99 100
ENDBRANCH  98  99
ENDBRANCH  82  98
ENDBRANCH  80  81
ENDBRANCH  71  80
BRANCH  70 105
ATOM    105  O   LIG    1       -4.419   0.922   1.252  0.00  0.00    -0.205 OA
BRANCH 105 106
ATOM    106  S   LIG    1       -4.864   0.830   2.860  0.00  0.00    +0.208 S 
ATOM    107  O   LIG    1       -3.660   0.766   3.757  0.00  0.00    -0.118 OA
ATOM    108  O   LIG    1       -5.708   2.042   3.232  0.00  0.00    -0.118 OA
BRANCH 106 109
ATOM    109  O   LIG    1       -5.822  -0.508   3.186  0.00  0.00    -0.231 OA
ATOM    110  H   LIG    1       -5.323  -1.243   3.608  0.00  0.00    +0.247 HD
ENDBRANCH 106 109
ENDBRANCH 105 106
ENDBRANCH  70 105
ENDBRANCH  67  68
ENDBRANCH   4  67
TORSDOF 46
