REMARK  Name = molecules/KAQKFAOMNZTLHT-OZUDYXHBSA-N.pdb
REMARK                            x       y       z     vdW  Elec       q    Type
REMARK                         _______ _______ _______ _____ _____    ______ ____
ROOT
ATOM      1  C   LIG    1       -0.302  -0.080   0.512  0.00  0.00    +0.047 C 
ATOM      2  C   LIG    1        1.059   0.528   0.372  0.00  0.00    +0.046 C 
ATOM      3  C   LIG    1        2.174  -0.236   0.992  0.00  0.00    +0.081 C 
ATOM      4  C   LIG    1        3.292  -0.032   0.002  0.00  0.00    +0.095 C 
ATOM      5  C   LIG    1        4.582  -0.176   0.211  0.00  0.00    +0.014 C 
ATOM      6  O   LIG    1        2.716   0.346  -1.208  0.00  0.00    -0.493 OA
ATOM      7  C   LIG    1        1.318   0.320  -1.119  0.00  0.00    +0.180 C 
ATOM      8  C   LIG    1        0.732  -1.041  -1.423  0.00  0.00    +0.076 C 
ATOM      9  C   LIG    1       -0.222  -1.360  -0.292  0.00  0.00    +0.125 C 
ENDROOT
BRANCH   1  10
ATOM     10  C   LIG    1       -1.260   0.804  -0.208  0.00  0.00    -0.022 C 
ATOM     11  C   LIG    1       -2.390   1.273   0.357  0.00  0.00    -0.000 C 
BRANCH  11  12
ATOM     12  C   LIG    1       -3.317   2.147  -0.393  0.00  0.00    +0.137 C 
BRANCH  12  13
ATOM     13  O   LIG    1       -3.013   2.180  -1.758  0.00  0.00    -0.388 OA
ATOM     14  H   LIG    1       -3.015   1.223  -2.055  0.00  0.00    +0.210 HD
ENDBRANCH  12  13
BRANCH  12  15
ATOM     15  C   LIG    1       -4.721   1.501  -0.327  0.00  0.00    +0.035 C 
BRANCH  15  16
ATOM     16  C   LIG    1       -5.195   1.385   1.076  0.00  0.00    +0.003 C 
BRANCH  16  17
ATOM     17  C   LIG    1       -6.561   0.847   1.219  0.00  0.00    -0.000 C 
BRANCH  17  18
ATOM     18  C   LIG    1       -6.782  -0.520   0.731  0.00  0.00    -0.003 C 
ATOM     19  C   LIG    1       -6.631  -0.793  -0.724  0.00  0.00    +0.004 C 
ENDBRANCH  17  18
ENDBRANCH  16  17
ENDBRANCH  15  16
ENDBRANCH  12  15
ENDBRANCH  11  12
ENDBRANCH   1  10
BRANCH   9  20
ATOM     20  O   LIG    1        0.133  -2.466   0.434  0.00  0.00    -0.391 OA
ATOM     21  H   LIG    1       -0.475  -2.557   1.192  0.00  0.00    +0.210 HD
ENDBRANCH   9  20
BRANCH   5  22
ATOM     22  C   LIG    1        5.526   0.072  -0.892  0.00  0.00    +0.031 C 
BRANCH  22  23
ATOM     23  C   LIG    1        6.357  -1.117  -1.265  0.00  0.00    +0.015 C 
BRANCH  23  24
ATOM     24  C   LIG    1        7.203  -1.651  -0.164  0.00  0.00    +0.121 C 
BRANCH  24  25
ATOM     25  C   LIG    1        8.193  -0.696   0.376  0.00  0.00    +0.305 C 
ATOM     26  O   LIG    1        8.927  -1.038   1.369  0.00  0.00    -0.251 OA
BRANCH  25  27
ATOM     27  O   LIG    1        8.402   0.570  -0.115  0.00  0.00    -0.481 OA
ATOM     28  H   LIG    1        8.343   1.425   0.438  0.00  0.00    +0.295 HD
ENDBRANCH  25  27
ENDBRANCH  24  25
ENDBRANCH  23  24
ENDBRANCH  22  23
ENDBRANCH   5  22
TORSDOF 13
