REMARK  Name = molecules/KASDHRXLYQOAKZ-OLHLVPFQSA-N.pdb
REMARK                            x       y       z     vdW  Elec       q    Type
REMARK                         _______ _______ _______ _____ _____    ______ ____
ROOT
ATOM      1  C   LIG    1       -5.587  -1.317   1.331  0.00  0.00    +0.150 C 
ATOM      2  C   LIG    1       -5.202  -2.342   2.421  0.00  0.00    +0.043 C 
ATOM      3  C   LIG    1       -4.355  -3.433   1.851  0.00  0.00    +0.056 C 
ATOM      4  C   LIG    1       -3.103  -2.874   1.163  0.00  0.00    +0.240 C 
ATOM      5  C   LIG    1       -1.897  -3.319   1.893  0.00  0.00    +0.276 C 
ATOM      6  O   LIG    1       -1.786  -2.845   3.081  0.00  0.00    -0.281 OA
ATOM      7  C   LIG    1       -0.849  -4.211   1.438  0.00  0.00    +0.288 C 
ATOM      8  O   LIG    1       -0.765  -5.379   2.050  0.00  0.00    -0.267 OA
ATOM      9  N   LIG    1        0.109  -3.997   0.415  0.00  0.00    -0.282 N 
ATOM     10  C   LIG    1        1.037  -2.915   0.284  0.00  0.00    +0.185 C 
ATOM     11  C   LIG    1        0.503  -1.635  -0.234  0.00  0.00    +0.328 C 
ATOM     12  O   LIG    1        1.321  -0.562  -0.201  0.00  0.00    -0.455 OA
ATOM     13  C   LIG    1        2.241   0.041  -1.027  0.00  0.00    +0.207 C 
ATOM     14  C   LIG    1        1.531   1.183  -1.726  0.00  0.00    +0.060 C 
ATOM     15  C   LIG    1        0.524   1.809  -0.872  0.00  0.00    +0.128 C 
ATOM     16  C   LIG    1        0.707   3.270  -0.565  0.00  0.00    +0.106 C 
ATOM     17  C   LIG    1       -0.397   4.115  -1.096  0.00  0.00    +0.139 C 
ATOM     18  C   LIG    1       -1.012   5.211  -0.347  0.00  0.00    +0.059 C 
ATOM     19  C   LIG    1       -2.483   5.183  -0.267  0.00  0.00    +0.010 C 
ATOM     20  C   LIG    1       -3.284   4.186  -0.535  0.00  0.00    -0.022 C 
ATOM     21  C   LIG    1       -2.988   2.764  -0.150  0.00  0.00    +0.011 C 
ATOM     22  C   LIG    1       -4.026   2.212   0.815  0.00  0.00    -0.011 C 
ATOM     23  C   LIG    1       -3.302   1.511   1.929  0.00  0.00    +0.007 C 
ATOM     24  C   LIG    1       -4.940   1.255   0.093  0.00  0.00    +0.037 C 
ATOM     25  C   LIG    1       -4.310   0.026  -0.414  0.00  0.00    +0.149 C 
ATOM     26  C   LIG    1       -4.573   4.405  -1.259  0.00  0.00    +0.012 C 
ATOM     27  O   LIG    1       -0.779   3.836  -2.238  0.00  0.00    -0.297 OA
ATOM     28  C   LIG    1        2.460   2.067  -2.486  0.00  0.00    +0.014 C 
ATOM     29  O   LIG    1       -0.685  -1.691  -0.656  0.00  0.00    -0.249 OA
ATOM     30  C   LIG    1        2.153  -3.418  -0.645  0.00  0.00    +0.034 C 
ATOM     31  C   LIG    1        1.612  -3.611  -2.041  0.00  0.00    +0.004 C 
ATOM     32  C   LIG    1        0.337  -4.402  -1.988  0.00  0.00    +0.019 C 
ATOM     33  C   LIG    1        0.210  -5.028  -0.622  0.00  0.00    +0.109 C 
ATOM     34  O   LIG    1       -3.266  -1.492   1.137  0.00  0.00    -0.334 OA
ATOM     35  C   LIG    1       -5.099  -4.399   0.974  0.00  0.00    +0.013 C 
ATOM     36  C   LIG    1       -4.429  -1.218   0.414  0.00  0.00    +0.179 C 
ENDROOT
BRANCH  13  37
ATOM     37  C   LIG    1        3.480   0.450  -0.336  0.00  0.00    -0.036 C 
ATOM     38  C   LIG    1        3.604   1.455   0.743  0.00  0.00    +0.042 C 
ATOM     39  C   LIG    1        4.605  -0.140  -0.712  0.00  0.00    -0.021 C 
BRANCH  39  40
ATOM     40  C   LIG    1        5.936   0.189  -0.085  0.00  0.00    +0.014 C 
ATOM     41  C   LIG    1        6.548  -1.120   0.441  0.00  0.00    +0.040 C 
ATOM     42  C   LIG    1        8.024  -0.899   0.658  0.00  0.00    +0.136 C 
ATOM     43  C   LIG    1        8.680  -0.986  -0.715  0.00  0.00    +0.109 C 
ATOM     44 CL   LIG    1        8.805  -2.715  -1.121  0.00  0.00    -0.119 Cl
ATOM     45  C   LIG    1        7.763  -0.349  -1.724  0.00  0.00    +0.022 C 
ATOM     46  C   LIG    1        6.875   0.713  -1.133  0.00  0.00    +0.009 C 
BRANCH  42  47
ATOM     47  O   LIG    1        8.514  -1.872   1.522  0.00  0.00    -0.378 OA
ATOM     48  C   LIG    1        9.137  -1.310   2.625  0.00  0.00    +0.194 C 
ENDBRANCH  42  47
ENDBRANCH  39  40
ENDBRANCH  13  37
BRANCH   1  49
ATOM     49  O   LIG    1       -6.709  -1.915   0.721  0.00  0.00    -0.377 OA
ATOM     50  C   LIG    1       -7.843  -1.212   1.031  0.00  0.00    +0.194 C 
ENDBRANCH   1  49
BRANCH  15  51
ATOM     51  O   LIG    1        0.249   1.104   0.299  0.00  0.00    -0.391 OA
ATOM     52  H   LIG    1        0.193   1.672   1.098  0.00  0.00    +0.210 HD
ENDBRANCH  15  51
BRANCH  18  53
ATOM     53  C   LIG    1       -0.481   5.239   1.071  0.00  0.00    +0.008 C 
ATOM     54  C   LIG    1       -0.997   6.483   1.805  0.00  0.00    +0.004 C 
ENDBRANCH  18  53
BRANCH  25  55
ATOM     55  O   LIG    1       -4.813  -0.247  -1.716  0.00  0.00    -0.377 OA
ATOM     56  C   LIG    1       -3.855  -0.246  -2.687  0.00  0.00    +0.194 C 
ENDBRANCH  25  55
BRANCH   4  57
ATOM     57  O   LIG    1       -3.173  -3.325  -0.143  0.00  0.00    -0.358 OA
ATOM     58  H   LIG    1       -2.459  -3.924  -0.413  0.00  0.00    +0.213 HD
ENDBRANCH   4  57
TORSDOF 8
