REMARK  Name = molecules/KBFBRIPYVVGWRS-OAHLLOKOSA-N.pdb
REMARK                            x       y       z     vdW  Elec       q    Type
REMARK                         _______ _______ _______ _____ _____    ______ ____
ROOT
ATOM      1  C   LIG    1       -0.966   0.141  -1.447  0.00  0.00    +0.210 C 
ENDROOT
BRANCH   1   2
ATOM      2  C   LIG    1        0.361   0.103  -0.807  0.00  0.00    +0.139 A 
ATOM      3  C   LIG    1        0.673  -0.316   0.467  0.00  0.00    +0.056 A 
ATOM      4  C   LIG    1        2.030  -0.166   0.605  0.00  0.00    +0.021 A 
ATOM      5  C   LIG    1        2.957  -0.391   1.596  0.00  0.00    +0.011 A 
ATOM      6  C   LIG    1        4.292  -0.125   1.406  0.00  0.00    +0.001 A 
ATOM      7  C   LIG    1        4.744   0.380   0.209  0.00  0.00    +0.004 A 
ATOM      8  C   LIG    1        3.821   0.607  -0.786  0.00  0.00    +0.047 A 
ATOM      9  C   LIG    1        2.484   0.339  -0.594  0.00  0.00    +0.135 A 
ATOM     10  O   LIG    1        1.471   0.481  -1.392  0.00  0.00    -0.457 OA
ENDBRANCH   1   2
BRANCH   1  11
ATOM     11  C   LIG    1       -2.068  -0.070  -0.476  0.00  0.00    -0.012 A 
ATOM     12  C   LIG    1       -2.483   0.913   0.395  0.00  0.00    +0.008 A 
ATOM     13  C   LIG    1       -3.516   0.706   1.299  0.00  0.00    +0.020 A 
ATOM     14  C   LIG    1       -4.172  -0.505   1.359  0.00  0.00    +0.041 A 
ATOM     15 CL   LIG    1       -5.478  -0.803   2.486  0.00  0.00    -0.084 Cl
ATOM     16  C   LIG    1       -3.764  -1.497   0.491  0.00  0.00    +0.020 A 
ATOM     17  C   LIG    1       -2.728  -1.278  -0.410  0.00  0.00    +0.008 A 
ENDBRANCH   1  11
BRANCH   1  18
ATOM     18  O   LIG    1       -1.088   1.375  -2.098  0.00  0.00    -0.379 OA
ATOM     19  H   LIG    1       -0.664   2.095  -1.557  0.00  0.00    +0.211 HD
ENDBRANCH   1  18
TORSDOF 3
