REMARK  Name = molecules/KBHMHROOFHVLBA-SECBINFHSA-N.pdb
REMARK                            x       y       z     vdW  Elec       q    Type
REMARK                         _______ _______ _______ _____ _____    ______ ____
ROOT
ATOM      1  C   LIG    1        0.032  -0.180  -1.257  0.00  0.00    +0.182 C 
ATOM      2  O   LIG    1        0.080  -0.259  -2.551  0.00  0.00    -0.217 OA
ENDROOT
BRANCH   1   3
ATOM      3  C   LIG    1        1.294   0.053  -0.612  0.00  0.00    -0.008 A 
ATOM      4  C   LIG    1        1.476   0.083   0.747  0.00  0.00    +0.007 A 
ATOM      5  C   LIG    1        2.687   0.326   1.367  0.00  0.00    +0.000 A 
ATOM      6  C   LIG    1        3.801   0.555   0.615  0.00  0.00    +0.000 A 
ATOM      7  C   LIG    1        3.668   0.533  -0.757  0.00  0.00    +0.000 A 
ATOM      8  C   LIG    1        2.449   0.289  -1.351  0.00  0.00    +0.007 A 
ENDBRANCH   1   3
BRANCH   1   9
ATOM      9  C   LIG    1       -1.298  -0.347  -0.747  0.00  0.00    +0.096 C 
ATOM     10  C   LIG    1       -1.648  -1.838  -0.910  0.00  0.00    +0.027 C 
BRANCH   9  11
ATOM     11  N   LIG    1       -1.649   0.059   0.548  0.00  0.00    -0.302 NA
ATOM     12  C   LIG    1       -2.898  -0.416   1.066  0.00  0.00    +0.105 C 
ATOM     13  C   LIG    1       -1.582   1.488   0.795  0.00  0.00    +0.105 C 
ENDBRANCH   9  11
ENDBRANCH   1   9
TORSDOF 3
