REMARK  Name = molecules/KBOPZPXVLCULAV-UHFFFAOYSA-N.pdb
REMARK                            x       y       z     vdW  Elec       q    Type
REMARK                         _______ _______ _______ _____ _____    ______ ____
ROOT
ATOM      1  C   LIG    1        1.512   0.163   0.024  0.00  0.00    +0.026 A 
ATOM      2  C   LIG    1        1.525  -1.180   0.312  0.00  0.00    +0.026 A 
ATOM      3  C   LIG    1        0.343  -1.841   0.445  0.00  0.00    +0.048 A 
ATOM      4  C   LIG    1       -0.893  -1.210   0.300  0.00  0.00    +0.131 A 
ATOM      5  C   LIG    1       -0.907   0.122   0.015  0.00  0.00    +0.102 A 
ATOM      6  C   LIG    1        0.315   0.804  -0.122  0.00  0.00    +0.041 A 
ENDROOT
BRANCH   1   7
ATOM      7  N   LIG    1        2.752   0.857  -0.115  0.00  0.00    -0.358 N 
ATOM      8  H   LIG    1        2.794   1.875   0.045  0.00  0.00    +0.142 HD
ATOM      9  H   LIG    1        3.608   0.326  -0.378  0.00  0.00    +0.142 HD
ENDBRANCH   1   7
BRANCH   4  10
ATOM     10  O   LIG    1       -2.050  -1.911   0.442  0.00  0.00    -0.506 OA
ATOM     11  H   LIG    1       -2.950  -1.567   0.361  0.00  0.00    +0.292 HD
ENDBRANCH   4  10
BRANCH   5  12
ATOM     12  C   LIG    1       -2.086   0.933  -0.168  0.00  0.00    +0.340 C 
ATOM     13  O   LIG    1       -3.222   0.467  -0.077  0.00  0.00    -0.245 OA
BRANCH  12  14
ATOM     14  O   LIG    1       -1.980   2.280  -0.456  0.00  0.00    -0.477 OA
ATOM     15  H   LIG    1       -1.847   2.642  -1.388  0.00  0.00    +0.295 HD
ENDBRANCH  12  14
ENDBRANCH   5  12
TORSDOF 4
