REMARK  Name = molecules/KBPHJBAIARWVSC-RGZFRNHPSA-N.pdb
REMARK                            x       y       z     vdW  Elec       q    Type
REMARK                         _______ _______ _______ _____ _____    ______ ____
ROOT
ATOM      1  C   LIG    1       -0.602  -0.093   0.293  0.00  0.00    +0.000 C 
ATOM      2  C   LIG    1        0.445   0.716   0.204  0.00  0.00    +0.000 C 
ENDROOT
BRANCH   1   5
ATOM      3  C   LIG    1       -2.987  -0.511   0.431  0.00  0.00    -0.050 C 
ATOM      4  C   LIG    1       -2.611  -1.945   0.475  0.00  0.00    +0.044 C 
ATOM      5  C   LIG    1       -1.982   0.346   0.344  0.00  0.00    +0.003 C 
BRANCH   3   7
ATOM      6  C   LIG    1       -5.407  -0.773   0.562  0.00  0.00    +0.001 C 
ATOM      7  C   LIG    1       -4.335  -0.023   0.477  0.00  0.00    +0.003 C 
BRANCH   6  10
ATOM      8  C   LIG    1       -7.823  -0.873   0.684  0.00  0.00    -0.051 C 
ATOM      9  C   LIG    1       -7.624  -2.327   0.736  0.00  0.00    +0.044 C 
ATOM     10  C   LIG    1       -6.714  -0.131   0.599  0.00  0.00    +0.003 C 
BRANCH   8  12
ATOM     11  C   LIG    1      -10.275  -0.822   0.801  0.00  0.00    -0.018 C 
ATOM     12  C   LIG    1       -9.150  -0.203   0.720  0.00  0.00    -0.000 C 
BRANCH  11  13
ATOM     13  C   LIG    1      -11.630  -0.357   0.847  0.00  0.00    +0.043 C 
ATOM     14  C   LIG    1      -11.995   1.048   0.788  0.00  0.00    -0.067 C 
ATOM     15  C   LIG    1      -13.340   1.269   0.965  0.00  0.00    +0.003 C 
ATOM     16  C   LIG    1      -14.191   0.083   1.180  0.00  0.00    +0.138 C 
ATOM     17  C   LIG    1      -13.906  -1.038   0.231  0.00  0.00    +0.042 C 
ATOM     18  C   LIG    1      -11.151   2.242   0.555  0.00  0.00    +0.039 C 
ATOM     19  C   LIG    1      -12.470  -1.049  -0.243  0.00  0.00    -0.022 C 
ATOM     20  C   LIG    1      -11.963  -2.447  -0.519  0.00  0.00    +0.012 C 
ATOM     21  C   LIG    1      -12.403  -0.278  -1.543  0.00  0.00    +0.012 C 
BRANCH  16  22
ATOM     22  O   LIG    1      -14.281  -0.308   2.515  0.00  0.00    -0.388 OA
ATOM     23  H   LIG    1      -14.382  -1.293   2.513  0.00  0.00    +0.210 HD
ENDBRANCH  16  22
ENDBRANCH  11  13
ENDBRANCH   8  12
ENDBRANCH   6  10
ENDBRANCH   3   7
ENDBRANCH   1   5
BRANCH   2  24
ATOM     24  C   LIG    1        1.799   0.213   0.157  0.00  0.00    +0.003 C 
ATOM     25  C   LIG    1        2.838   1.026   0.069  0.00  0.00    -0.050 C 
ATOM     26  C   LIG    1        2.639   2.489   0.031  0.00  0.00    +0.044 C 
BRANCH  25  27
ATOM     27  C   LIG    1        4.195   0.459   0.021  0.00  0.00    +0.003 C 
ATOM     28  C   LIG    1        5.272   1.185  -0.073  0.00  0.00    +0.001 C 
BRANCH  28  29
ATOM     29  C   LIG    1        6.567   0.524  -0.112  0.00  0.00    +0.003 C 
ATOM     30  C   LIG    1        7.714   1.195  -0.209  0.00  0.00    -0.050 C 
ATOM     31  C   LIG    1        7.602   2.656  -0.273  0.00  0.00    +0.044 C 
BRANCH  30  32
ATOM     32  C   LIG    1        8.996   0.501  -0.247  0.00  0.00    +0.003 C 
ATOM     33  C   LIG    1       10.175   1.028  -0.341  0.00  0.00    +0.004 C 
BRANCH  33  34
ATOM     34  C   LIG    1       11.472   0.404  -0.385  0.00  0.00    -0.043 C 
ATOM     35  C   LIG    1       11.867  -0.990  -0.365  0.00  0.00    -0.008 C 
ATOM     36  C   LIG    1       12.548  -1.310   0.968  0.00  0.00    +0.016 C 
ATOM     37  C   LIG    1       10.810  -2.035  -0.572  0.00  0.00    +0.016 C 
ATOM     38  C   LIG    1       12.863  -1.232  -1.510  0.00  0.00    +0.042 C 
ATOM     39  C   LIG    1       14.119  -0.455  -1.343  0.00  0.00    +0.119 C 
ATOM     40  C   LIG    1       13.916   0.796  -0.522  0.00  0.00    +0.062 C 
ATOM     41  C   LIG    1       12.530   1.262  -0.470  0.00  0.00    -0.067 C 
ATOM     42  C   LIG    1       12.283   2.719  -0.511  0.00  0.00    +0.039 C 
BRANCH  39  43
ATOM     43  O   LIG    1       15.153  -1.205  -0.784  0.00  0.00    -0.391 OA
ATOM     44  H   LIG    1       16.014  -0.897  -1.161  0.00  0.00    +0.210 HD
ENDBRANCH  39  43
ENDBRANCH  33  34
ENDBRANCH  30  32
ENDBRANCH  28  29
ENDBRANCH  25  27
ENDBRANCH   2  24
TORSDOF 12
