REMARK  Name = molecules/KBUZBQVCBVDWKX-UHFFFAOYSA-N.pdb
REMARK                            x       y       z     vdW  Elec       q    Type
REMARK                         _______ _______ _______ _____ _____    ______ ____
ROOT
ATOM      1  N   LIG    1        1.189   1.337   0.096  0.00  0.00    -0.309 N 
ATOM      2  C   LIG    1       -0.085   1.020  -0.060  0.00  0.00    +0.199 A 
ATOM      3  N   LIG    1       -0.660   2.048  -0.761  0.00  0.00    -0.214 NA
ATOM      4  C   LIG    1        0.273   2.973  -1.018  0.00  0.00    +0.091 A 
ATOM      5  C   LIG    1        0.236   4.189  -1.682  0.00  0.00    +0.030 A 
ATOM      6  C   LIG    1        1.386   4.933  -1.786  0.00  0.00    +0.002 A 
ATOM      7  C   LIG    1        2.567   4.486  -1.242  0.00  0.00    +0.002 A 
ATOM      8  C   LIG    1        2.627   3.295  -0.586  0.00  0.00    +0.028 A 
ATOM      9  C   LIG    1        1.457   2.543  -0.483  0.00  0.00    +0.070 A 
ENDROOT
BRANCH   2  10
ATOM     10  N   LIG    1       -0.831  -0.144   0.367  0.00  0.00    -0.300 N 
ATOM     11  C   LIG    1       -1.250  -0.210   1.740  0.00  0.00    +0.109 C 
ATOM     12  C   LIG    1       -2.771  -0.403   1.790  0.00  0.00    +0.034 C 
ATOM     13  C   LIG    1       -3.014  -1.732   1.063  0.00  0.00    +0.085 C 
ATOM     14  N   LIG    1       -3.467  -1.432  -0.255  0.00  0.00    -0.304 NA
ATOM     15  C   LIG    1       -4.356  -2.394  -0.832  0.00  0.00    +0.104 C 
ATOM     16  C   LIG    1       -2.506  -0.876  -1.147  0.00  0.00    +0.103 C 
ATOM     17  C   LIG    1       -1.063  -1.082  -0.694  0.00  0.00    +0.123 C 
ENDBRANCH   2  10
BRANCH   1  18
ATOM     18  C   LIG    1        2.214   0.593   0.766  0.00  0.00    +0.153 C 
BRANCH  18  19
ATOM     19  C   LIG    1        3.015  -0.337  -0.065  0.00  0.00    +0.181 C 
BRANCH  19  20
ATOM     20  O   LIG    1        2.384  -1.395  -0.642  0.00  0.00    -0.378 OA
BRANCH  20  21
ATOM     21  C   LIG    1        1.918  -2.335   0.280  0.00  0.00    +0.156 C 
ATOM     22  C   LIG    1        3.068  -2.932   1.074  0.00  0.00    +0.034 C 
ENDBRANCH  20  21
ENDBRANCH  19  20
ENDBRANCH  18  19
ENDBRANCH   1  18
TORSDOF 5
