REMARK  Name = molecules/KBZOIRJILGZLEJ-LGYYRGKSSA-N.pdb
REMARK                            x       y       z     vdW  Elec       q    Type
REMARK                         _______ _______ _______ _____ _____    ______ ____
ROOT
ATOM      1  C   LIG    1        3.441  -4.277  -0.811  0.00  0.00    +0.148 C 
ATOM      2  C   LIG    1        3.888  -3.184   0.091  0.00  0.00    +0.231 C 
ATOM      3  O   LIG    1        3.365  -3.260   1.271  0.00  0.00    -0.274 OA
ATOM      4  N   LIG    1        4.751  -2.138  -0.159  0.00  0.00    -0.302 N 
ATOM      5  H   LIG    1        4.297  -1.159  -0.198  0.00  0.00    +0.150 HD
ATOM      6  C   LIG    1        6.173  -2.065  -0.380  0.00  0.00    +0.163 C 
ATOM      7  C   LIG    1        6.445  -1.248  -1.573  0.00  0.00    +0.234 C 
ATOM      8  N   LIG    1        6.731   0.139  -1.617  0.00  0.00    -0.302 N 
ATOM      9  C   LIG    1        6.080   1.174  -0.848  0.00  0.00    +0.163 C 
ATOM     10  C   LIG    1        4.821   1.626  -1.535  0.00  0.00    +0.234 C 
ATOM     11  N   LIG    1        3.514   1.215  -1.310  0.00  0.00    -0.302 N 
ATOM     12  C   LIG    1        2.644   1.428  -0.176  0.00  0.00    +0.159 C 
ATOM     13  C   LIG    1        1.841   2.687  -0.280  0.00  0.00    +0.234 C 
ATOM     14  O   LIG    1        2.643   3.719  -0.273  0.00  0.00    -0.274 OA
ATOM     15  N   LIG    1        0.492   2.910  -0.372  0.00  0.00    -0.302 N 
ATOM     16  H   LIG    1        0.133   3.546   0.470  0.00  0.00    +0.150 HD
ATOM     17  C   LIG    1       -0.561   2.560  -1.248  0.00  0.00    +0.168 C 
ATOM     18  C   LIG    1       -0.512   1.310  -2.017  0.00  0.00    +0.234 C 
ATOM     19  N   LIG    1       -1.575   0.322  -2.034  0.00  0.00    -0.302 N 
ATOM     20  C   LIG    1       -2.150  -0.259  -0.856  0.00  0.00    +0.170 C 
ATOM     21  C   LIG    1       -1.250  -0.646   0.245  0.00  0.00    +0.112 C 
ATOM     22  S   LIG    1       -0.608  -2.345  -0.101  0.00  0.00    -0.091 S 
ATOM     23  S   LIG    1        1.476  -2.354  -0.414  0.00  0.00    -0.091 S 
ATOM     24  H   LIG    1       -1.956   0.020  -2.957  0.00  0.00    +0.150 HD
ATOM     25  O   LIG    1        0.489   1.060  -2.705  0.00  0.00    -0.274 OA
ATOM     26  H   LIG    1        3.059   0.647  -2.122  0.00  0.00    +0.150 HD
ATOM     27  O   LIG    1        5.005   2.508  -2.450  0.00  0.00    -0.274 OA
ATOM     28  H   LIG    1        7.493   0.475  -2.281  0.00  0.00    +0.150 HD
ATOM     29  O   LIG    1        6.426  -1.827  -2.721  0.00  0.00    -0.274 OA
ATOM     30  C   LIG    1        2.017  -3.880  -1.246  0.00  0.00    +0.109 C 
ENDROOT
BRANCH  20  31
ATOM     31  C   LIG    1       -3.499   0.166  -0.496  0.00  0.00    +0.237 C 
ATOM     32  N   LIG    1       -3.969   0.653   0.732  0.00  0.00    -0.288 N 
ATOM     33  C   LIG    1       -3.093   1.143   1.858  0.00  0.00    +0.109 C 
ATOM     34  C   LIG    1       -3.823   2.486   2.126  0.00  0.00    +0.021 C 
ATOM     35  C   LIG    1       -5.234   2.306   1.618  0.00  0.00    +0.033 C 
ATOM     36  C   LIG    1       -5.234   0.774   1.325  0.00  0.00    +0.162 C 
ATOM     37  O   LIG    1       -4.366   0.076  -1.430  0.00  0.00    -0.274 OA
BRANCH  36  38
ATOM     38  C   LIG    1       -6.516   0.409   0.723  0.00  0.00    +0.234 C 
ATOM     39  N   LIG    1       -7.505   0.027   1.645  0.00  0.00    -0.302 N 
ATOM     40  H   LIG    1       -7.037   0.038   2.683  0.00  0.00    +0.150 HD
ATOM     41  O   LIG    1       -6.690   0.447  -0.500  0.00  0.00    -0.274 OA
BRANCH  39  42
ATOM     42  C   LIG    1       -8.836  -0.370   1.751  0.00  0.00    +0.159 C 
BRANCH  42  43
ATOM     43  C   LIG    1       -9.323  -0.190   3.185  0.00  0.00    +0.234 C 
ATOM     44  O   LIG    1       -8.305  -0.438   3.987  0.00  0.00    -0.274 OA
ATOM     45  N   LIG    1      -10.570   0.174   3.611  0.00  0.00    -0.305 N 
ATOM     46  H   LIG    1      -10.130   0.113   4.911  0.00  0.00    +0.149 HD
BRANCH  45  47
ATOM     47  C   LIG    1      -11.807   0.536   4.037  0.00  0.00    +0.199 C 
BRANCH  47  48
ATOM     48  C   LIG    1      -12.888   0.699   2.985  0.00  0.00    +0.228 C 
ATOM     49  O   LIG    1      -14.042   1.087   3.283  0.00  0.00    -0.274 OA
ATOM     50  N   LIG    1      -12.645   0.424   1.618  0.00  0.00    -0.328 N 
ATOM     51  H   LIG    1      -13.205  -0.309   1.154  0.00  0.00    +0.145 HD
ATOM     52  H   LIG    1      -11.926   0.941   1.093  0.00  0.00    +0.145 HD
ENDBRANCH  47  48
ENDBRANCH  45  47
ENDBRANCH  42  43
BRANCH  42  53
ATOM     53  C   LIG    1       -9.267  -1.709   1.262  0.00  0.00    +0.035 C 
BRANCH  53  54
ATOM     54  C   LIG    1       -9.196  -2.021  -0.193  0.00  0.00    +0.039 C 
BRANCH  54  55
ATOM     55  C   LIG    1      -10.118  -1.051  -0.949  0.00  0.00    +0.196 C 
BRANCH  55  56
ATOM     56  N   LIG    1      -10.241  -1.447  -2.297  0.00  0.00    -0.276 N 
ATOM     57  H   LIG    1      -11.223  -1.830  -2.576  0.00  0.00    +0.258 HD
BRANCH  56  58
ATOM     58  C   LIG    1       -9.218  -1.397  -3.264  0.00  0.00    +0.376 C 
ATOM     59  N   LIG    1       -8.958  -2.348  -3.978  0.00  0.00    -0.130 NA
ATOM     60  H   LIG    1       -9.022  -3.232  -4.345  0.00  0.00    +0.306 HD
BRANCH  58  61
ATOM     61  N   LIG    1       -8.510  -0.166  -3.394  0.00  0.00    -0.289 N 
ATOM     62  H   LIG    1       -8.951   0.735  -3.114  0.00  0.00    +0.255 HD
ATOM     63  H   LIG    1       -7.547  -0.185  -3.775  0.00  0.00    +0.255 HD
ENDBRANCH  58  61
ENDBRANCH  56  58
ENDBRANCH  55  56
ENDBRANCH  54  55
ENDBRANCH  53  54
ENDBRANCH  42  53
ENDBRANCH  39  42
ENDBRANCH  36  38
ENDBRANCH  20  31
BRANCH   1  64
ATOM     64  N   LIG    1        3.270  -5.524  -0.080  0.00  0.00    -0.319 NA
ATOM     65  H   LIG    1        2.677  -5.402   0.771  0.00  0.00    +0.119 HD
ATOM     66  H   LIG    1        4.181  -5.969   0.096  0.00  0.00    +0.119 HD
ENDBRANCH   1  64
BRANCH   6  67
ATOM     67  C   LIG    1        6.819  -3.403  -0.339  0.00  0.00    +0.067 C 
BRANCH  67  68
ATOM     68  C   LIG    1        8.267  -3.423  -0.565  0.00  0.00    -0.045 A 
ATOM     69  C   LIG    1        9.094  -3.161   0.528  0.00  0.00    +0.007 A 
ATOM     70  C   LIG    1       10.468  -3.131   0.439  0.00  0.00    +0.045 A 
ATOM     71  C   LIG    1       11.092  -3.368  -0.767  0.00  0.00    +0.117 A 
ATOM     72  C   LIG    1       10.270  -3.628  -1.846  0.00  0.00    +0.045 A 
ATOM     73  C   LIG    1        8.892  -3.658  -1.761  0.00  0.00    +0.007 A 
BRANCH  71  74
ATOM     74  O   LIG    1       12.473  -3.342  -0.873  0.00  0.00    -0.507 OA
ATOM     75  H   LIG    1       13.077  -4.138  -0.748  0.00  0.00    +0.292 HD
ENDBRANCH  71  74
ENDBRANCH  67  68
ENDBRANCH   6  67
BRANCH  17  76
ATOM     76  C   LIG    1       -1.031   3.738  -2.127  0.00  0.00    +0.127 C 
BRANCH  76  77
ATOM     77  C   LIG    1        0.016   4.307  -2.974  0.00  0.00    +0.213 C 
ATOM     78  O   LIG    1        1.046   4.836  -2.511  0.00  0.00    -0.276 OA
ATOM     79  N   LIG    1       -0.050   4.314  -4.421  0.00  0.00    -0.329 N 
ATOM     80  H   LIG    1       -0.974   4.368  -4.863  0.00  0.00    +0.145 HD
ATOM     81  H   LIG    1        0.810   4.267  -4.992  0.00  0.00    +0.145 HD
ENDBRANCH  76  77
ENDBRANCH  17  76
BRANCH  12  82
ATOM     82  C   LIG    1        3.350   1.348   1.160  0.00  0.00    +0.041 C 
BRANCH  82  83
ATOM     83  C   LIG    1        2.429   1.580   2.314  0.00  0.00    +0.098 C 
BRANCH  83  84
ATOM     84  C   LIG    1        3.176   1.415   3.583  0.00  0.00    +0.211 C 
ATOM     85  N   LIG    1        2.655   1.539   4.869  0.00  0.00    -0.329 N 
ATOM     86  H   LIG    1        2.612   0.699   5.465  0.00  0.00    +0.145 HD
ATOM     87  H   LIG    1        2.306   2.428   5.234  0.00  0.00    +0.145 HD
ATOM     88  O   LIG    1        4.415   1.130   3.483  0.00  0.00    -0.276 OA
ENDBRANCH  83  84
ENDBRANCH  82  83
ENDBRANCH  12  82
BRANCH   9  89
ATOM     89  C   LIG    1        6.943   2.430  -0.733  0.00  0.00    +0.067 C 
BRANCH  89  90
ATOM     90  C   LIG    1        8.226   2.287  -0.097  0.00  0.00    -0.045 A 
ATOM     91  C   LIG    1        8.366   2.467   1.269  0.00  0.00    +0.004 A 
ATOM     92  C   LIG    1        9.602   2.363   1.864  0.00  0.00    +0.000 A 
ATOM     93  C   LIG    1       10.737   2.074   1.122  0.00  0.00    +0.000 A 
ATOM     94  C   LIG    1       10.626   1.889  -0.238  0.00  0.00    +0.000 A 
ATOM     95  C   LIG    1        9.365   2.005  -0.797  0.00  0.00    +0.004 A 
ENDBRANCH  89  90
ENDBRANCH   9  89
TORSDOF 23
