REMARK  Name = molecules/KCASCYQNVLPVDP-UHFFFAOYSA-N.pdb
REMARK                            x       y       z     vdW  Elec       q    Type
REMARK                         _______ _______ _______ _____ _____    ______ ____
ROOT
ATOM      1  C   LIG    1       -1.995   0.578   2.663  0.00  0.00    +0.001 A 
ATOM      2  C   LIG    1       -0.759   1.168   2.525  0.00  0.00    +0.001 A 
ATOM      3  C   LIG    1       -0.066   1.243   1.361  0.00  0.00    +0.010 A 
ATOM      4  C   LIG    1       -0.629   0.688   0.208  0.00  0.00    +0.009 A 
ATOM      5  C   LIG    1       -1.885   0.087   0.340  0.00  0.00    +0.027 A 
ATOM      6  C   LIG    1       -2.464  -0.451  -0.793  0.00  0.00    +0.162 A 
ATOM      7  N   LIG    1       -1.809  -0.375  -1.950  0.00  0.00    -0.132 NA
ATOM      8  N   LIG    1       -0.628   0.190  -2.072  0.00  0.00    -0.151 NA
ATOM      9  C   LIG    1        0.018   0.747  -1.006  0.00  0.00    +0.076 A 
ATOM     10  C   LIG    1       -2.560   0.029   1.541  0.00  0.00    +0.012 A 
ENDROOT
BRANCH   6  11
ATOM     11  N   LIG    1       -3.741  -1.058  -0.640  0.00  0.00    -0.266 N 
ATOM     12  H   LIG    1       -3.870  -2.063  -0.418  0.00  0.00    +0.168 HD
BRANCH  11  13
ATOM     13  N   LIG    1       -4.910  -0.303  -0.787  0.00  0.00    -0.255 NA
ATOM     14  H   LIG    1       -5.628  -0.523  -0.079  0.00  0.00    +0.140 HD
ATOM     15  H   LIG    1       -4.752   0.709  -0.781  0.00  0.00    +0.140 HD
ENDBRANCH  11  13
ENDBRANCH   6  11
BRANCH   9  16
ATOM     16  C   LIG    1        1.358   1.349  -1.142  0.00  0.00    +0.093 C 
BRANCH  16  17
ATOM     17  C   LIG    1        2.492   0.473  -0.834  0.00  0.00    -0.039 A 
ATOM     18  C   LIG    1        2.508  -0.572   0.054  0.00  0.00    +0.023 A 
ATOM     19  C   LIG    1        3.677  -1.290   0.260  0.00  0.00    +0.111 A 
ATOM     20  N   LIG    1        4.806  -0.998  -0.385  0.00  0.00    -0.263 NA
ATOM     21  C   LIG    1        4.832   0.013  -1.260  0.00  0.00    +0.111 A 
ATOM     22  C   LIG    1        3.708   0.739  -1.488  0.00  0.00    +0.023 A 
ENDBRANCH  16  17
ENDBRANCH   9  16
TORSDOF 4
