REMARK  Name = molecules/KCFYEAOKVJSACF-UHFFFAOYSA-N.pdb
REMARK                            x       y       z     vdW  Elec       q    Type
REMARK                         _______ _______ _______ _____ _____    ______ ____
ROOT
ATOM      1  C   LIG    1       -0.289   0.417  -0.008  0.00  0.00    +0.089 A 
ATOM      2  C   LIG    1        1.035   0.712  -0.459  0.00  0.00    +0.044 A 
ATOM      3  N   LIG    1        1.264   0.051  -1.531  0.00  0.00    -0.345 N 
ATOM      4  C   LIG    1        0.176  -0.717  -1.894  0.00  0.00    +0.051 A 
ATOM      5  C   LIG    1       -0.088  -1.607  -2.885  0.00  0.00    +0.045 A 
ATOM      6  C   LIG    1       -1.271  -2.244  -2.942  0.00  0.00    +0.062 A 
ATOM      7  C   LIG    1       -2.257  -1.995  -1.948  0.00  0.00    +0.136 A 
ATOM      8  C   LIG    1       -2.039  -1.114  -0.940  0.00  0.00    +0.019 A 
ATOM      9 BR   LIG    1       -1.729  -3.448  -4.391  0.00  0.00    -0.046 Br
ATOM     10  C   LIG    1        2.458  -0.010  -2.369  0.00  0.00    +0.149 C 
ATOM     11  C   LIG    1       -0.776  -0.481  -0.949  0.00  0.00    +0.022 A 
ENDROOT
BRANCH   1  12
ATOM     12  C   LIG    1       -0.927   0.909   1.157  0.00  0.00    +0.342 C 
ATOM     13  O   LIG    1       -0.780   0.248   2.262  0.00  0.00    -0.245 OA
BRANCH  12  14
ATOM     14  O   LIG    1       -1.698   2.027   1.285  0.00  0.00    -0.461 OA
BRANCH  14  15
ATOM     15  C   LIG    1       -2.354   2.555   2.385  0.00  0.00    +0.229 C 
ATOM     16  C   LIG    1       -3.066   3.861   2.085  0.00  0.00    +0.048 C 
ENDBRANCH  14  15
ENDBRANCH  12  14
ENDBRANCH   1  12
BRANCH   7  17
ATOM     17  O   LIG    1       -3.424  -2.705  -2.068  0.00  0.00    -0.505 OA
ATOM     18  H   LIG    1       -4.179  -2.675  -1.479  0.00  0.00    +0.292 HD
ENDBRANCH   7  17
BRANCH   2  19
ATOM     19  C   LIG    1        1.797   1.678   0.338  0.00  0.00    +0.128 C 
BRANCH  19  20
ATOM     20  S   LIG    1        3.388   2.041  -0.195  0.00  0.00    -0.119 S 
BRANCH  20  21
ATOM     21  C   LIG    1        4.613   0.784  -0.057  0.00  0.00    +0.008 A 
ATOM     22  C   LIG    1        4.375  -0.450   0.441  0.00  0.00    +0.015 A 
ATOM     23  C   LIG    1        5.421  -1.389   0.545  0.00  0.00    +0.001 A 
ATOM     24  C   LIG    1        6.685  -1.043   0.138  0.00  0.00    +0.000 A 
ATOM     25  C   LIG    1        6.924   0.200  -0.359  0.00  0.00    +0.001 A 
ATOM     26  C   LIG    1        5.923   1.157  -0.480  0.00  0.00    +0.015 A 
ENDBRANCH  20  21
ENDBRANCH  19  20
ENDBRANCH   2  19
BRANCH   8  27
ATOM     27  C   LIG    1       -3.021  -0.558  -0.074  0.00  0.00    +0.123 C 
BRANCH  27  28
ATOM     28  N   LIG    1       -3.549  -1.036   1.107  0.00  0.00    -0.304 NA
ATOM     29  C   LIG    1       -4.547  -0.334   1.798  0.00  0.00    +0.104 C 
ATOM     30  C   LIG    1       -3.547  -2.451   1.331  0.00  0.00    +0.104 C 
ENDBRANCH  27  28
ENDBRANCH   8  27
TORSDOF 9
