REMARK  Name = molecules/KCZCIYZKSLLNNH-FBPKJDBXSA-N.pdb
REMARK                            x       y       z     vdW  Elec       q    Type
REMARK                         _______ _______ _______ _____ _____    ______ ____
ROOT
ATOM      1  C   LIG    1        1.740   0.918   1.413  0.00  0.00    +0.016 C 
ATOM      2  C   LIG    1        1.835  -0.190   0.396  0.00  0.00    -0.006 C 
ATOM      3  C   LIG    1        2.540  -1.372   1.018  0.00  0.00    +0.019 C 
ATOM      4  C   LIG    1        3.998  -1.110   1.249  0.00  0.00    +0.081 C 
ATOM      5  C   LIG    1        4.618  -0.703  -0.033  0.00  0.00    +0.174 C 
ATOM      6  O   LIG    1        5.805  -1.023  -0.285  0.00  0.00    -0.291 OA
ATOM      7  C   LIG    1        3.825   0.065  -0.973  0.00  0.00    +0.083 C 
ATOM      8 CL   LIG    1        4.691   0.661  -2.403  0.00  0.00    -0.080 Cl
ATOM      9  C   LIG    1        0.482  -0.621  -0.109  0.00  0.00    +0.002 C 
ATOM     10  C   LIG    1       -0.217  -1.520   0.836  0.00  0.00    +0.005 C 
ATOM     11  C   LIG    1       -1.671  -1.704   0.574  0.00  0.00    +0.010 C 
ATOM     12  C   LIG    1       -2.331  -0.387   0.332  0.00  0.00    -0.003 C 
ATOM     13  C   LIG    1       -2.228   0.487   1.549  0.00  0.00    +0.014 C 
ATOM     14  C   LIG    1       -3.745  -0.464  -0.145  0.00  0.00    +0.121 C 
ATOM     15  C   LIG    1       -3.886   0.530  -1.282  0.00  0.00    +0.032 C 
ATOM     16  C   LIG    1       -2.563   1.295  -1.274  0.00  0.00    +0.007 C 
ATOM     17  C   LIG    1       -1.635   0.216  -0.879  0.00  0.00    +0.001 C 
ATOM     18  C   LIG    1       -0.271   0.642  -0.447  0.00  0.00    -0.003 C 
ATOM     19  C   LIG    1        0.428   1.440  -1.486  0.00  0.00    +0.008 C 
ATOM     20  C   LIG    1        1.827   1.084  -1.804  0.00  0.00    +0.033 C 
ATOM     21  C   LIG    1        2.546   0.312  -0.800  0.00  0.00    -0.042 C 
ENDROOT
BRANCH  14  22
ATOM     22  O   LIG    1       -4.632  -0.059   0.854  0.00  0.00    -0.391 OA
ATOM     23  H   LIG    1       -4.724   0.926   0.805  0.00  0.00    +0.210 HD
ENDBRANCH  14  22
TORSDOF 1
