REMARK  Name = molecules/KDGFLJKFZUIJMX-UHFFFAOYSA-N.pdb
REMARK                            x       y       z     vdW  Elec       q    Type
REMARK                         _______ _______ _______ _____ _____    ______ ____
ROOT
ATOM      1  C   LIG    1       -1.971   0.130   2.417  0.00  0.00    +0.017 A 
ATOM      2  C   LIG    1       -1.171   1.198   1.992  0.00  0.00    +0.027 A 
ATOM      3  C   LIG    1       -1.090   2.408   2.799  0.00  0.00    +0.196 C 
ATOM      4  O   LIG    1       -1.727   2.517   3.878  0.00  0.00    -0.287 OA
ATOM      5  C   LIG    1       -0.245   3.490   2.314  0.00  0.00    +0.051 A 
ATOM      6  C   LIG    1        0.076   4.752   2.788  0.00  0.00    +0.011 A 
ATOM      7  C   LIG    1       -0.317   5.429   3.924  0.00  0.00    +0.012 A 
ATOM      8  C   LIG    1        0.167   6.699   4.148  0.00  0.00    +0.019 A 
ATOM      9  C   LIG    1        1.034   7.330   3.280  0.00  0.00    +0.054 A 
ATOM     10  C   LIG    1        1.405   6.625   2.157  0.00  0.00    +0.045 A 
ATOM     11  C   LIG    1        0.945   5.349   1.892  0.00  0.00    +0.049 A 
ATOM     12  N   LIG    1        1.151   4.478   0.898  0.00  0.00    -0.357 N 
ATOM     13  H   LIG    1        1.772   4.676   0.080  0.00  0.00    +0.166 HD
ATOM     14  C   LIG    1        0.434   3.328   1.129  0.00  0.00    +0.038 A 
ATOM     15  C   LIG    1        0.382   2.134   0.285  0.00  0.00    +0.032 C 
ATOM     16  C   LIG    1        1.776   1.554   0.059  0.00  0.00    +0.022 C 
ATOM     17  C   LIG    1       -0.151   2.558  -1.101  0.00  0.00    +0.022 C 
ATOM     18  C   LIG    1       -0.487   1.075   0.828  0.00  0.00    -0.023 A 
ATOM     19  C   LIG    1       -0.582  -0.113   0.060  0.00  0.00    +0.028 A 
ATOM     20  C   LIG    1       -1.365  -1.147   0.486  0.00  0.00    +0.033 A 
ATOM     21  C   LIG    1       -2.068  -1.034   1.671  0.00  0.00    -0.026 A 
ENDROOT
BRANCH  20  22
ATOM     22  N   LIG    1       -1.487  -2.351  -0.260  0.00  0.00    -0.330 N 
ATOM     23  C   LIG    1       -1.066  -3.651   0.214  0.00  0.00    +0.106 C 
ATOM     24  C   LIG    1       -0.222  -4.338  -0.883  0.00  0.00    +0.038 C 
ATOM     25  C   LIG    1        0.212  -3.251  -1.821  0.00  0.00    +0.060 C 
ATOM     26  C   LIG    1       -1.014  -2.817  -2.598  0.00  0.00    +0.038 C 
ATOM     27  C   LIG    1       -2.051  -2.352  -1.602  0.00  0.00    +0.106 C 
BRANCH  25  28
ATOM     28  N   LIG    1        1.224  -3.814  -2.725  0.00  0.00    -0.295 NA
ATOM     29  C   LIG    1        2.334  -4.215  -1.898  0.00  0.00    +0.113 C 
ATOM     30  C   LIG    1        3.678  -4.123  -2.585  0.00  0.00    +0.175 C 
ATOM     31  O   LIG    1        3.831  -2.830  -3.057  0.00  0.00    -0.377 OA
ATOM     32  C   LIG    1        2.943  -2.700  -4.120  0.00  0.00    +0.175 C 
ATOM     33  C   LIG    1        1.510  -2.786  -3.677  0.00  0.00    +0.113 C 
ENDBRANCH  25  28
ENDBRANCH  20  22
BRANCH   9  34
ATOM     34  C   LIG    1        1.534   8.651   3.518  0.00  0.00    +0.099 C 
ATOM     35  N   LIG    1        1.929   9.729   3.707  0.00  0.00    -0.191 NA
ENDBRANCH   9  34
BRANCH  21  36
ATOM     36  C   LIG    1       -2.928  -2.115   2.179  0.00  0.00    +0.033 C 
ATOM     37  C   LIG    1       -4.227  -2.236   1.416  0.00  0.00    +0.009 C 
ENDBRANCH  21  36
TORSDOF 4
