REMARK  Name = molecules/KDLNOQQQEBKBQM-DICPTYMLSA-N.pdb
REMARK                            x       y       z     vdW  Elec       q    Type
REMARK                         _______ _______ _______ _____ _____    ______ ____
ROOT
ATOM      1  C   LIG    1        3.115  -0.706  -0.460  0.00  0.00    +0.176 C 
ATOM      2  C   LIG    1        1.914  -0.031   0.026  0.00  0.00    +0.018 C 
ATOM      3  C   LIG    1        1.897   0.404   1.439  0.00  0.00    +0.016 C 
ATOM      4  C   LIG    1        0.807  -1.045  -0.308  0.00  0.00    +0.003 C 
ATOM      5  C   LIG    1       -0.435  -0.698   0.346  0.00  0.00    -0.003 C 
ATOM      6  C   LIG    1       -1.471  -1.811   0.386  0.00  0.00    +0.011 C 
ATOM      7  C   LIG    1       -2.608  -1.266   1.233  0.00  0.00    +0.012 C 
ATOM      8  C   LIG    1       -3.616  -2.325   1.577  0.00  0.00    +0.012 C 
ATOM      9  C   LIG    1       -3.201  -0.141   0.456  0.00  0.00    -0.064 C 
ATOM     10  C   LIG    1       -4.477  -0.204   0.149  0.00  0.00    -0.027 C 
ATOM     11  C   LIG    1       -5.217   0.827  -0.625  0.00  0.00    +0.027 C 
ATOM     12  C   LIG    1       -4.411   2.101  -0.598  0.00  0.00    +0.005 C 
ATOM     13  C   LIG    1       -2.988   1.770  -0.998  0.00  0.00    +0.011 C 
ATOM     14  C   LIG    1       -2.288   0.972   0.079  0.00  0.00    -0.008 C 
ATOM     15  C   LIG    1       -2.134   1.869   1.279  0.00  0.00    +0.016 C 
ATOM     16  C   LIG    1       -0.987   0.491  -0.473  0.00  0.00    +0.002 C 
ATOM     17  C   LIG    1        0.032   1.567  -0.516  0.00  0.00    +0.005 C 
ATOM     18  C   LIG    1        1.472  -2.341  -0.116  0.00  0.00    +0.009 C 
ATOM     19  C   LIG    1        1.437   1.162  -0.819  0.00  0.00    +0.011 C 
ATOM     20  C   LIG    1        2.650  -2.067  -1.071  0.00  0.00    +0.057 C 
ENDROOT
BRANCH   1  21
ATOM     21  C   LIG    1        4.195  -1.100   0.426  0.00  0.00    +0.174 C 
ATOM     22  C   LIG    1        4.107  -1.898   1.663  0.00  0.00    +0.090 C 
ATOM     23  O   LIG    1        5.326  -0.749   0.145  0.00  0.00    -0.293 OA
ENDBRANCH   1  21
BRANCH   1  24
ATOM     24  O   LIG    1        3.643   0.082  -1.544  0.00  0.00    -0.450 OA
BRANCH  24  25
ATOM     25  C   LIG    1        4.348   1.240  -1.282  0.00  0.00    +0.305 C 
ATOM     26  O   LIG    1        4.599   1.703  -0.149  0.00  0.00    -0.251 OA
ATOM     27  C   LIG    1        4.872   2.037  -2.448  0.00  0.00    +0.136 C 
ENDBRANCH  24  25
ENDBRANCH   1  24
TORSDOF 3
