REMARK  Name = molecules/KDXKERNSBIXSRK-YFKPBYRVSA-N.pdb
REMARK                            x       y       z     vdW  Elec       q    Type
REMARK                         _______ _______ _______ _____ _____    ______ ____
ROOT
ATOM      1  CA  LYS A  1        1.728  -0.138  -0.664  0.00  0.00    +0.161 C 
ENDROOT
BRANCH   1   2
ATOM      2  N   LYS A  1        1.050  -0.862  -1.712  0.00  0.00    -0.318 NA
ATOM      3  H1  LYS A  1        1.184  -1.871  -1.699  0.00  0.00    +0.119 HD
ATOM      4  H2  LYS A  1        1.171  -0.385  -2.609  0.00  0.00    +0.119 HD
ENDBRANCH   1   2
BRANCH   1   5
ATOM      5  C   LYS A  1        2.152  -1.031   0.432  0.00  0.00    +0.322 C 
ATOM      6  O   LYS A  1        1.943  -2.271   0.440  0.00  0.00    -0.249 OA
BRANCH   5   7
ATOM      7  OXT LYS A  1        2.824  -0.539   1.543  0.00  0.00    -0.480 OA
ATOM      8  HXT LYS A  1        3.810  -0.749   1.613  0.00  0.00    +0.295 HD
ENDBRANCH   5   7
ENDBRANCH   1   5
BRANCH   1   9
ATOM      9  CB  LYS A  1        1.028   1.091  -0.215  0.00  0.00    +0.030 C 
BRANCH   9  10
ATOM     10  CG  LYS A  1       -0.327   0.939   0.340  0.00  0.00    +0.003 C 
BRANCH  10  11
ATOM     11  CD  LYS A  1       -1.349   0.334  -0.591  0.00  0.00    +0.015 C 
BRANCH  11  12
ATOM     12  CE  LYS A  1       -2.661   0.286   0.207  0.00  0.00    +0.077 C 
BRANCH  12  13
ATOM     13  NZ  LYS A  1       -2.418  -0.534   1.363  0.00  0.00    -0.330 NA
ATOM     14  HZ1 LYS A  1       -2.452  -0.038   2.259  0.00  0.00    +0.118 HD
ATOM     15  HZ2 LYS A  1       -2.846  -1.462   1.328  0.00  0.00    +0.118 HD
ENDBRANCH  12  13
ENDBRANCH  11  12
ENDBRANCH  10  11
ENDBRANCH   9  10
ENDBRANCH   1   9
TORSDOF 8
