REMARK  Name = molecules/KDYFGRWQOYBRFD-UHFFFAOYSA-N.pdb
REMARK                            x       y       z     vdW  Elec       q    Type
REMARK                         _______ _______ _______ _____ _____    ______ ____
ROOT
ATOM      1  C   LIG    1       -0.640   0.262   0.254  0.00  0.00    +0.131 C 
ENDROOT
BRANCH   1   2
ATOM      2  C   LIG    1       -1.861  -0.200  -0.440  0.00  0.00    +0.305 C 
ATOM      3  O   LIG    1       -1.813  -1.161  -1.247  0.00  0.00    -0.251 OA
BRANCH   2   4
ATOM      4  O   LIG    1       -3.062   0.443  -0.187  0.00  0.00    -0.481 OA
ATOM      5  H   LIG    1       -3.146   1.455  -0.317  0.00  0.00    +0.295 HD
ENDBRANCH   2   4
ENDBRANCH   1   2
BRANCH   1   6
ATOM      6  C   LIG    1        0.576  -0.550  -0.139  0.00  0.00    +0.131 C 
BRANCH   6   7
ATOM      7  C   LIG    1        1.724  -0.014   0.601  0.00  0.00    +0.305 C 
ATOM      8  O   LIG    1        1.630   0.964   1.411  0.00  0.00    -0.251 OA
BRANCH   7   9
ATOM      9  O   LIG    1        2.977  -0.566   0.438  0.00  0.00    -0.481 OA
ATOM     10  H   LIG    1        3.715  -0.133  -0.097  0.00  0.00    +0.295 HD
ENDBRANCH   7   9
ENDBRANCH   6   7
ENDBRANCH   1   6
TORSDOF 5
