REMARK  Name = molecules/KEJCWVGMRLCZQQ-DDFBNJLNSA-N.pdb
REMARK                            x       y       z     vdW  Elec       q    Type
REMARK                         _______ _______ _______ _____ _____    ______ ____
ROOT
ATOM      1  C   LIG    1        1.176   0.939   0.487  0.00  0.00    +0.125 C 
ATOM      2  C   LIG    1        0.364   1.717   1.143  0.00  0.00    +0.006 C 
ATOM      3  C   LIG    1       -0.954   2.226   0.632  0.00  0.00    +0.107 C 
ATOM      4  S   LIG    1       -1.034   2.401  -1.140  0.00  0.00    -0.131 S 
ATOM      5  C   LIG    1        0.231   1.355  -1.837  0.00  0.00    +0.169 C 
ATOM      6  C   LIG    1       -0.331   0.093  -2.428  0.00  0.00    +0.191 C 
ATOM      7  C   LIG    1        0.819  -0.552  -1.768  0.00  0.00    +0.244 C 
ATOM      8  O   LIG    1        1.505  -1.585  -1.937  0.00  0.00    -0.273 OA
ATOM      9  N   LIG    1        0.841   0.496  -0.834  0.00  0.00    -0.249 N 
ENDROOT
BRANCH   6  10
ATOM     10  N   LIG    1       -1.574  -0.334  -1.760  0.00  0.00    -0.296 N 
ATOM     11  H   LIG    1       -1.613  -0.314  -0.747  0.00  0.00    +0.150 HD
ATOM     12  C   LIG    1       -2.618  -0.739  -2.604  0.00  0.00    +0.270 C 
ATOM     13  O   LIG    1       -2.448  -0.718  -3.878  0.00  0.00    -0.268 OA
BRANCH  12  14
ATOM     14  C   LIG    1       -3.901  -1.192  -2.157  0.00  0.00    +0.206 C 
ATOM     15  N   LIG    1       -4.178  -1.256  -0.911  0.00  0.00    -0.076 NA
BRANCH  14  16
ATOM     16  C   LIG    1       -4.953  -1.604  -3.132  0.00  0.00    +0.161 A 
ATOM     17  O   LIG    1       -6.125  -2.030  -2.773  0.00  0.00    -0.461 OA
ATOM     18  C   LIG    1       -6.865  -2.327  -3.795  0.00  0.00    +0.196 A 
ATOM     19  C   LIG    1       -6.157  -2.092  -4.952  0.00  0.00    +0.042 A 
ATOM     20  C   LIG    1       -4.912  -1.621  -4.492  0.00  0.00    +0.052 A 
ENDBRANCH  14  16
BRANCH  15  21
ATOM     21  O   LIG    1       -3.398  -0.942   0.130  0.00  0.00    -0.396 OA
ATOM     22  C   LIG    1       -3.983  -0.201   1.194  0.00  0.00    +0.313 C 
ENDBRANCH  15  21
ENDBRANCH  12  14
ENDBRANCH   6  10
BRANCH   1  23
ATOM     23  C   LIG    1        2.466   0.466   0.972  0.00  0.00    +0.357 C 
ATOM     24  O   LIG    1        2.953   0.775   2.079  0.00  0.00    -0.243 OA
BRANCH  23  25
ATOM     25  O   LIG    1        3.286  -0.391   0.220  0.00  0.00    -0.421 OA
BRANCH  25  26
ATOM     26  C   LIG    1        4.539  -0.849   0.691  0.00  0.00    +0.367 C 
ATOM     27  C   LIG    1        5.670  -0.378  -0.200  0.00  0.00    +0.100 C 
BRANCH  26  28
ATOM     28  O   LIG    1        4.569  -2.260   0.770  0.00  0.00    -0.425 OA
BRANCH  28  29
ATOM     29  C   LIG    1        4.776  -2.870   1.993  0.00  0.00    +0.307 C 
ATOM     30  O   LIG    1        4.930  -2.121   2.999  0.00  0.00    -0.251 OA
ATOM     31  C   LIG    1        4.819  -4.369   2.139  0.00  0.00    +0.136 C 
ENDBRANCH  28  29
ENDBRANCH  26  28
ENDBRANCH  25  26
ENDBRANCH  23  25
ENDBRANCH   1  23
BRANCH   2  32
ATOM     32  C   LIG    1        0.673   2.148   2.504  0.00  0.00    +0.268 C 
BRANCH  32  33
ATOM     33  O   LIG    1        0.756   3.570   2.522  0.00  0.00    -0.446 OA
BRANCH  33  34
ATOM     34  C   LIG    1        1.043   4.244   3.692  0.00  0.00    +0.398 C 
ATOM     35  O   LIG    1        1.229   3.579   4.741  0.00  0.00    -0.227 OA
ATOM     36  N   LIG    1        1.118   5.662   3.671  0.00  0.00    -0.295 N 
ATOM     37  H   LIG    1        2.071   6.113   3.689  0.00  0.00    +0.148 HD
ATOM     38  H   LIG    1        0.299   6.291   3.639  0.00  0.00    +0.148 HD
ENDBRANCH  33  34
ENDBRANCH  32  33
ENDBRANCH   2  32
TORSDOF 12
