REMARK  Name = molecules/KEMCRVSPPRNENL-QMMMGPOBSA-N.pdb
REMARK                            x       y       z     vdW  Elec       q    Type
REMARK                         _______ _______ _______ _____ _____    ______ ____
ROOT
ATOM      1  C   LIG    1        0.013  -0.364  -0.209  0.00  0.00    +0.127 C 
ATOM      2  C   LIG    1        0.268  -0.117   1.217  0.00  0.00    +0.234 C 
ATOM      3  N   LIG    1        0.198  -1.156   2.159  0.00  0.00    -0.267 N 
ATOM      4  H   LIG    1        0.243  -0.966   3.215  0.00  0.00    +0.157 HD
ATOM      5  C   LIG    1        0.066  -2.505   1.823  0.00  0.00    +0.143 C 
ATOM      6  S   LIG    1       -0.011  -3.670   2.993  0.00  0.00    -0.018 S 
ATOM      7  N   LIG    1        0.000  -2.845   0.447  0.00  0.00    -0.267 N 
ATOM      8  H   LIG    1       -0.099  -3.854   0.210  0.00  0.00    +0.157 HD
ATOM      9  O   LIG    1        0.564   1.021   1.693  0.00  0.00    -0.274 OA
ATOM     10  C   LIG    1        0.072  -1.803  -0.517  0.00  0.00    +0.234 C 
ATOM     11  O   LIG    1        0.198  -2.234  -1.717  0.00  0.00    -0.274 OA
ENDROOT
BRANCH   1  12
ATOM     12  C   LIG    1       -1.087   0.375  -0.858  0.00  0.00    +0.010 C 
ATOM     13  C   LIG    1       -0.956   0.382  -2.397  0.00  0.00    +0.009 C 
BRANCH  12  14
ATOM     14  C   LIG    1       -2.492   0.086  -0.561  0.00  0.00    +0.004 C 
BRANCH  14  15
ATOM     15  C   LIG    1       -2.871   0.042   0.892  0.00  0.00    -0.003 C 
ATOM     16  C   LIG    1       -2.609   1.361   1.589  0.00  0.00    +0.004 C 
ENDBRANCH  14  15
ENDBRANCH  12  14
ENDBRANCH   1  12
BRANCH   1  17
ATOM     17  C   LIG    1        1.315   0.240  -0.858  0.00  0.00    +0.036 C 
BRANCH  17  18
ATOM     18  C   LIG    1        2.522  -0.414  -0.288  0.00  0.00    +0.070 C 
BRANCH  18  19
ATOM     19  S   LIG    1        4.018   0.286  -1.041  0.00  0.00    -0.164 S 
ATOM     20  C   LIG    1        4.249   2.021  -0.600  0.00  0.00    +0.084 C 
ENDBRANCH  18  19
ENDBRANCH  17  18
ENDBRANCH   1  17
TORSDOF 6
