REMARK  Name = molecules/KFQYTPMOWPVWEJ-INIZCTEOSA-N.pdb
REMARK                            x       y       z     vdW  Elec       q    Type
REMARK                         _______ _______ _______ _____ _____    ______ ____
ROOT
ATOM      1  C   LIG    1       -4.217  -1.626   0.233  0.00  0.00    +0.120 A 
ATOM      2  C   LIG    1       -3.036  -0.945   0.132  0.00  0.00    -0.003 A 
ATOM      3  C   LIG    1       -1.728  -1.580   0.377  0.00  0.00    +0.040 C 
ATOM      4  C   LIG    1       -0.866  -1.099  -0.807  0.00  0.00    +0.024 C 
ATOM      5  C   LIG    1       -0.552   0.332  -0.593  0.00  0.00    +0.061 C 
ATOM      6  C   LIG    1       -1.780   1.125  -0.292  0.00  0.00    +0.054 C 
ATOM      7  C   LIG    1       -3.054   0.378  -0.229  0.00  0.00    -0.039 A 
ATOM      8  C   LIG    1       -4.260   1.035  -0.497  0.00  0.00    +0.004 A 
ATOM      9  C   LIG    1       -5.439   0.350  -0.395  0.00  0.00    +0.004 A 
ATOM     10  C   LIG    1       -5.439  -0.973  -0.034  0.00  0.00    +0.046 A 
ENDROOT
BRANCH   1  11
ATOM     11  O   LIG    1       -4.253  -2.952   0.591  0.00  0.00    -0.506 OA
ATOM     12  H   LIG    1       -3.462  -3.515   0.803  0.00  0.00    +0.292 HD
ENDBRANCH   1  11
BRANCH   5  13
ATOM     13  N   LIG    1        0.398   0.569   0.493  0.00  0.00    -0.299 NA
BRANCH  13  14
ATOM     14  C   LIG    1        0.734   1.945   0.579  0.00  0.00    +0.084 C 
BRANCH  14  15
ATOM     15  C   LIG    1        1.443   2.286   1.906  0.00  0.00    +0.012 C 
ATOM     16  C   LIG    1        1.769   3.766   1.906  0.00  0.00    +0.005 C 
ENDBRANCH  14  15
ENDBRANCH  13  14
BRANCH  13  17
ATOM     17  C   LIG    1        1.558  -0.293   0.337  0.00  0.00    +0.090 C 
BRANCH  17  18
ATOM     18  C   LIG    1        2.376   0.016  -0.858  0.00  0.00    +0.058 C 
BRANCH  18  19
ATOM     19  C   LIG    1        3.530  -0.959  -0.896  0.00  0.00    -0.009 A 
ATOM     20  S   LIG    1        5.105  -0.799  -0.258  0.00  0.00    -0.102 S 
ATOM     21  C   LIG    1        5.753  -2.298  -0.749  0.00  0.00    +0.045 A 
ATOM     22  C   LIG    1        4.702  -2.883  -1.406  0.00  0.00    +0.008 A 
ATOM     23  C   LIG    1        3.562  -2.196  -1.481  0.00  0.00    +0.011 A 
ENDBRANCH  18  19
ENDBRANCH  17  18
ENDBRANCH  13  17
ENDBRANCH   5  13
TORSDOF 7
