REMARK  Name = molecules/KFZMGEQAYNKOFK-UHFFFAOYSA-N.pdb
REMARK                            x       y       z     vdW  Elec       q    Type
REMARK                         _______ _______ _______ _____ _____    ______ ____
ROOT
ATOM      1  C   LIG    1        1.285   0.011   0.146  0.00  0.00    +0.037 C 
ATOM      2  C   LIG    1       -0.127   0.265  -0.337  0.00  0.00    +0.108 C 
ATOM      3  C   LIG    1       -1.063  -0.868   0.024  0.00  0.00    +0.037 C 
ENDROOT
BRANCH   2   4
ATOM      4  O   LIG    1       -0.595   1.376   0.397  0.00  0.00    -0.392 OA
ATOM      5  H   LIG    1       -0.220   2.198   0.038  0.00  0.00    +0.210 HD
ENDBRANCH   2   4
TORSDOF 1
