REMARK  Name = molecules/KGNVBESWWSSQAN-QEVRMTOFSA-N.pdb
REMARK                            x       y       z     vdW  Elec       q    Type
REMARK                         _______ _______ _______ _____ _____    ______ ____
ROOT
ATOM      1  C   LIG    1       -1.532  -0.717  -0.916  0.00  0.00    +0.182 C 
ATOM      2  C   LIG    1       -1.365  -2.235  -0.994  0.00  0.00    +0.038 C 
ATOM      3  C   LIG    1        0.087  -2.447  -1.370  0.00  0.00    +0.012 C 
ATOM      4  C   LIG    1        0.705  -1.356  -0.594  0.00  0.00    +0.006 C 
ATOM      5  C   LIG    1        2.142  -1.026  -0.873  0.00  0.00    +0.034 C 
ATOM      6  C   LIG    1        2.493  -0.009   0.173  0.00  0.00    +0.153 C 
ATOM      7  F   LIG    1        2.375  -0.670   1.406  0.00  0.00    -0.238 F 
ATOM      8  C   LIG    1        1.612   1.184   0.205  0.00  0.00    +0.154 C 
ATOM      9  C   LIG    1        0.168   0.938  -0.084  0.00  0.00    +0.045 C 
ATOM     10  C   LIG    1        3.948   0.417   0.091  0.00  0.00    +0.044 C 
ATOM     11  C   LIG    1        4.183   1.435   1.102  0.00  0.00    -0.009 C 
ATOM     12  C   LIG    1        5.021   1.304   2.100  0.00  0.00    +0.047 C 
ATOM     13  C   LIG    1        5.793   0.085   2.261  0.00  0.00    +0.179 C 
ATOM     14  O   LIG    1        6.607  -0.077   3.202  0.00  0.00    -0.288 OA
ATOM     15  C   LIG    1        5.572  -0.968   1.254  0.00  0.00    +0.051 C 
ATOM     16  C   LIG    1        4.737  -0.795   0.291  0.00  0.00    -0.053 C 
ATOM     17  C   LIG    1        4.491  -1.902  -0.700  0.00  0.00    +0.032 C 
ATOM     18  C   LIG    1        4.273   0.944  -1.308  0.00  0.00    +0.023 C 
ATOM     19  C   LIG    1        3.015  -2.249  -0.714  0.00  0.00    +0.011 C 
ATOM     20  C   LIG    1       -2.318  -2.886  -1.922  0.00  0.00    +0.012 C 
ATOM     21  C   LIG    1       -0.103  -0.164  -1.048  0.00  0.00    +0.021 C 
ATOM     22  C   LIG    1        0.204   0.278  -2.430  0.00  0.00    +0.016 C 
ENDROOT
BRANCH   1  23
ATOM     23  C   LIG    1       -2.395  -0.215  -1.978  0.00  0.00    +0.214 C 
ATOM     24  O   LIG    1       -2.228  -0.693  -3.159  0.00  0.00    -0.289 OA
BRANCH  23  25
ATOM     25  C   LIG    1       -3.464   0.777  -1.958  0.00  0.00    +0.310 C 
BRANCH  25  26
ATOM     26  O   LIG    1       -3.699   1.481  -0.779  0.00  0.00    -0.457 OA
BRANCH  26  27
ATOM     27  C   LIG    1       -4.707   2.448  -0.706  0.00  0.00    +0.304 C 
ATOM     28  C   LIG    1       -4.941   3.184   0.546  0.00  0.00    +0.136 C 
ATOM     29  O   LIG    1       -5.372   2.631  -1.757  0.00  0.00    -0.251 OA
ENDBRANCH  26  27
ENDBRANCH  25  26
ENDBRANCH  23  25
ENDBRANCH   1  23
BRANCH   8  30
ATOM     30  O   LIG    1        2.045   2.213  -0.632  0.00  0.00    -0.389 OA
ATOM     31  H   LIG    1        1.714   3.102  -0.332  0.00  0.00    +0.210 HD
ENDBRANCH   8  30
BRANCH   1  32
ATOM     32  O   LIG    1       -1.930  -0.316   0.356  0.00  0.00    -0.449 OA
BRANCH  32  33
ATOM     33  C   LIG    1       -3.083  -0.571   1.023  0.00  0.00    +0.311 C 
ATOM     34  O   LIG    1       -3.970  -1.252   0.454  0.00  0.00    -0.251 OA
BRANCH  33  35
ATOM     35  C   LIG    1       -3.253  -0.048   2.388  0.00  0.00    +0.092 C 
ATOM     36  C   LIG    1       -4.704  -0.279   2.820  0.00  0.00    +0.019 C 
ATOM     37  C   LIG    1       -2.910   1.393   2.531  0.00  0.00    +0.019 C 
ENDBRANCH  33  35
ENDBRANCH  32  33
ENDBRANCH   1  32
TORSDOF 8
