REMARK  Name = molecules/KGPPDNUWZNWPSI-UHFFFAOYSA-N.pdb
REMARK                            x       y       z     vdW  Elec       q    Type
REMARK                         _______ _______ _______ _____ _____    ______ ____
ROOT
ATOM      1  O   LIG    1        0.134  -0.542  -0.632  0.00  0.00    -0.362 OA
ENDROOT
BRANCH   1   2
ATOM      2  C   LIG    1        0.941   0.115   0.280  0.00  0.00    +0.273 C 
BRANCH   2   4
ATOM      3  F   LIG    1        1.714  -1.959   1.083  0.00  0.00    -0.168 F 
ATOM      4  C   LIG    1        2.157  -0.765   0.565  0.00  0.00    +0.413 C 
ATOM      5  F   LIG    1        2.914  -0.137   1.533  0.00  0.00    -0.168 F 
ATOM      6  F   LIG    1        2.919  -0.934  -0.571  0.00  0.00    -0.168 F 
ENDBRANCH   2   4
ENDBRANCH   1   2
BRANCH   1   7
ATOM      7  C   LIG    1       -0.987   0.115  -1.023  0.00  0.00    +0.273 C 
BRANCH   7   8
ATOM      8  C   LIG    1       -1.988   0.478   0.013  0.00  0.00    +0.413 C 
ATOM      9  F   LIG    1       -1.554   1.305   1.011  0.00  0.00    -0.168 F 
ATOM     10  F   LIG    1       -2.626  -0.641   0.549  0.00  0.00    -0.168 F 
ATOM     11  F   LIG    1       -3.012   1.169  -0.653  0.00  0.00    -0.168 F 
ENDBRANCH   7   8
ENDBRANCH   1   7
TORSDOF 4
