REMARK  Name = molecules/KHAUBYTYGDOYRU-IRXASZMISA-N.pdb
REMARK                            x       y       z     vdW  Elec       q    Type
REMARK                         _______ _______ _______ _____ _____    ______ ____
ROOT
ATOM      1  C   LIG    1       -2.825  -0.468  -0.954  0.00  0.00    +0.115 C 
ATOM      2  C   LIG    1       -1.538  -0.826  -0.203  0.00  0.00    +0.173 C 
ATOM      3  C   LIG    1       -0.890   0.502   0.122  0.00  0.00    +0.182 C 
ATOM      4  C   LIG    1       -1.736   1.131   1.171  0.00  0.00    +0.165 C 
ATOM      5  C   LIG    1       -3.157   1.375   0.747  0.00  0.00    +0.115 C 
ATOM      6  O   LIG    1        0.399   0.384   0.570  0.00  0.00    -0.338 OA
ATOM      7  C   LIG    1        0.876  -0.918   0.536  0.00  0.00    +0.319 C 
ATOM      8  O   LIG    1        2.206  -0.989   0.827  0.00  0.00    -0.343 OA
ATOM      9  C   LIG    1        3.060  -0.403  -0.064  0.00  0.00    +0.129 C 
ATOM     10  C   LIG    1        2.380   0.084  -1.320  0.00  0.00    +0.112 C 
ATOM     11  C   LIG    1        1.460  -1.007  -1.796  0.00  0.00    +0.199 C 
ATOM     12  O   LIG    1        1.433  -1.397  -2.948  0.00  0.00    -0.291 OA
ATOM     13  C   LIG    1        0.568  -1.595  -0.767  0.00  0.00    +0.281 C 
ATOM     14  O   LIG    1       -0.762  -1.533  -1.137  0.00  0.00    -0.331 OA
ATOM     15  C   LIG    1       -3.718   0.485  -0.282  0.00  0.00    +0.153 C 
ENDROOT
BRANCH   1  16
ATOM     16  N   LIG    1       -3.441  -1.603  -1.550  0.00  0.00    -0.312 NA
ATOM     17  C   LIG    1       -3.864  -2.663  -0.721  0.00  0.00    +0.101 C 
ATOM     18  H   LIG    1       -3.086  -1.900  -2.460  0.00  0.00    +0.122 HD
ENDBRANCH   1  16
BRANCH   5  19
ATOM     19  N   LIG    1       -3.989   1.513   1.916  0.00  0.00    -0.312 NA
ATOM     20  H   LIG    1       -3.925   0.785   2.619  0.00  0.00    +0.122 HD
ATOM     21  C   LIG    1       -5.269   2.103   1.693  0.00  0.00    +0.101 C 
ENDBRANCH   5  19
BRANCH   4  22
ATOM     22  O   LIG    1       -1.105   2.329   1.564  0.00  0.00    -0.387 OA
ATOM     23  H   LIG    1       -1.675   2.872   2.149  0.00  0.00    +0.210 HD
ENDBRANCH   4  22
BRANCH  13  24
ATOM     24  O   LIG    1        0.941  -2.945  -0.642  0.00  0.00    -0.355 OA
ATOM     25  H   LIG    1        0.492  -3.478  -1.331  0.00  0.00    +0.213 HD
ENDBRANCH  13  24
BRANCH  15  26
ATOM     26  O   LIG    1       -4.825  -0.180   0.234  0.00  0.00    -0.389 OA
ATOM     27  H   LIG    1       -4.864  -0.270   1.193  0.00  0.00    +0.210 HD
ENDBRANCH  15  26
BRANCH   9  28
ATOM     28  C   LIG    1        3.829   0.681   0.622  0.00  0.00    +0.032 C 
BRANCH  28  29
ATOM     29  C   LIG    1        4.808   1.403  -0.260  0.00  0.00    +0.002 C 
BRANCH  29  30
ATOM     30  C   LIG    1        5.851   0.482  -0.834  0.00  0.00    -0.003 C 
ATOM     31  C   LIG    1        6.616  -0.156   0.309  0.00  0.00    +0.004 C 
ENDBRANCH  29  30
ENDBRANCH  28  29
ENDBRANCH   9  28
TORSDOF 8
