REMARK  Name = molecules/KHKDIUPVDIEHAH-KXLSUQFWSA-N.pdb
REMARK                            x       y       z     vdW  Elec       q    Type
REMARK                         _______ _______ _______ _____ _____    ______ ____
ROOT
ATOM      1  C   LIG    1        0.068   0.109   1.865  0.00  0.00    +0.015 C 
ATOM      2  C   LIG    1        0.318   0.661   0.494  0.00  0.00    +0.008 C 
ATOM      3  C   LIG    1        1.618   1.408   0.370  0.00  0.00    +0.002 C 
ATOM      4  C   LIG    1        1.436   2.504   1.346  0.00  0.00    +0.008 C 
ATOM      5  C   LIG    1        0.031   3.003   0.971  0.00  0.00    +0.045 C 
ATOM      6  C   LIG    1        2.784   0.509   0.541  0.00  0.00    -0.003 C 
ATOM      7  C   LIG    1        4.075   1.251   0.705  0.00  0.00    +0.008 C 
ATOM      8  C   LIG    1        5.137   0.181   1.023  0.00  0.00    +0.035 C 
ATOM      9  C   LIG    1        5.205  -0.618  -0.263  0.00  0.00    -0.021 C 
ATOM     10  C   LIG    1        3.981  -1.321  -0.673  0.00  0.00    +0.022 C 
ATOM     11  C   LIG    1        4.072  -2.079  -1.939  0.00  0.00    +0.016 C 
ATOM     12  C   LIG    1        5.048  -1.505  -2.941  0.00  0.00    +0.083 C 
ATOM     13  C   LIG    1        6.368  -1.402  -2.239  0.00  0.00    +0.197 C 
ATOM     14  O   LIG    1        7.427  -1.888  -2.649  0.00  0.00    -0.289 OA
ATOM     15  C   LIG    1        6.311  -0.650  -0.974  0.00  0.00    +0.159 C 
ATOM     16  C   LIG    1        2.778  -0.408  -0.698  0.00  0.00    -0.000 C 
ATOM     17  C   LIG    1        1.507  -1.220  -0.545  0.00  0.00    +0.005 C 
ATOM     18  C   LIG    1       -0.658   1.810   0.295  0.00  0.00    +0.183 C 
ATOM     19  C   LIG    1        0.277  -0.356  -0.596  0.00  0.00    +0.011 C 
ENDROOT
BRANCH  15  20
ATOM     20  O   LIG    1        7.427   0.039  -0.517  0.00  0.00    -0.503 OA
ATOM     21  H   LIG    1        7.799  -0.147   0.427  0.00  0.00    +0.292 HD
ENDBRANCH  15  20
BRANCH  18  22
ATOM     22  O   LIG    1       -1.831   1.500   1.024  0.00  0.00    -0.461 OA
BRANCH  22  23
ATOM     23  C   LIG    1       -3.100   1.446   0.398  0.00  0.00    +0.307 C 
ATOM     24  O   LIG    1       -3.065   1.696  -0.830  0.00  0.00    -0.251 OA
BRANCH  23  25
ATOM     25  C   LIG    1       -4.310   1.121   1.180  0.00  0.00    +0.121 C 
BRANCH  25  26
ATOM     26  C   LIG    1       -5.504   1.011   0.305  0.00  0.00    +0.014 C 
BRANCH  26  27
ATOM     27  C   LIG    1       -5.344  -0.116  -0.680  0.00  0.00    -0.010 C 
ATOM     28  C   LIG    1       -5.313  -1.396   0.130  0.00  0.00    +0.003 C 
ATOM     29  C   LIG    1       -6.208  -2.344  -0.599  0.00  0.00    +0.000 C 
ATOM     30  C   LIG    1       -7.257  -1.485  -1.284  0.00  0.00    +0.000 C 
ATOM     31  C   LIG    1       -6.603  -0.156  -1.527  0.00  0.00    +0.003 C 
ENDBRANCH  26  27
ENDBRANCH  25  26
ENDBRANCH  23  25
ENDBRANCH  22  23
ENDBRANCH  18  22
TORSDOF 6
