REMARK  Name = molecules/KIHYPELVXPAIDH-HNSNBQBZSA-N.pdb
REMARK                            x       y       z     vdW  Elec       q    Type
REMARK                         _______ _______ _______ _____ _____    ______ ____
ROOT
ATOM      1  N   LIG    1        0.509   0.150   0.460  0.00  0.00    -0.089 NA
ATOM      2  C   LIG    1        1.200  -0.359  -0.499  0.00  0.00    +0.084 C 
ATOM      3  C   LIG    1        0.605  -0.927  -1.723  0.00  0.00    +0.069 C 
ENDROOT
BRANCH   2   4
ATOM      4  C   LIG    1        2.651  -0.368  -0.352  0.00  0.00    -0.001 A 
ATOM      5  C   LIG    1        3.227   0.144   0.781  0.00  0.00    +0.013 A 
ATOM      6  C   LIG    1        4.588   0.121   0.912  0.00  0.00    -0.043 A 
ATOM      7  C   LIG    1        5.395  -0.413  -0.087  0.00  0.00    -0.030 A 
ATOM      8  C   LIG    1        4.793  -0.921  -1.215  0.00  0.00    +0.006 A 
ATOM      9  C   LIG    1        3.407  -0.912  -1.378  0.00  0.00    +0.010 A 
BRANCH   6  10
ATOM     10  C   LIG    1        5.211   0.668   2.135  0.00  0.00    +0.032 C 
ATOM     11  C   LIG    1        5.615  -0.486   3.018  0.00  0.00    +0.009 C 
ENDBRANCH   6  10
BRANCH   7  12
ATOM     12  C   LIG    1        6.861  -0.443   0.079  0.00  0.00    +0.119 C 
BRANCH  12  13
ATOM     13  N   LIG    1        7.590  -0.990  -1.011  0.00  0.00    -0.296 NA
ATOM     14  C   LIG    1        9.016  -0.901  -0.924  0.00  0.00    +0.100 C 
ATOM     15  C   LIG    1        9.035  -0.020  -2.148  0.00  0.00    +0.125 C 
ATOM     16  C   LIG    1        7.554  -0.341  -2.280  0.00  0.00    +0.100 C 
BRANCH  15  17
ATOM     17  C   LIG    1        9.350   1.377  -1.798  0.00  0.00    +0.310 C 
ATOM     18  O   LIG    1        8.454   2.240  -1.631  0.00  0.00    -0.251 OA
BRANCH  17  19
ATOM     19  O   LIG    1       10.673   1.736  -1.652  0.00  0.00    -0.480 OA
ATOM     20  H   LIG    1       11.060   2.269  -0.903  0.00  0.00    +0.295 HD
ENDBRANCH  17  19
ENDBRANCH  15  17
ENDBRANCH  12  13
ENDBRANCH   7  12
ENDBRANCH   2   4
BRANCH   1  21
ATOM     21  O   LIG    1       -0.834   0.188   0.386  0.00  0.00    -0.389 OA
BRANCH  21  22
ATOM     22  C   LIG    1       -1.575   1.351   0.181  0.00  0.00    +0.298 C 
BRANCH  22  24
ATOM     23  C   LIG    1       -3.707   0.648  -0.981  0.00  0.00    +0.007 A 
ATOM     24  C   LIG    1       -3.032   0.953   0.180  0.00  0.00    -0.007 A 
ATOM     25  C   LIG    1       -3.732   0.878   1.358  0.00  0.00    +0.019 A 
ATOM     26  C   LIG    1       -5.082   0.513   1.442  0.00  0.00    +0.059 A 
ATOM     27  C   LIG    1       -5.748   0.213   0.286  0.00  0.00    -0.033 A 
ATOM     28  C   LIG    1       -5.042   0.285  -0.925  0.00  0.00    +0.005 A 
BRANCH  27  29
ATOM     29  C   LIG    1       -7.164  -0.135   0.307  0.00  0.00    +0.020 C 
ATOM     30  C   LIG    1       -8.105   1.064   0.206  0.00  0.00    +0.008 C 
ATOM     31  C   LIG    1       -9.457   0.515   0.660  0.00  0.00    +0.001 C 
ATOM     32  C   LIG    1       -9.915  -0.556  -0.303  0.00  0.00    +0.000 C 
ATOM     33  C   LIG    1       -8.869  -1.519  -0.727  0.00  0.00    +0.001 C 
ATOM     34  C   LIG    1       -7.510  -0.883  -1.014  0.00  0.00    +0.008 C 
ENDBRANCH  27  29
BRANCH  26  35
ATOM     35  C   LIG    1       -5.689   0.427   2.756  0.00  0.00    +0.418 C 
ATOM     36  F   LIG    1       -4.757   0.863   3.719  0.00  0.00    -0.166 F 
ATOM     37  F   LIG    1       -5.970  -0.872   3.155  0.00  0.00    -0.166 F 
ATOM     38  F   LIG    1       -6.768   1.253   2.940  0.00  0.00    -0.166 F 
ENDBRANCH  26  35
ENDBRANCH  22  24
ENDBRANCH  21  22
ENDBRANCH   1  21
TORSDOF 11
