REMARK  Name = molecules/KINWYTAUPKOPCQ-YFKPBYRVSA-N.pdb
REMARK                            x       y       z     vdW  Elec       q    Type
REMARK                         _______ _______ _______ _____ _____    ______ ____
ROOT
ATOM      1  C   UNK    1        2.338   0.536   0.142  0.00  0.00    +0.170 C 
ENDROOT
BRANCH   1   2
ATOM      2  N   UNK    1        3.418   0.807  -0.784  0.00  0.00    -0.318 NA
ATOM      3  H   UNK    1        3.063   1.579  -1.423  0.00  0.00    +0.119 HD
ATOM      4  H   UNK    1        3.521  -0.023  -1.437  0.00  0.00    +0.119 HD
ENDBRANCH   1   2
BRANCH   1   5
ATOM      5  C   UNK    1        2.733  -0.602   0.998  0.00  0.00    +0.323 C 
ATOM      6  O   UNK    1        1.980  -1.056   1.900  0.00  0.00    -0.249 OA
BRANCH   5   7
ATOM      7  O   UNK    1        3.960  -1.198   0.817  0.00  0.00    -0.480 OA
ATOM      8  H   UNK    1        4.807  -0.640   0.746  0.00  0.00    +0.295 HD
ENDBRANCH   5   7
ENDBRANCH   1   5
BRANCH   1   9
ATOM      9  C   UNK    1        1.120   0.210  -0.689  0.00  0.00    +0.099 C 
BRANCH   9  10
ATOM     10  S   UNK    1       -0.320  -0.206   0.296  0.00  0.00    -0.159 S 
BRANCH  10  11
ATOM     11  C   UNK    1       -1.675  -0.566  -0.855  0.00  0.00    +0.071 C 
BRANCH  11  12
ATOM     12  C   UNK    1       -2.946  -0.930  -0.138  0.00  0.00    +0.038 C 
BRANCH  12  13
ATOM     13  C   UNK    1       -3.362   0.242   0.750  0.00  0.00    +0.156 C 
BRANCH  13  14
ATOM     14  O   UNK    1       -3.573   1.372  -0.028  0.00  0.00    -0.395 OA
ATOM     15  H   UNK    1       -2.725   1.877  -0.200  0.00  0.00    +0.209 HD
ENDBRANCH  13  14
ENDBRANCH  12  13
ENDBRANCH  11  12
ENDBRANCH  10  11
ENDBRANCH   9  10
ENDBRANCH   1   9
TORSDOF 9
