REMARK  Name = molecules/KJADKKWYZYXHBB-XBWDGYHZSA-N.pdb
REMARK                            x       y       z     vdW  Elec       q    Type
REMARK                         _______ _______ _______ _____ _____    ______ ____
ROOT
ATOM      1  O   LIG    1        0.623   1.407   0.579  0.00  0.00    -0.342 OA
ATOM      2  C   LIG    1       -0.304   1.070   1.522  0.00  0.00    +0.197 C 
ATOM      3  C   LIG    1       -1.590   0.519   1.002  0.00  0.00    +0.179 C 
ATOM      4  O   LIG    1       -2.558   1.514   0.783  0.00  0.00    -0.341 OA
ATOM      5  C   LIG    1       -3.360   0.953  -0.200  0.00  0.00    +0.166 C 
ATOM      6  C   LIG    1       -4.260  -0.133   0.312  0.00  0.00    +0.074 C 
ATOM      7  C   LIG    1       -4.232   1.988  -0.893  0.00  0.00    +0.074 C 
ATOM      8  O   LIG    1       -2.428   0.522  -1.125  0.00  0.00    -0.341 OA
ATOM      9  C   LIG    1       -1.522  -0.168  -0.317  0.00  0.00    +0.187 C 
ATOM     10  C   LIG    1       -0.162  -0.289  -0.931  0.00  0.00    +0.214 C 
ATOM     11  O   LIG    1        0.186  -1.656  -1.032  0.00  0.00    -0.338 OA
ATOM     12  C   LIG    1        0.879  -1.977   0.125  0.00  0.00    +0.169 C 
ATOM     13  C   LIG    1        0.204  -3.037   0.951  0.00  0.00    +0.074 C 
ATOM     14  O   LIG    1        1.129  -0.815   0.817  0.00  0.00    -0.313 OA
ATOM     15  C   LIG    1        2.228  -2.554  -0.299  0.00  0.00    +0.074 C 
ATOM     16  C   LIG    1        0.933   0.247  -0.150  0.00  0.00    +0.228 C 
ENDROOT
BRANCH  16  17
ATOM     17  C   LIG    1        2.249   0.515  -0.788  0.00  0.00    +0.262 C 
BRANCH  17  18
ATOM     18  O   LIG    1        2.477   1.890  -0.919  0.00  0.00    -0.220 OA
BRANCH  18  19
ATOM     19  S   LIG    1        3.913   2.300  -0.137  0.00  0.00    +0.149 S 
ATOM     20  O   LIG    1        3.518   2.829   1.247  0.00  0.00    -0.130 OA
ATOM     21  O   LIG    1        4.585   3.409  -0.833  0.00  0.00    -0.130 OA
BRANCH  19  22
ATOM     22  N   LIG    1        4.979   1.008   0.118  0.00  0.00    -0.183 NA
ATOM     23  H   LIG    1        5.882   1.417   0.489  0.00  0.00    +0.146 HD
ATOM     24  H   LIG    1        5.226   0.483  -0.740  0.00  0.00    +0.146 HD
ENDBRANCH  19  22
ENDBRANCH  18  19
ENDBRANCH  17  18
ENDBRANCH  16  17
TORSDOF 4
