REMARK  Name = molecules/KJAMZCVTJDTESW-UHFFFAOYSA-N.pdb
REMARK                            x       y       z     vdW  Elec       q    Type
REMARK                         _______ _______ _______ _____ _____    ______ ____
ROOT
ATOM      1  C   LIG    1       -1.449  -0.819   1.014  0.00  0.00    +0.238 C 
ATOM      2  O   LIG    1       -0.998  -0.860   2.258  0.00  0.00    -0.273 OA
ATOM      3  N   LIG    1       -1.377   0.468   0.477  0.00  0.00    -0.239 N 
ATOM      4  C   LIG    1       -2.510   1.325   0.469  0.00  0.00    +0.045 A 
ATOM      5  C   LIG    1       -3.607   0.693   0.972  0.00  0.00    +0.024 A 
ATOM      6  C   LIG    1       -4.828   1.320   1.076  0.00  0.00    +0.002 A 
ATOM      7  C   LIG    1       -4.999   2.641   0.670  0.00  0.00    +0.000 A 
ATOM      8  C   LIG    1       -3.893   3.284   0.164  0.00  0.00    +0.005 A 
ATOM      9  C   LIG    1       -2.662   2.651   0.061  0.00  0.00    -0.025 A 
ATOM     10  C   LIG    1       -1.623   3.578  -0.446  0.00  0.00    +0.042 C 
ATOM     11  C   LIG    1       -0.680   2.973  -1.411  0.00  0.00    +0.042 C 
ATOM     12  C   LIG    1        0.263   2.049  -0.727  0.00  0.00    -0.025 A 
ATOM     13  C   LIG    1        1.573   2.349  -1.010  0.00  0.00    +0.007 A 
ATOM     14  C   LIG    1        2.590   1.567  -0.530  0.00  0.00    +0.024 A 
ATOM     15  C   LIG    1        2.295   0.476   0.239  0.00  0.00    +0.038 A 
ATOM     16  C   LIG    1        0.945   0.179   0.524  0.00  0.00    +0.047 A 
ATOM     17  C   LIG    1       -0.074   0.940   0.061  0.00  0.00    +0.046 A 
ENDROOT
BRANCH  15  18
ATOM     18  N   LIG    1        3.265  -0.402   0.769  0.00  0.00    -0.251 N 
ATOM     19  H   LIG    1        2.946  -1.027   1.592  0.00  0.00    +0.158 HD
ATOM     20  C   LIG    1        4.591  -0.520   0.322  0.00  0.00    +0.405 C 
ATOM     21  O   LIG    1        5.028   0.170  -0.606  0.00  0.00    -0.226 OA
BRANCH  20  22
ATOM     22  O   LIG    1        5.438  -1.425   0.924  0.00  0.00    -0.450 OA
BRANCH  22  23
ATOM     23  C   LIG    1        6.790  -1.599   0.521  0.00  0.00    +0.230 C 
ATOM     24  C   LIG    1        7.454  -2.673   1.356  0.00  0.00    +0.048 C 
ENDBRANCH  22  23
ENDBRANCH  20  22
ENDBRANCH  15  18
BRANCH   1  25
ATOM     25  C   LIG    1       -1.886  -2.100   0.528  0.00  0.00    +0.180 C 
BRANCH  25  26
ATOM     26  N   LIG    1       -2.353  -2.244  -0.812  0.00  0.00    -0.300 NA
ATOM     27  C   LIG    1       -2.450  -3.741  -1.031  0.00  0.00    +0.105 C 
ATOM     28  C   LIG    1       -3.718  -1.826  -1.066  0.00  0.00    +0.105 C 
ENDBRANCH  25  26
ENDBRANCH   1  25
TORSDOF 5
