REMARK  Name = molecules/KJHOZAZQWVKILO-UHFFFAOYSA-N.pdb
REMARK                            x       y       z     vdW  Elec       q    Type
REMARK                         _______ _______ _______ _____ _____    ______ ____
ROOT
ATOM      1  C   LIG    1        0.629   0.371  -0.363  0.00  0.00    +0.382 C 
ATOM      2  N   LIG    1        0.694   1.344  -1.204  0.00  0.00    -0.131 NA
ATOM      3  H   LIG    1       -0.139   1.840  -1.581  0.00  0.00    +0.306 HD
ENDROOT
BRANCH   1   4
ATOM      4  N   LIG    1       -0.656  -0.047   0.073  0.00  0.00    -0.218 N 
ATOM      5  C   LIG    1       -1.222   0.357   1.360  0.00  0.00    +0.215 C 
ATOM      6  C   LIG    1       -2.569   0.973   0.958  0.00  0.00    +0.195 C 
ATOM      7  O   LIG    1       -3.389  -0.019   0.539  0.00  0.00    -0.374 OA
ATOM      8  C   LIG    1       -2.906  -0.969  -0.277  0.00  0.00    +0.195 C 
ATOM      9  C   LIG    1       -1.506  -0.903  -0.717  0.00  0.00    +0.215 C 
ENDBRANCH   1   4
BRANCH   1  10
ATOM     10  N   LIG    1        1.802  -0.263   0.113  0.00  0.00    -0.188 N 
ATOM     11  H   LIG    1        1.724  -1.003   0.846  0.00  0.00    +0.270 HD
BRANCH  10  12
ATOM     12  C   LIG    1        3.078   0.087  -0.386  0.00  0.00    +0.385 C 
ATOM     13  N   LIG    1        4.235  -0.674  -0.098  0.00  0.00    -0.289 N 
ATOM     14  H   LIG    1        5.154  -0.202   0.084  0.00  0.00    +0.255 HD
ATOM     15  H   LIG    1        4.125  -1.715  -0.075  0.00  0.00    +0.255 HD
BRANCH  12  16
ATOM     16  N   LIG    1        3.194   1.127  -1.123  0.00  0.00    -0.129 NA
ATOM     17  H   LIG    1        4.107   1.429  -1.516  0.00  0.00    +0.306 HD
ENDBRANCH  12  16
ENDBRANCH  10  12
ENDBRANCH   1  10
TORSDOF 4
