REMARK  Name = molecules/KJKJUXGEMYCCJN-UHFFFAOYSA-N.pdb
REMARK                            x       y       z     vdW  Elec       q    Type
REMARK                         _______ _______ _______ _____ _____    ______ ____
ROOT
ATOM      1  N   LIG    1       -1.073   0.470   0.516  0.00  0.00    -0.300 N 
ATOM      2  C   LIG    1       -1.500  -0.878   0.784  0.00  0.00    +0.044 C 
ATOM      3  C   LIG    1       -0.805  -1.624   1.700  0.00  0.00    +0.006 C 
ATOM      4  C   LIG    1       -1.186  -2.933   2.023  0.00  0.00    +0.047 C 
ATOM      5  C   LIG    1       -2.275  -3.517   1.429  0.00  0.00    -0.017 C 
ATOM      6  C   LIG    1       -2.954  -2.734   0.508  0.00  0.00    +0.013 C 
ATOM      7  C   LIG    1       -2.583  -1.475   0.201  0.00  0.00    +0.033 C 
ATOM      8  S   LIG    1       -3.544  -0.611  -1.008  0.00  0.00    -0.090 S 
ATOM      9  C   LIG    1       -2.863   1.017  -1.128  0.00  0.00    +0.016 C 
ATOM     10  C   LIG    1       -3.496   1.906  -1.965  0.00  0.00    +0.061 C 
ATOM     11  C   LIG    1       -3.032   3.186  -2.109  0.00  0.00    -0.021 C 
ATOM     12  C   LIG    1       -1.922   3.565  -1.403  0.00  0.00    -0.020 C 
ATOM     13  C   LIG    1       -1.296   2.640  -0.556  0.00  0.00    +0.069 C 
ATOM     14  C   LIG    1       -1.752   1.336  -0.398  0.00  0.00    +0.029 C 
ENDROOT
BRANCH   1  15
ATOM     15  C   LIG    1        0.141   0.963   1.139  0.00  0.00    +0.126 C 
BRANCH  15  16
ATOM     16  C   LIG    1        1.325   1.015   0.231  0.00  0.00    +0.103 C 
BRANCH  16  17
ATOM     17  N   LIG    1        1.763  -0.248  -0.310  0.00  0.00    -0.301 NA
ATOM     18  C   LIG    1        2.361  -1.149   0.609  0.00  0.00    +0.084 C 
ATOM     19  C   LIG    1        3.804  -1.342   0.218  0.00  0.00    +0.017 C 
ATOM     20  C   LIG    1        4.078  -0.090  -0.598  0.00  0.00    +0.017 C 
ATOM     21  C   LIG    1        2.748   0.049  -1.340  0.00  0.00    +0.084 C 
ENDBRANCH  16  17
ENDBRANCH  15  16
ENDBRANCH   1  15
TORSDOF 3
