REMARK  Name = molecules/KJLLKLRVCJAFRY-UPFKWVMWSA-N.pdb
REMARK                            x       y       z     vdW  Elec       q    Type
REMARK                         _______ _______ _______ _____ _____    ______ ____
ROOT
ATOM      1  O   LIG    1        1.248   3.054  -0.919  0.00  0.00    -0.153 OA
ATOM      2  S   LIG    1        0.939   1.603  -1.118  0.00  0.00    +0.062 S 
ATOM      3  C   LIG    1        2.148   0.657  -0.336  0.00  0.00    +0.128 A 
ATOM      4  C   LIG    1        1.730  -0.520   0.264  0.00  0.00    +0.056 A 
ATOM      5  C   LIG    1        2.662  -1.315   0.895  0.00  0.00    +0.047 A 
ATOM      6  C   LIG    1        3.983  -0.934   0.922  0.00  0.00    +0.069 A 
ATOM      7 CL   LIG    1        5.173  -1.929   1.718  0.00  0.00    -0.081 Cl
ATOM      8  C   LIG    1        4.378   0.254   0.312  0.00  0.00    +0.125 A 
ATOM      9  N   LIG    1        0.354  -0.842   0.198  0.00  0.00    -0.326 N 
ATOM     10  C   LIG    1       -0.728   0.079   0.284  0.00  0.00    +0.163 C 
ATOM     11  H   LIG    1        0.144  -1.875   0.076  0.00  0.00    +0.148 HD
ATOM     12  C   LIG    1        3.438   1.039  -0.315  0.00  0.00    +0.060 A 
ATOM     13  N   LIG    1       -0.635   1.220  -0.567  0.00  0.00    -0.170 NA
ATOM     14  H   LIG    1       -0.994   2.075  -0.073  0.00  0.00    +0.150 HD
ATOM     15  O   LIG    1        1.033   1.333  -2.609  0.00  0.00    -0.153 OA
ENDROOT
BRANCH   8  16
ATOM     16  S   LIG    1        6.071   0.678   0.384  0.00  0.00    +0.057 S 
ATOM     17  O   LIG    1        6.453   0.819   1.851  0.00  0.00    -0.153 OA
ATOM     18  O   LIG    1        6.331   2.017  -0.244  0.00  0.00    -0.153 OA
BRANCH  16  19
ATOM     19  N   LIG    1        7.048  -0.514  -0.359  0.00  0.00    -0.203 NA
ATOM     20  H   LIG    1        6.507  -1.273  -0.819  0.00  0.00    +0.144 HD
ATOM     21  H   LIG    1        7.765  -0.076  -0.989  0.00  0.00    +0.144 HD
ENDBRANCH  16  19
ENDBRANCH   8  16
BRANCH  10  22
ATOM     22  C   LIG    1       -2.022  -0.643  -0.003  0.00  0.00    +0.025 C 
ATOM     23  C   LIG    1       -2.063  -1.827   0.964  0.00  0.00    +0.011 C 
BRANCH  22  24
ATOM     24  C   LIG    1       -3.262   0.151   0.202  0.00  0.00    -0.008 C 
ATOM     25  C   LIG    1       -3.406   1.367  -0.660  0.00  0.00    +0.008 C 
BRANCH  24  26
ATOM     26  C   LIG    1       -4.456  -0.746  -0.130  0.00  0.00    +0.000 C 
ATOM     27  C   LIG    1       -5.753  -0.033   0.047  0.00  0.00    +0.004 C 
ENDBRANCH  24  26
ENDBRANCH  22  24
ENDBRANCH  10  22
TORSDOF 5
