REMARK  Name = molecules/KJONHKAYOJNZEC-UHFFFAOYSA-N.pdb
REMARK                            x       y       z     vdW  Elec       q    Type
REMARK                         _______ _______ _______ _____ _____    ______ ____
ROOT
ATOM      1  C   LIG    1        2.480  -1.031   0.323  0.00  0.00    +0.127 A 
ATOM      2  C   LIG    1        1.148  -0.711   0.452  0.00  0.00    +0.044 A 
ATOM      3  C   LIG    1        0.686   0.519   0.004  0.00  0.00    +0.024 A 
ATOM      4  C   LIG    1       -0.738   0.656   0.174  0.00  0.00    +0.075 C 
ATOM      5  N   LIG    1       -1.296   1.798   0.514  0.00  0.00    -0.273 NA
ATOM      6  C   LIG    1       -0.693   3.087   0.771  0.00  0.00    +0.238 C 
ATOM      7  C   LIG    1        0.234   3.503  -0.317  0.00  0.00    +0.239 C 
ATOM      8  O   LIG    1        0.092   4.642  -0.752  0.00  0.00    -0.273 OA
ATOM      9  N   LIG    1        1.290   2.737  -0.936  0.00  0.00    -0.283 N 
ATOM     10  H   LIG    1        1.879   3.131  -1.676  0.00  0.00    +0.155 HD
ATOM     11  C   LIG    1        1.611   1.378  -0.551  0.00  0.00    +0.043 A 
ATOM     12  C   LIG    1        2.941   1.065  -0.683  0.00  0.00    +0.026 A 
ATOM     13  C   LIG    1        3.403  -0.156  -0.245  0.00  0.00    +0.034 A 
ENDROOT
BRANCH   4  14
ATOM     14  C   LIG    1       -1.599  -0.477  -0.008  0.00  0.00    +0.001 A 
ATOM     15  C   LIG    1       -2.933  -0.390   0.452  0.00  0.00    +0.010 A 
ATOM     16  C   LIG    1       -3.795  -1.457   0.393  0.00  0.00    +0.001 A 
ATOM     17  C   LIG    1       -3.388  -2.664  -0.122  0.00  0.00    +0.000 A 
ATOM     18  C   LIG    1       -2.101  -2.790  -0.581  0.00  0.00    +0.001 A 
ATOM     19  C   LIG    1       -1.251  -1.678  -0.505  0.00  0.00    +0.010 A 
ENDBRANCH   4  14
BRANCH   1  20
ATOM     20  N   LIG    1        2.947  -2.300   0.773  0.00  0.00    +0.056 N 
ATOM     21  O   LIG    1        2.134  -3.082   1.282  0.00  0.00    -0.126 OA
ATOM     22  O   LIG    1        4.255  -2.685   0.665  0.00  0.00    -0.126 OA
ENDBRANCH   1  20
TORSDOF 2
