REMARK  Name = molecules/KJVQYDYPDFFJMP-UHFFFAOYSA-N.pdb
REMARK                            x       y       z     vdW  Elec       q    Type
REMARK                         _______ _______ _______ _____ _____    ______ ____
ROOT
ATOM      1  S   LIG    1       -0.080   2.377   0.674  0.00  0.00    +0.074 S 
ATOM      2  O   LIG    1        0.627   2.139   1.980  0.00  0.00    -0.150 OA
ATOM      3  O   LIG    1       -0.854   3.656   0.812  0.00  0.00    -0.150 OA
ENDROOT
BRANCH   1   4
ATOM      4  C   LIG    1       -1.199   1.033   0.431  0.00  0.00    +0.109 A 
ATOM      5  C   LIG    1       -0.910  -0.243   0.871  0.00  0.00    +0.030 A 
ATOM      6  C   LIG    1       -1.783  -1.279   0.677  0.00  0.00    +0.024 A 
ATOM      7  C   LIG    1       -2.991  -1.086   0.032  0.00  0.00    +0.025 A 
ATOM      8  C   LIG    1       -3.280   0.183  -0.407  0.00  0.00    +0.024 A 
ATOM      9  C   LIG    1       -2.403   1.228  -0.213  0.00  0.00    +0.030 A 
BRANCH   7  10
ATOM     10  N   LIG    1       -3.900  -2.141  -0.175  0.00  0.00    -0.358 N 
ATOM     11  H   LIG    1       -3.779  -3.011   0.384  0.00  0.00    +0.142 HD
ATOM     12  H   LIG    1       -4.664  -2.033  -0.871  0.00  0.00    +0.142 HD
ENDBRANCH   7  10
ENDBRANCH   1   4
BRANCH   1  13
ATOM     13  N   LIG    1        1.007   2.527  -0.633  0.00  0.00    -0.194 N 
ATOM     14  H   LIG    1        1.033   3.391  -1.219  0.00  0.00    +0.176 HD
BRANCH  13  15
ATOM     15  C   LIG    1        1.925   1.477  -0.981  0.00  0.00    +0.178 A 
ATOM     16  N   LIG    1        2.113   0.294  -0.428  0.00  0.00    -0.229 NA
ATOM     17  C   LIG    1        3.005  -0.514  -0.901  0.00  0.00    +0.047 A 
ATOM     18  C   LIG    1        3.262  -1.887  -0.303  0.00  0.00    +0.066 C 
ATOM     19  C   LIG    1        3.733  -0.092  -1.986  0.00  0.00    +0.071 A 
ATOM     20  S   LIG    1        3.063   1.471  -2.245  0.00  0.00    -0.059 S 
ENDBRANCH  13  15
ENDBRANCH   1  13
TORSDOF 4
