REMARK  Name = molecules/KKHPNPMTPORSQE-GOSISDBHSA-N.pdb
REMARK                            x       y       z     vdW  Elec       q    Type
REMARK                         _______ _______ _______ _____ _____    ______ ____
ROOT
ATOM      1  C   LIG    1       -0.657   0.201   0.286  0.00  0.00    +0.117 C 
ATOM      2  C   LIG    1       -0.352   0.397   1.746  0.00  0.00    +0.052 C 
ENDROOT
BRANCH   1   3
ATOM      3  C   LIG    1       -1.711   1.233  -0.076  0.00  0.00    -0.012 A 
ATOM      4  C   LIG    1       -2.241   2.110   0.819  0.00  0.00    +0.008 A 
ATOM      5  C   LIG    1       -3.201   3.062   0.456  0.00  0.00    +0.020 A 
ATOM      6  C   LIG    1       -3.600   3.081  -0.863  0.00  0.00    +0.041 A 
ATOM      7 CL   LIG    1       -4.813   4.270  -1.364  0.00  0.00    -0.084 Cl
ATOM      8  C   LIG    1       -3.072   2.199  -1.780  0.00  0.00    +0.020 A 
ATOM      9  C   LIG    1       -2.130   1.281  -1.377  0.00  0.00    +0.008 A 
ENDBRANCH   1   3
BRANCH   1  10
ATOM     10  C   LIG    1       -1.247  -1.168   0.072  0.00  0.00    -0.012 A 
ATOM     11  C   LIG    1       -0.478  -2.299   0.088  0.00  0.00    +0.007 A 
ATOM     12  C   LIG    1       -1.019  -3.576  -0.112  0.00  0.00    +0.000 A 
ATOM     13  C   LIG    1       -2.373  -3.695  -0.333  0.00  0.00    +0.000 A 
ATOM     14  C   LIG    1       -3.148  -2.555  -0.349  0.00  0.00    +0.000 A 
ATOM     15  C   LIG    1       -2.596  -1.280  -0.147  0.00  0.00    +0.007 A 
ENDBRANCH   1  10
BRANCH   1  16
ATOM     16  O   LIG    1        0.348   0.493  -0.518  0.00  0.00    -0.363 OA
BRANCH  16  17
ATOM     17  C   LIG    1        1.542   0.074  -0.727  0.00  0.00    +0.177 C 
BRANCH  17  18
ATOM     18  C   LIG    1        2.529   0.143   0.427  0.00  0.00    +0.112 C 
BRANCH  18  19
ATOM     19  N   LIG    1        3.838  -0.369  -0.009  0.00  0.00    -0.306 NA
ATOM     20  C   LIG    1        4.627  -0.550   1.190  0.00  0.00    +0.104 C 
ATOM     21  C   LIG    1        4.458   0.498  -0.972  0.00  0.00    +0.104 C 
ENDBRANCH  18  19
ENDBRANCH  17  18
ENDBRANCH  16  17
ENDBRANCH   1  16
TORSDOF 6
