REMARK  Name = molecules/KLDXJTOLSGUMSJ-JGWLITMVSA-N.pdb
REMARK                            x       y       z     vdW  Elec       q    Type
REMARK                         _______ _______ _______ _____ _____    ______ ____
ROOT
ATOM      1  O   LIG    1       -0.729   1.027  -0.748  0.00  0.00    -0.369 OA
ATOM      2  C   LIG    1        0.072   0.587   0.273  0.00  0.00    +0.180 C 
ATOM      3  C   LIG    1        0.025  -0.936   0.067  0.00  0.00    +0.180 C 
ATOM      4  C   LIG    1       -1.460  -1.101  -0.131  0.00  0.00    +0.171 C 
ATOM      5  O   LIG    1        0.742  -1.041  -1.116  0.00  0.00    -0.369 OA
ATOM      6  C   LIG    1        1.931  -0.384  -0.786  0.00  0.00    +0.194 C 
ATOM      7  C   LIG    1        1.545   0.830   0.023  0.00  0.00    +0.171 C 
ATOM      8  C   LIG    1       -1.770   0.157  -0.923  0.00  0.00    +0.194 C 
ENDROOT
BRANCH   4   9
ATOM      9  O   LIG    1       -2.057  -0.946   1.128  0.00  0.00    -0.387 OA
ATOM     10  H   LIG    1       -2.199   0.033   1.321  0.00  0.00    +0.210 HD
ENDBRANCH   4   9
BRANCH   7  11
ATOM     11  O   LIG    1        1.814   2.021  -0.592  0.00  0.00    -0.387 OA
ATOM     12  H   LIG    1        1.093   2.423  -1.097  0.00  0.00    +0.210 HD
ENDBRANCH   7  11
TORSDOF 2
