REMARK  Name = molecules/KLOIYEQEVSIOOO-UHFFFAOYSA-N.pdb
REMARK                            x       y       z     vdW  Elec       q    Type
REMARK                         _______ _______ _______ _____ _____    ______ ____
ROOT
ATOM      1  C   LIG    1       -1.575  -0.148   2.216  0.00  0.00    +0.045 C 
ATOM      2  C   LIG    1       -0.996  -0.587   0.922  0.00  0.00    -0.030 A 
ATOM      3  C   LIG    1        0.377  -0.531   0.720  0.00  0.00    +0.021 A 
ATOM      4  C   LIG    1        1.163  -0.055   1.752  0.00  0.00    +0.015 A 
ATOM      5  C   LIG    1        2.509   0.011   1.566  0.00  0.00    +0.046 A 
ATOM      6  C   LIG    1        3.101  -0.390   0.360  0.00  0.00    +0.125 A 
ATOM      7  C   LIG    1        2.320  -0.866  -0.668  0.00  0.00    +0.092 A 
ATOM      8  C   LIG    1        0.958  -0.929  -0.468  0.00  0.00    +0.143 A 
ATOM      9  O   LIG    1        0.179  -1.371  -1.423  0.00  0.00    -0.422 OA
ATOM     10  C   LIG    1       -1.109  -1.436  -1.267  0.00  0.00    +0.341 A 
ATOM     11  O   LIG    1       -1.801  -1.869  -2.220  0.00  0.00    -0.245 OA
ATOM     12  C   LIG    1       -1.763  -1.058  -0.120  0.00  0.00    +0.042 A 
ENDROOT
BRANCH   6  13
ATOM     13  O   LIG    1        4.473  -0.290   0.235  0.00  0.00    -0.481 OA
BRANCH  13  14
ATOM     14  C   LIG    1        5.114  -0.670  -0.944  0.00  0.00    +0.349 C 
BRANCH  14  15
ATOM     15  C   LIG    1        6.592  -0.444  -0.839  0.00  0.00    +0.345 C 
ATOM     16  O   LIG    1        7.291  -0.743  -1.834  0.00  0.00    -0.247 OA
BRANCH  15  17
ATOM     17  O   LIG    1        7.188   0.069   0.284  0.00  0.00    -0.463 OA
BRANCH  17  18
ATOM     18  C   LIG    1        8.594   0.300   0.404  0.00  0.00    +0.229 C 
ATOM     19  C   LIG    1        8.970   1.300  -0.690  0.00  0.00    +0.048 C 
ENDBRANCH  17  18
ENDBRANCH  15  17
ENDBRANCH  14  15
ENDBRANCH  13  14
ENDBRANCH   6  13
BRANCH  12  20
ATOM     20  C   LIG    1       -3.273  -1.110  -0.024  0.00  0.00    +0.058 C 
BRANCH  20  21
ATOM     21  C   LIG    1       -3.812   0.295  -0.168  0.00  0.00    +0.089 C 
BRANCH  21  22
ATOM     22  N   LIG    1       -5.188   0.484  -0.124  0.00  0.00    -0.303 NA
BRANCH  22  23
ATOM     23  C   LIG    1       -6.011  -0.205   0.776  0.00  0.00    +0.081 C 
ATOM     24  C   LIG    1       -6.194  -1.659   0.543  0.00  0.00    +0.020 C 
ENDBRANCH  22  23
BRANCH  22  25
ATOM     25  C   LIG    1       -5.509   1.887  -0.175  0.00  0.00    +0.081 C 
ATOM     26  C   LIG    1       -5.205   2.563  -1.471  0.00  0.00    +0.020 C 
ENDBRANCH  22  25
ENDBRANCH  21  22
ENDBRANCH  20  21
ENDBRANCH  12  20
TORSDOF 10
