REMARK  Name = molecules/KLPWJLBORRMFGK-GFCCVEGCSA-N.pdb
REMARK                            x       y       z     vdW  Elec       q    Type
REMARK                         _______ _______ _______ _____ _____    ______ ____
ROOT
ATOM      1  C   LIG    1       -3.131  -0.227   0.314  0.00  0.00    -0.017 A 
ATOM      2  C   LIG    1       -1.887   0.261  -0.004  0.00  0.00    +0.042 A 
ATOM      3  C   LIG    1       -0.597   0.356   0.659  0.00  0.00    +0.169 C 
ATOM      4  O   LIG    1       -0.572   0.294   1.930  0.00  0.00    -0.292 OA
ATOM      5  C   LIG    1        0.694   0.518  -0.037  0.00  0.00    +0.075 C 
ATOM      6  C   LIG    1        0.434   0.398  -1.535  0.00  0.00    +0.019 C 
ATOM      7  C   LIG    1       -0.680   1.352  -1.877  0.00  0.00    +0.054 C 
ATOM      8  C   LIG    1       -1.934   0.747  -1.302  0.00  0.00    +0.027 A 
ATOM      9  N   LIG    1       -3.188   0.537  -1.723  0.00  0.00    -0.361 N 
ATOM     10  H   LIG    1       -3.534   0.800  -2.674  0.00  0.00    +0.165 HD
ATOM     11  C   LIG    1       -3.949  -0.049  -0.782  0.00  0.00    +0.017 A 
ATOM     12  C   LIG    1       -5.398  -0.442  -0.899  0.00  0.00    +0.063 C 
ENDROOT
BRANCH   1  13
ATOM     13  C   LIG    1       -3.528  -0.802   1.604  0.00  0.00    +0.034 C 
ATOM     14  C   LIG    1       -3.792   0.294   2.638  0.00  0.00    +0.009 C 
ENDBRANCH   1  13
BRANCH   5  15
ATOM     15  C   LIG    1        1.697  -0.541   0.400  0.00  0.00    +0.096 C 
BRANCH  15  16
ATOM     16  N   LIG    1        2.926  -0.354  -0.290  0.00  0.00    -0.297 NA
ATOM     17  C   LIG    1        3.612   0.828   0.133  0.00  0.00    +0.112 C 
ATOM     18  C   LIG    1        5.075   0.860  -0.168  0.00  0.00    +0.175 C 
ATOM     19  O   LIG    1        5.722  -0.331  -0.040  0.00  0.00    -0.377 OA
ATOM     20  C   LIG    1        4.986  -1.378   0.465  0.00  0.00    +0.175 C 
ATOM     21  C   LIG    1        3.751  -1.518  -0.402  0.00  0.00    +0.112 C 
ENDBRANCH  15  16
ENDBRANCH   5  15
TORSDOF 3
