REMARK  Name = molecules/KLRSZNOYZIOTBR-XFQLVHFOSA-N.pdb
REMARK                            x       y       z     vdW  Elec       q    Type
REMARK                         _______ _______ _______ _____ _____    ______ ____
ROOT
ATOM      1  C   LIG    1       -2.986   3.404  -1.518  0.00  0.00    +0.170 C 
ATOM      2  C   LIG    1       -2.770   2.726  -0.189  0.00  0.00    +0.203 A 
ATOM      3  O   LIG    1       -3.567   2.112   0.643  0.00  0.00    -0.447 OA
ATOM      4  C   LIG    1       -2.922   1.675   1.690  0.00  0.00    +0.230 A 
ATOM      5  C   LIG    1       -1.592   2.043   1.509  0.00  0.00    +0.164 A 
ATOM      6  C   LIG    1       -0.392   1.836   2.337  0.00  0.00    +0.268 C 
ATOM      7  O   LIG    1       -0.568   2.008   3.596  0.00  0.00    -0.268 OA
ATOM      8  N   LIG    1        0.873   1.477   1.817  0.00  0.00    -0.293 N 
ATOM      9  C   LIG    1        2.131   1.233   2.449  0.00  0.00    +0.135 C 
ATOM     10  C   LIG    1        3.029   0.524   1.331  0.00  0.00    +0.163 C 
ATOM     11  C   LIG    1        1.961   0.042   0.495  0.00  0.00    +0.140 C 
ATOM     12  C   LIG    1        2.091  -0.652  -0.742  0.00  0.00    +0.314 C 
ATOM     13  O   LIG    1        0.915  -1.259  -1.244  0.00  0.00    -0.461 OA
ATOM     14  C   LIG    1        0.011  -2.041  -0.520  0.00  0.00    +0.182 C 
ATOM     15  C   LIG    1       -1.254  -2.147  -1.360  0.00  0.00    +0.031 C 
ATOM     16  C   LIG    1       -2.277  -3.039  -0.841  0.00  0.00    +0.012 C 
ATOM     17  C   LIG    1       -2.874  -3.027   0.337  0.00  0.00    +0.091 C 
ATOM     18  C   LIG    1       -3.559  -1.912   0.968  0.00  0.00    +0.217 C 
ATOM     19  O   LIG    1       -3.160  -1.591   2.143  0.00  0.00    -0.275 OA
ATOM     20  N   LIG    1       -4.615  -1.134   0.449  0.00  0.00    -0.315 N 
ATOM     21  H   LIG    1       -4.931  -0.248   0.928  0.00  0.00    +0.149 HD
ATOM     22  C   LIG    1       -5.313  -1.487  -0.740  0.00  0.00    +0.108 C 
ATOM     23  C   LIG    1       -6.666  -0.921  -0.882  0.00  0.00    +0.015 C 
ATOM     24  C   LIG    1       -7.441  -0.425   0.054  0.00  0.00    +0.005 C 
ATOM     25  C   LIG    1       -7.167   0.719   0.917  0.00  0.00    -0.017 C 
ATOM     26  C   LIG    1       -7.349   0.471   2.400  0.00  0.00    +0.012 C 
ATOM     27  C   LIG    1       -6.779   1.921   0.506  0.00  0.00    +0.031 C 
ATOM     28  C   LIG    1       -6.260   2.243  -0.827  0.00  0.00    +0.126 C 
ATOM     29  C   LIG    1       -5.451   3.517  -0.802  0.00  0.00    +0.106 C 
ATOM     30  C   LIG    1       -1.715  -0.756  -1.636  0.00  0.00    +0.011 C 
ATOM     31  O   LIG    1        3.134  -0.778  -1.431  0.00  0.00    -0.250 OA
ATOM     32  C   LIG    1        1.056   1.283   0.401  0.00  0.00    +0.124 C 
ATOM     33  N   LIG    1       -1.546   2.685   0.344  0.00  0.00    -0.208 NA
ATOM     34  C   LIG    1       -4.416   3.535  -1.871  0.00  0.00    +0.145 C 
ATOM     35  O   LIG    1       -4.729   3.659  -3.048  0.00  0.00    -0.297 OA
ENDROOT
BRANCH  10  36
ATOM     36  S   LIG    1        4.096   1.805   0.835  0.00  0.00    -0.025 S 
ATOM     37  O   LIG    1        4.175   2.958   1.839  0.00  0.00    -0.174 OA
ATOM     38  O   LIG    1        3.681   2.481  -0.450  0.00  0.00    -0.174 OA
BRANCH  36  39
ATOM     39  C   LIG    1        5.774   1.284   0.588  0.00  0.00    +0.181 C 
BRANCH  39  40
ATOM     40  C   LIG    1        5.963   0.230  -0.421  0.00  0.00    +0.107 C 
BRANCH  40  41
ATOM     41  N   LIG    1        7.291  -0.200  -0.693  0.00  0.00    -0.301 NA
BRANCH  41  42
ATOM     42  C   LIG    1        8.003  -0.905   0.297  0.00  0.00    +0.081 C 
ATOM     43  C   LIG    1        8.447  -0.154   1.505  0.00  0.00    +0.020 C 
ENDBRANCH  41  42
BRANCH  41  44
ATOM     44  C   LIG    1        8.029   0.608  -1.602  0.00  0.00    +0.081 C 
ATOM     45  C   LIG    1        9.415   0.040  -1.790  0.00  0.00    +0.020 C 
ENDBRANCH  41  44
ENDBRANCH  40  41
ENDBRANCH  39  40
ENDBRANCH  36  39
ENDBRANCH  10  36
BRANCH  14  46
ATOM     46  C   LIG    1        0.688  -3.403  -0.346  0.00  0.00    +0.024 C 
ATOM     47  C   LIG    1        0.036  -4.274   0.670  0.00  0.00    +0.011 C 
ATOM     48  C   LIG    1        0.994  -4.070  -1.650  0.00  0.00    +0.011 C 
ENDBRANCH  14  46
BRANCH  28  49
ATOM     49  O   LIG    1       -7.340   2.454  -1.703  0.00  0.00    -0.391 OA
ATOM     50  H   LIG    1       -7.029   3.088  -2.387  0.00  0.00    +0.210 HD
ENDBRANCH  28  49
TORSDOF 8
