REMARK  Name = molecules/KLZWOWYOHUKJIG-BPUTZDHNSA-N.pdb
REMARK                            x       y       z     vdW  Elec       q    Type
REMARK                         _______ _______ _______ _____ _____    ______ ____
ROOT
ATOM      1  N   ALA A  1        0.249   1.124   0.824  0.00  0.00    -0.294 NA
ATOM      2  H   ALA A  1        0.366   1.788   1.625  0.00  0.00    +0.123 HD
ENDROOT
BRANCH   1   3
ATOM      3  CA  ALA A  1        1.226   0.156   0.666  0.00  0.00    +0.139 C 
ATOM      4  CB  ALA A  1        0.847  -1.262   0.966  0.00  0.00    +0.034 C 
BRANCH   3   5
ATOM      5  C   ALA A  1        1.941   0.154  -0.631  0.00  0.00    +0.241 C 
ATOM      6  N   UNK A  2        3.308  -0.113  -0.788  0.00  0.00    -0.209 N 
ATOM      7  C   UNK A  2        4.244  -0.368   0.225  0.00  0.00    +0.312 C 
ATOM      8  O   UNK A  2        4.104  -0.634   1.449  0.00  0.00    -0.252 OA
ATOM      9  N   UNK A  2        5.577  -0.289  -0.329  0.00  0.00    -0.286 N 
ATOM     10  C   UNK A  2        6.782  -0.804   0.258  0.00  0.00    +0.133 C 
ATOM     11  C   UNK A  2        5.405   0.419  -1.590  0.00  0.00    +0.143 C 
ATOM     12  C   UNK A  2        4.071  -0.158  -2.040  0.00  0.00    +0.211 C 
ATOM     13  O   ALA A  1        1.275   0.412  -1.671  0.00  0.00    -0.273 OA
BRANCH  12  14
ATOM     14  C   UNK A  2        4.344  -1.573  -2.420  0.00  0.00    +0.328 C 
ATOM     15  O   UNK A  2        4.979  -1.841  -3.461  0.00  0.00    -0.249 OA
BRANCH  14  16
ATOM     16  O   UNK A  2        3.884  -2.573  -1.605  0.00  0.00    -0.479 OA
ATOM     17  H   UNK A  2        4.458  -3.338  -1.259  0.00  0.00    +0.295 HD
ENDBRANCH  14  16
ENDBRANCH  12  14
ENDBRANCH   3   5
ENDBRANCH   1   3
BRANCH   1  18
ATOM     18  C   UNK A  0       -0.897   1.273   0.058  0.00  0.00    +0.164 C 
BRANCH  18  19
ATOM     19  C   UNK A  0       -1.601   2.517   0.579  0.00  0.00    +0.324 C 
ATOM     20  O   UNK A  0       -1.113   3.162   1.547  0.00  0.00    -0.249 OA
BRANCH  19  21
ATOM     21  O   UNK A  0       -2.765   3.003   0.053  0.00  0.00    -0.464 OA
BRANCH  21  22
ATOM     22  C   UNK A  0       -3.379   4.174   0.582  0.00  0.00    +0.229 C 
ATOM     23  C   UNK A  0       -3.739   4.010   2.033  0.00  0.00    +0.048 C 
ENDBRANCH  21  22
ENDBRANCH  19  21
ENDBRANCH  18  19
BRANCH  18  24
ATOM     24  C   UNK A  0       -1.789   0.078   0.173  0.00  0.00    +0.035 C 
BRANCH  24  25
ATOM     25  C   UNK A  0       -3.068   0.167  -0.632  0.00  0.00    +0.037 C 
BRANCH  25  28
ATOM     26  C   UNK A  0       -5.364  -2.410   0.905  0.00  0.00    +0.000 A 
ATOM     27  C   UNK A  0       -4.690  -1.230   0.669  0.00  0.00    +0.003 A 
ATOM     28  C   UNK A  0       -3.800  -1.129  -0.379  0.00  0.00    -0.047 A 
ATOM     29  C   UNK A  0       -3.586  -2.217  -1.196  0.00  0.00    +0.003 A 
ATOM     30  C   UNK A  0       -4.253  -3.407  -0.975  0.00  0.00    +0.000 A 
ATOM     31  C   UNK A  0       -5.143  -3.474   0.092  0.00  0.00    +0.000 A 
ENDBRANCH  25  28
ENDBRANCH  24  25
ENDBRANCH  18  24
ENDBRANCH   1  18
TORSDOF 11
