REMARK  Name = molecules/KMGARVOVYXNAOF-UHFFFAOYSA-N.pdb
REMARK                            x       y       z     vdW  Elec       q    Type
REMARK                         _______ _______ _______ _____ _____    ______ ____
ROOT
ATOM      1  C   LIG    1       -0.829   0.795  -0.535  0.00  0.00    +0.048 A 
ATOM      2  C   LIG    1        0.330   1.195   0.148  0.00  0.00    +0.271 A 
ATOM      3  O   LIG    1        0.637   2.375   0.478  0.00  0.00    -0.266 OA
ATOM      4  N   LIG    1        1.077   0.115   0.406  0.00  0.00    -0.248 N 
ATOM      5  N   LIG    1        0.446  -0.925  -0.080  0.00  0.00    -0.294 N 
ATOM      6  H   LIG    1        0.760  -1.915  -0.051  0.00  0.00    +0.187 HD
ATOM      7  C   LIG    1       -0.731  -0.552  -0.668  0.00  0.00    +0.071 A 
ENDROOT
BRANCH   4   8
ATOM      8  C   LIG    1        2.348   0.159   1.103  0.00  0.00    +0.111 C 
ATOM      9  C   LIG    1        2.984  -1.185   1.232  0.00  0.00    +0.042 C 
ATOM     10  C   LIG    1        4.417  -0.941   1.723  0.00  0.00    +0.086 C 
ATOM     11  N   LIG    1        5.212  -0.308   0.712  0.00  0.00    -0.305 NA
ATOM     12  C   LIG    1        6.158   0.649   1.224  0.00  0.00    +0.104 C 
ATOM     13  C   LIG    1        4.410   0.314  -0.322  0.00  0.00    +0.086 C 
ATOM     14  C   LIG    1        3.289   1.069   0.354  0.00  0.00    +0.042 C 
ENDBRANCH   4   8
BRANCH   7  15
ATOM     15  C   LIG    1       -1.696  -1.470  -1.255  0.00  0.00    +0.000 A 
ATOM     16  C   LIG    1       -1.591  -2.812  -0.856  0.00  0.00    +0.010 A 
ATOM     17  C   LIG    1       -2.464  -3.781  -1.278  0.00  0.00    +0.001 A 
ATOM     18  C   LIG    1       -3.481  -3.415  -2.128  0.00  0.00    +0.000 A 
ATOM     19  C   LIG    1       -3.610  -2.113  -2.537  0.00  0.00    +0.001 A 
ATOM     20  C   LIG    1       -2.714  -1.165  -2.093  0.00  0.00    +0.010 A 
ENDBRANCH   7  15
BRANCH   1  21
ATOM     21  C   LIG    1       -1.865   1.786  -0.903  0.00  0.00    +0.078 C 
BRANCH  21  22
ATOM     22  C   LIG    1       -3.004   1.795   0.014  0.00  0.00    -0.043 A 
ATOM     23  C   LIG    1       -2.814   2.290   1.302  0.00  0.00    +0.004 A 
ATOM     24  C   LIG    1       -3.865   2.301   2.218  0.00  0.00    +0.000 A 
ATOM     25  C   LIG    1       -5.106   1.819   1.850  0.00  0.00    +0.000 A 
ATOM     26  C   LIG    1       -5.303   1.334   0.597  0.00  0.00    +0.000 A 
ATOM     27  C   LIG    1       -4.229   1.335  -0.303  0.00  0.00    +0.004 A 
ENDBRANCH  21  22
ENDBRANCH   1  21
TORSDOF 4
