REMARK  Name = molecules/KMZHYAUKFHLFNY-UHFFFAOYSA-N.pdb
REMARK                            x       y       z     vdW  Elec       q    Type
REMARK                         _______ _______ _______ _____ _____    ______ ____
ROOT
ATOM      1  C   LIG    1       -0.615  -0.531   0.694  0.00  0.00    +0.050 C 
ENDROOT
BRANCH   1   2
ATOM      2  C   LIG    1       -1.740  -1.259   1.335  0.00  0.00    -0.040 A 
ATOM      3  C   LIG    1       -1.861  -1.325   2.717  0.00  0.00    +0.004 A 
ATOM      4  C   LIG    1       -2.920  -2.001   3.259  0.00  0.00    +0.000 A 
ATOM      5  C   LIG    1       -3.867  -2.616   2.442  0.00  0.00    +0.000 A 
ATOM      6  C   LIG    1       -3.766  -2.562   1.069  0.00  0.00    +0.000 A 
ATOM      7  C   LIG    1       -2.678  -1.868   0.537  0.00  0.00    +0.004 A 
ENDBRANCH   1   2
BRANCH   1   8
ATOM      8  C   LIG    1       -1.173   0.777   0.198  0.00  0.00    -0.040 A 
ATOM      9  C   LIG    1       -1.110   1.862   1.048  0.00  0.00    +0.004 A 
ATOM     10  C   LIG    1       -1.608   3.074   0.635  0.00  0.00    +0.000 A 
ATOM     11  C   LIG    1       -2.154   3.182  -0.604  0.00  0.00    +0.000 A 
ATOM     12  C   LIG    1       -2.238   2.130  -1.482  0.00  0.00    +0.000 A 
ATOM     13  C   LIG    1       -1.730   0.908  -1.052  0.00  0.00    +0.004 A 
ENDBRANCH   1   8
BRANCH   1  14
ATOM     14  C   LIG    1       -0.035  -1.378  -0.377  0.00  0.00    +0.031 C 
BRANCH  14  15
ATOM     15  C   LIG    1        1.125  -0.738  -1.100  0.00  0.00    +0.102 C 
BRANCH  15  16
ATOM     16  N   LIG    1        2.221  -0.421  -0.242  0.00  0.00    -0.344 N 
ATOM     17  H   LIG    1        2.213  -0.619   0.798  0.00  0.00    +0.146 HD
BRANCH  16  18
ATOM     18  C   LIG    1        3.374   0.181  -0.777  0.00  0.00    +0.030 A 
ATOM     19  C   LIG    1        4.454   0.504   0.012  0.00  0.00    +0.042 A 
ATOM     20  C   LIG    1        5.572   1.098  -0.562  0.00  0.00    +0.112 A 
ATOM     21  N   LIG    1        5.594   1.356  -1.888  0.00  0.00    -0.263 NA
ATOM     22  C   LIG    1        4.566   1.057  -2.683  0.00  0.00    +0.112 A 
ATOM     23  C   LIG    1        3.441   0.461  -2.120  0.00  0.00    +0.042 A 
ENDBRANCH  16  18
ENDBRANCH  15  16
ENDBRANCH  14  15
ENDBRANCH   1  14
TORSDOF 6
