REMARK  Name = molecules/KMZQAVXSMUKBPD-FCRIZLRQSA-N.pdb
REMARK                            x       y       z     vdW  Elec       q    Type
REMARK                         _______ _______ _______ _____ _____    ______ ____
ROOT
ATOM      1  C   LIG    1        0.878   0.636   0.250  0.00  0.00    +0.011 C 
ATOM      2  C   LIG    1        2.013   0.432   0.858  0.00  0.00    -0.009 C 
ENDROOT
BRANCH   1   3
ATOM      3  C   LIG    1       -0.173   1.513   0.788  0.00  0.00    +0.258 C 
BRANCH   3   4
ATOM      4  O   LIG    1       -1.361   0.761   0.996  0.00  0.00    -0.472 OA
BRANCH   4   7
ATOM      5  C   LIG    1       -3.777  -1.200  -0.859  0.00  0.00    -0.027 A 
ATOM      6  C   LIG    1       -3.148  -0.588   0.181  0.00  0.00    +0.072 A 
ATOM      7  C   LIG    1       -1.992   0.141  -0.065  0.00  0.00    +0.215 A 
ATOM      8  N   LIG    1       -1.502   0.241  -1.311  0.00  0.00    -0.221 NA
ATOM      9  C   LIG    1       -2.127  -0.365  -2.330  0.00  0.00    +0.115 A 
ATOM     10  C   LIG    1       -3.276  -1.100  -2.139  0.00  0.00    +0.025 A 
BRANCH   5  11
ATOM     11  C   LIG    1       -5.037  -2.004  -0.661  0.00  0.00    +0.119 C 
BRANCH  11  15
ATOM     12  C   LIG    1       -8.061   0.207   0.623  0.00  0.00    +0.002 C 
ATOM     13  C   LIG    1       -8.296  -1.214   0.240  0.00  0.00    +0.015 C 
ATOM     14  C   LIG    1       -7.434  -1.737  -0.855  0.00  0.00    +0.085 C 
ATOM     15  N   LIG    1       -6.141  -1.173  -0.976  0.00  0.00    -0.298 NA
ATOM     16  C   LIG    1       -6.019   0.212  -0.703  0.00  0.00    +0.085 C 
ATOM     17  C   LIG    1       -7.348   0.911  -0.511  0.00  0.00    +0.015 C 
ENDBRANCH  11  15
ENDBRANCH   5  11
ENDBRANCH   4   7
ENDBRANCH   3   4
ENDBRANCH   1   3
BRANCH   2  18
ATOM     18  C   LIG    1        2.424   1.022   2.144  0.00  0.00    +0.131 C 
BRANCH  18  19
ATOM     19  N   LIG    1        3.617   1.834   2.015  0.00  0.00    -0.311 N 
ATOM     20  H   LIG    1        3.575   2.836   2.257  0.00  0.00    +0.149 HD
ATOM     21  C   LIG    1        4.818   1.247   1.563  0.00  0.00    +0.225 C 
ATOM     22  O   LIG    1        4.891   0.040   1.268  0.00  0.00    -0.275 OA
BRANCH  21  23
ATOM     23  C   LIG    1        6.041   2.103   1.435  0.00  0.00    +0.186 C 
BRANCH  23  24
ATOM     24  S   LIG    1        7.399   1.116   0.850  0.00  0.00    -0.027 S 
ATOM     25  O   LIG    1        7.905   0.142   1.874  0.00  0.00    -0.161 OA
BRANCH  24  26
ATOM     26  C   LIG    1        7.069   0.386  -0.744  0.00  0.00    +0.164 C 
BRANCH  26  27
ATOM     27  C   LIG    1        8.249  -0.417  -1.154  0.00  0.00    +0.116 A 
ATOM     28  O   LIG    1        8.450  -1.677  -0.896  0.00  0.00    -0.467 OA
ATOM     29  C   LIG    1        9.589  -2.086  -1.399  0.00  0.00    +0.195 A 
ATOM     30  C   LIG    1       10.208  -1.036  -2.044  0.00  0.00    +0.041 A 
ATOM     31  C   LIG    1        9.348   0.036  -1.887  0.00  0.00    +0.045 A 
ENDBRANCH  26  27
ENDBRANCH  24  26
ENDBRANCH  23  24
ENDBRANCH  21  23
ENDBRANCH  18  19
ENDBRANCH   2  18
TORSDOF 11
