REMARK  Name = molecules/KORNTPPJEAJQIU-KJXAQDMKSA-N.pdb
REMARK                            x       y       z     vdW  Elec       q    Type
REMARK                         _______ _______ _______ _____ _____    ______ ____
ROOT
ATOM      1  N   LIG    1       -2.041  -0.489   1.676  0.00  0.00    -0.294 NA
ATOM      2  C   LIG    1       -1.255   0.657   1.256  0.00  0.00    +0.097 C 
ATOM      3  C   LIG    1       -0.631   0.330  -0.100  0.00  0.00    +0.090 C 
ATOM      4  C   LIG    1       -1.817   0.380  -1.086  0.00  0.00    +0.023 C 
ATOM      5  C   LIG    1       -2.666  -0.806  -0.697  0.00  0.00    +0.038 C 
ATOM      6  C   LIG    1       -3.858  -0.995  -1.543  0.00  0.00    -0.033 A 
ATOM      7  C   LIG    1       -4.867  -1.796  -1.057  0.00  0.00    +0.006 A 
ATOM      8  C   LIG    1       -4.836  -2.419   0.171  0.00  0.00    -0.021 A 
ATOM      9  C   LIG    1       -3.629  -2.211   1.051  0.00  0.00    +0.056 C 
ATOM     10  C   LIG    1       -6.025  -3.100   0.238  0.00  0.00    +0.087 A 
ATOM     11  N   LIG    1       -6.736  -2.884  -0.917  0.00  0.00    -0.360 N 
ATOM     12  H   LIG    1       -7.670  -3.256  -1.174  0.00  0.00    +0.165 HD
ATOM     13  C   LIG    1       -6.030  -2.073  -1.736  0.00  0.00    +0.047 A 
ATOM     14  C   LIG    1       -6.186  -1.505  -2.986  0.00  0.00    +0.026 A 
ATOM     15  C   LIG    1       -5.190  -0.698  -3.495  0.00  0.00    +0.002 A 
ATOM     16  C   LIG    1       -4.015  -0.418  -2.811  0.00  0.00    +0.004 A 
ATOM     17  C   LIG    1       -3.072  -0.809   0.738  0.00  0.00    +0.069 C 
ENDROOT
BRANCH   3  18
ATOM     18  C   LIG    1        0.406   1.289  -0.461  0.00  0.00    +0.227 C 
ATOM     19  N   LIG    1        1.738   1.200   0.010  0.00  0.00    -0.226 N 
ATOM     20  C   LIG    1        2.618   2.281  -0.274  0.00  0.00    +0.309 C 
ATOM     21  N   LIG    1        3.913   2.435   0.239  0.00  0.00    -0.299 N 
ATOM     22  H   LIG    1        4.344   1.780   0.902  0.00  0.00    +0.150 HD
ATOM     23  O   LIG    1        2.179   3.182  -1.061  0.00  0.00    -0.252 OA
ATOM     24  O   LIG    1        0.120   2.270  -1.235  0.00  0.00    -0.275 OA
BRANCH  21  25
ATOM     25  C   LIG    1        4.705   3.597  -0.149  0.00  0.00    +0.102 C 
ATOM     26  C   LIG    1        4.903   3.605  -1.666  0.00  0.00    +0.024 C 
ENDBRANCH  21  25
BRANCH  19  27
ATOM     27  C   LIG    1        2.195   0.108   0.824  0.00  0.00    +0.119 C 
BRANCH  27  28
ATOM     28  C   LIG    1        2.703  -1.080   0.066  0.00  0.00    +0.035 C 
BRANCH  28  29
ATOM     29  C   LIG    1        3.861  -0.891  -0.820  0.00  0.00    +0.085 C 
BRANCH  29  30
ATOM     30  N   LIG    1        5.095  -0.492  -0.260  0.00  0.00    -0.308 NA
ATOM     31  C   LIG    1        5.580  -1.299   0.810  0.00  0.00    +0.104 C 
ATOM     32  C   LIG    1        6.142  -0.347  -1.251  0.00  0.00    +0.104 C 
ENDBRANCH  29  30
ENDBRANCH  28  29
ENDBRANCH  27  28
ENDBRANCH  19  27
ENDBRANCH   3  18
BRANCH   1  33
ATOM     33  C   LIG    1       -2.694  -0.054   2.921  0.00  0.00    +0.111 C 
BRANCH  33  34
ATOM     34  C   LIG    1       -1.663   0.298   3.947  0.00  0.00    -0.019 C 
ATOM     35  C   LIG    1       -1.604   1.517   4.458  0.00  0.00    +0.005 C 
ENDBRANCH  33  34
ENDBRANCH   1  33
TORSDOF 8
