REMARK  Name = molecules/KPIQXPLWZCDIHI-ISLYRVAYSA-N.pdb
REMARK                            x       y       z     vdW  Elec       q    Type
REMARK                         _______ _______ _______ _____ _____    ______ ____
ROOT
ATOM      1  C   LIG    1       -1.073   0.197  -0.216  0.00  0.00    +0.244 A 
ATOM      2  N   LIG    1       -2.304  -0.315  -0.338  0.00  0.00    -0.198 N 
ATOM      3  N   LIG    1       -2.132  -1.571  -0.774  0.00  0.00    -0.154 NA
ATOM      4  C   LIG    1       -0.840  -1.852  -0.925  0.00  0.00    +0.200 A 
ATOM      5  C   LIG    1       -0.125  -0.728  -0.571  0.00  0.00    +0.181 A 
ENDROOT
BRANCH   2   6
ATOM      6  C   LIG    1       -3.575   0.281  -0.081  0.00  0.00    +0.069 A 
ATOM      7  C   LIG    1       -4.521  -0.296   0.743  0.00  0.00    +0.030 A 
ATOM      8  C   LIG    1       -5.748   0.285   0.988  0.00  0.00    +0.031 A 
ATOM      9  C   LIG    1       -6.080   1.488   0.406  0.00  0.00    +0.117 A 
ATOM     10  C   LIG    1       -5.150   2.081  -0.421  0.00  0.00    +0.031 A 
ATOM     11  C   LIG    1       -3.926   1.486  -0.656  0.00  0.00    +0.030 A 
BRANCH   9  12
ATOM     12  S   LIG    1       -7.646   2.209   0.731  0.00  0.00    +0.110 S 
ATOM     13  O   LIG    1       -8.682   1.168   1.045  0.00  0.00    -0.142 OA
ATOM     14  O   LIG    1       -8.076   3.076  -0.414  0.00  0.00    -0.142 OA
BRANCH  12  15
ATOM     15  O   LIG    1       -7.556   3.224   2.088  0.00  0.00    -0.250 OA
ATOM     16  H   LIG    1       -6.594   3.277   2.352  0.00  0.00    +0.245 HD
ENDBRANCH  12  15
ENDBRANCH   9  12
ENDBRANCH   2   6
BRANCH   1  17
ATOM     17  O   LIG    1       -0.803   1.479   0.211  0.00  0.00    -0.491 OA
ATOM     18  H   LIG    1       -0.025   1.671   0.837  0.00  0.00    +0.294 HD
ENDBRANCH   1  17
BRANCH   4  19
ATOM     19  C   LIG    1       -0.215  -3.086  -1.372  0.00  0.00    +0.359 C 
ATOM     20  O   LIG    1       -0.955  -4.053  -1.671  0.00  0.00    -0.243 OA
BRANCH  19  21
ATOM     21  O   LIG    1        1.155  -3.238  -1.482  0.00  0.00    -0.476 OA
ATOM     22  H   LIG    1        1.622  -4.048  -1.087  0.00  0.00    +0.295 HD
ENDBRANCH  19  21
ENDBRANCH   4  19
BRANCH   5  23
ATOM     23  N   LIG    1        1.274  -0.495  -0.551  0.00  0.00    -0.141 NA
ATOM     24  N   LIG    1        2.120  -1.212   0.016  0.00  0.00    -0.149 NA
BRANCH  24  25
ATOM     25  C   LIG    1        3.530  -0.933   0.008  0.00  0.00    +0.086 A 
ATOM     26  C   LIG    1        4.219  -1.042   1.184  0.00  0.00    +0.031 A 
ATOM     27  C   LIG    1        5.572  -0.772   1.165  0.00  0.00    +0.031 A 
ATOM     28  C   LIG    1        6.204  -0.407   0.005  0.00  0.00    +0.117 A 
ATOM     29  C   LIG    1        5.502  -0.296  -1.197  0.00  0.00    +0.031 A 
ATOM     30  C   LIG    1        4.155  -0.567  -1.164  0.00  0.00    +0.031 A 
BRANCH  28  31
ATOM     31  S   LIG    1        7.926  -0.056  -0.058  0.00  0.00    +0.110 S 
ATOM     32  O   LIG    1        8.647  -0.921   0.924  0.00  0.00    -0.142 OA
ATOM     33  O   LIG    1        8.439  -0.361  -1.450  0.00  0.00    -0.142 OA
BRANCH  31  34
ATOM     34  O   LIG    1        8.126   1.575   0.241  0.00  0.00    -0.250 OA
ATOM     35  H   LIG    1        7.381   1.889   0.809  0.00  0.00    +0.245 HD
ENDBRANCH  31  34
ENDBRANCH  28  31
ENDBRANCH  24  25
ENDBRANCH   5  23
TORSDOF 10
