REMARK  Name = molecules/KPJZHOPZRAFDTN-ZRGWGRIASA-N.pdb
REMARK                            x       y       z     vdW  Elec       q    Type
REMARK                         _______ _______ _______ _____ _____    ______ ____
ROOT
ATOM      1  C   LIG    1        7.252   0.275  -0.008  0.00  0.00    +0.149 C 
ATOM      2  N   LIG    1        5.829   0.145   0.124  0.00  0.00    -0.349 N 
ATOM      3  C   LIG    1        5.194  -0.676   1.010  0.00  0.00    +0.090 A 
ATOM      4  C   LIG    1        3.816  -0.508   0.820  0.00  0.00    -0.020 A 
ATOM      5  C   LIG    1        2.607  -1.068   1.441  0.00  0.00    +0.061 C 
ATOM      6  C   LIG    1        1.427  -1.036   0.509  0.00  0.00    +0.091 C 
ATOM      7  N   LIG    1        0.206  -1.514   1.123  0.00  0.00    -0.297 NA
ATOM      8  C   LIG    1        0.205  -2.960   0.998  0.00  0.00    +0.105 C 
ATOM      9  C   LIG    1       -0.970  -1.018   0.436  0.00  0.00    +0.101 C 
ATOM     10  C   LIG    1       -1.060   0.478   0.410  0.00  0.00    +0.112 C 
ATOM     11  C   LIG    1        0.189   1.021  -0.164  0.00  0.00    -0.007 C 
ATOM     12  C   LIG    1        1.278   0.297  -0.089  0.00  0.00    -0.025 C 
ATOM     13  C   LIG    1        2.521   0.861  -0.670  0.00  0.00    -0.011 A 
ATOM     14  C   LIG    1        2.509   1.797  -1.681  0.00  0.00    +0.009 A 
ATOM     15  C   LIG    1        3.748   2.244  -2.155  0.00  0.00    +0.003 A 
ATOM     16  C   LIG    1        4.944   1.762  -1.630  0.00  0.00    +0.026 A 
ATOM     17  C   LIG    1        3.718   0.410  -0.176  0.00  0.00    +0.011 A 
ATOM     18  C   LIG    1        4.931   0.818  -0.611  0.00  0.00    +0.050 A 
ENDROOT
BRANCH  10  19
ATOM     19  C   LIG    1       -2.258   0.893  -0.321  0.00  0.00    +0.221 C 
ATOM     20  N   LIG    1       -3.530   0.444   0.120  0.00  0.00    -0.310 N 
ATOM     21  H   LIG    1       -3.637  -0.177   0.956  0.00  0.00    +0.149 HD
ATOM     22  O   LIG    1       -2.213   1.635  -1.331  0.00  0.00    -0.275 OA
BRANCH  20  23
ATOM     23  CA  LIG    1       -4.757   0.818  -0.558  0.00  0.00    +0.098 C 
BRANCH  23  24
ATOM     24  C   LIG    1       -5.428  -0.423  -1.049  0.00  0.00    +0.021 C 
ATOM     25  C   LIG    1       -5.782  -1.386   0.045  0.00  0.00    +0.006 C 
ENDBRANCH  23  24
BRANCH  23  26
ATOM     26  C   LIG    1       -5.621   1.608   0.401  0.00  0.00    +0.178 C 
BRANCH  26  27
ATOM     27  O   LIG    1       -6.811   2.004  -0.164  0.00  0.00    -0.393 OA
ATOM     28  H   LIG    1       -7.556   1.824   0.461  0.00  0.00    +0.209 HD
ENDBRANCH  26  27
ENDBRANCH  23  26
ENDBRANCH  20  23
ENDBRANCH  10  19
TORSDOF 5
