REMARK  Name = molecules/KPQZUUQMTUIKBP-RXMQYKEDSA-N.pdb
REMARK                            x       y       z     vdW  Elec       q    Type
REMARK                         _______ _______ _______ _____ _____    ______ ____
ROOT
ATOM      1  C   LIG    1        1.770  -0.671   0.219  0.00  0.00    +0.216 A 
ATOM      2  C   LIG    1        2.814   0.154   0.575  0.00  0.00    +0.164 A 
ATOM      3  N   LIG    1        2.403   1.404   0.335  0.00  0.00    -0.239 NA
ATOM      4  C   LIG    1        1.168   1.423  -0.149  0.00  0.00    +0.108 A 
ATOM      5  C   LIG    1        0.401   2.640  -0.526  0.00  0.00    +0.086 C 
ATOM      6  N   LIG    1        0.779   0.124  -0.218  0.00  0.00    -0.307 N 
ENDROOT
BRANCH   1   7
ATOM      7  N   LIG    1        1.775  -2.113   0.305  0.00  0.00    +0.075 N 
ATOM      8  O   LIG    1        2.906  -2.753   0.787  0.00  0.00    -0.125 OA
ATOM      9  O   LIG    1        0.841  -2.823  -0.027  0.00  0.00    -0.125 OA
ENDBRANCH   1   7
BRANCH   6  10
ATOM     10  C   LIG    1       -0.523  -0.269  -0.686  0.00  0.00    +0.156 C 
BRANCH  10  11
ATOM     11  C   LIG    1       -1.581  -0.302   0.393  0.00  0.00    +0.131 C 
ATOM     12  C   LIG    1       -2.886  -0.730  -0.230  0.00  0.00    +0.039 C 
BRANCH  11  13
ATOM     13  O   LIG    1       -1.281  -1.168   1.437  0.00  0.00    -0.390 OA
ATOM     14  H   LIG    1       -0.366  -1.062   1.785  0.00  0.00    +0.210 HD
ENDBRANCH  11  13
ENDBRANCH  10  11
ENDBRANCH   6  10
TORSDOF 4
