REMARK  Name = molecules/KPSRODZRAIWAKH-JTQLQIEISA-N.pdb
REMARK                            x       y       z     vdW  Elec       q    Type
REMARK                         _______ _______ _______ _____ _____    ______ ____
ROOT
ATOM      1  C   LIG    1        2.297  -0.291  -0.335  0.00  0.00    -0.041 A 
ATOM      2  C   LIG    1        1.534  -1.264   0.273  0.00  0.00    +0.007 A 
ATOM      3  C   LIG    1        0.168  -1.315   0.083  0.00  0.00    +0.046 A 
ATOM      4  C   LIG    1       -0.497  -0.391  -0.727  0.00  0.00    +0.122 A 
ATOM      5  C   LIG    1        0.283   0.575  -1.326  0.00  0.00    +0.046 A 
ATOM      6  C   LIG    1        1.644   0.619  -1.131  0.00  0.00    +0.007 A 
ENDROOT
BRANCH   1  11
ATOM      7 CL   LIG    1        2.983  -0.386   2.567  0.00  0.00    -0.100 Cl
ATOM      8  C   LIG    1        4.186  -0.126   1.314  0.00  0.00    +0.126 C 
ATOM      9 CL   LIG    1        5.410   1.138   1.673  0.00  0.00    -0.100 Cl
ATOM     10  C   LIG    1        4.554  -1.256   0.445  0.00  0.00    +0.050 C 
ATOM     11  C   LIG    1        3.747  -0.180  -0.169  0.00  0.00    +0.058 C 
ENDBRANCH   1  11
BRANCH   4  12
ATOM     12  O   LIG    1       -1.867  -0.452  -0.910  0.00  0.00    -0.475 OA
BRANCH  12  13
ATOM     13  C   LIG    1       -2.775   0.237  -0.053  0.00  0.00    +0.200 C 
ATOM     14  C   LIG    1       -2.584  -0.388   1.336  0.00  0.00    +0.067 C 
ATOM     15  C   LIG    1       -2.483   1.711  -0.013  0.00  0.00    +0.067 C 
BRANCH  13  16
ATOM     16  C   LIG    1       -4.178   0.000  -0.477  0.00  0.00    +0.348 C 
ATOM     17  O   LIG    1       -4.491  -0.717  -1.461  0.00  0.00    -0.247 OA
BRANCH  16  18
ATOM     18  O   LIG    1       -5.187   0.598   0.251  0.00  0.00    -0.478 OA
ATOM     19  H   LIG    1       -5.288   1.592   0.350  0.00  0.00    +0.295 HD
ENDBRANCH  16  18
ENDBRANCH  13  16
ENDBRANCH  12  13
ENDBRANCH   4  12
TORSDOF 5
