REMARK  Name = molecules/KPVIXBKIJXZQJX-FCEONZPQSA-N.pdb
REMARK                            x       y       z     vdW  Elec       q    Type
REMARK                         _______ _______ _______ _____ _____    ______ ____
ROOT
ATOM      1  C   LIG    1       -3.256   0.928  -1.252  0.00  0.00    +0.071 C 
ATOM      2  C   LIG    1       -4.232   0.729  -0.151  0.00  0.00    -0.014 C 
ATOM      3  C   LIG    1       -4.142   1.762   0.939  0.00  0.00    +0.008 C 
ATOM      4  C   LIG    1       -2.723   1.861   1.452  0.00  0.00    +0.004 C 
ATOM      5  C   LIG    1       -1.889   2.280   0.250  0.00  0.00    -0.004 C 
ATOM      6  C   LIG    1       -0.559   2.754   0.748  0.00  0.00    +0.008 C 
ATOM      7  C   LIG    1       -4.286  -0.611   0.469  0.00  0.00    +0.022 C 
ATOM      8  C   LIG    1       -5.751  -0.862   0.872  0.00  0.00    +0.011 C 
ATOM      9  C   LIG    1       -3.846  -1.751  -0.357  0.00  0.00    +0.128 C 
ATOM     10  C   LIG    1       -2.404  -2.133  -0.284  0.00  0.00    +0.015 C 
ATOM     11  C   LIG    1       -2.324  -3.509  -0.976  0.00  0.00    +0.018 C 
ATOM     12  C   LIG    1       -1.464  -1.253  -1.059  0.00  0.00    +0.058 C 
ATOM     13  C   LIG    1       -1.095   0.034  -0.348  0.00  0.00    +0.184 C 
ATOM     14  C   LIG    1       -5.560   0.979  -0.879  0.00  0.00    +0.015 C 
ATOM     15  C   LIG    1       -5.258   1.804  -2.084  0.00  0.00    +0.075 C 
ATOM     16  C   LIG    1       -1.849   1.215  -0.801  0.00  0.00    +0.018 C 
ATOM     17  C   LIG    1       -1.137   1.827  -2.018  0.00  0.00    +0.016 C 
ATOM     18  C   LIG    1       -3.817   2.139  -1.921  0.00  0.00    +0.138 C 
ATOM     19  O   LIG    1       -3.321   3.174  -2.279  0.00  0.00    -0.297 OA
ENDROOT
BRANCH   9  20
ATOM     20  O   LIG    1       -4.565  -2.894   0.085  0.00  0.00    -0.391 OA
ATOM     21  H   LIG    1       -4.673  -3.550  -0.647  0.00  0.00    +0.210 HD
ENDBRANCH   9  20
BRANCH  10  22
ATOM     22  C   LIG    1       -1.911  -2.359   1.103  0.00  0.00    -0.025 C 
ATOM     23  C   LIG    1       -1.293  -3.453   1.485  0.00  0.00    +0.004 C 
ENDBRANCH  10  22
BRANCH  13  24
ATOM     24  O   LIG    1        0.294   0.271  -0.609  0.00  0.00    -0.460 OA
BRANCH  24  25
ATOM     25  C   LIG    1        1.271   0.155   0.367  0.00  0.00    +0.317 C 
ATOM     26  O   LIG    1        0.908  -0.172   1.497  0.00  0.00    -0.250 OA
BRANCH  25  27
ATOM     27  C   LIG    1        2.658   0.438  -0.053  0.00  0.00    +0.190 C 
BRANCH  27  28
ATOM     28  S   LIG    1        3.847   0.260   1.287  0.00  0.00    -0.144 S 
BRANCH  28  29
ATOM     29  C   LIG    1        5.494   0.646   0.589  0.00  0.00    +0.076 C 
ATOM     30  C   LIG    1        6.567   0.525   1.635  0.00  0.00    +0.129 C 
ATOM     31  C   LIG    1        7.262  -0.805   1.614  0.00  0.00    +0.051 C 
ATOM     32  C   LIG    1        7.880  -1.144   0.291  0.00  0.00    +0.053 C 
ATOM     33  C   LIG    1        7.274  -0.382  -0.853  0.00  0.00    +0.020 C 
ATOM     34  C   LIG    1        5.774  -0.177  -0.642  0.00  0.00    +0.018 C 
BRANCH  32  35
ATOM     35  N   LIG    1        9.322  -0.939   0.275  0.00  0.00    -0.327 NA
ATOM     36  H   LIG    1        9.699  -0.633   1.190  0.00  0.00    +0.118 HD
ATOM     37  H   LIG    1        9.623  -0.278  -0.470  0.00  0.00    +0.118 HD
ENDBRANCH  32  35
BRANCH  30  38
ATOM     38  O   LIG    1        7.470   1.577   1.536  0.00  0.00    -0.391 OA
ATOM     39  H   LIG    1        8.327   1.335   1.135  0.00  0.00    +0.210 HD
ENDBRANCH  30  38
ENDBRANCH  28  29
ENDBRANCH  27  28
ENDBRANCH  25  27
ENDBRANCH  24  25
ENDBRANCH  13  24
TORSDOF 9
