REMARK  Name = molecules/KPYSYYIEGFHWSV-QMMMGPOBSA-N.pdb
REMARK                            x       y       z     vdW  Elec       q    Type
REMARK                         _______ _______ _______ _____ _____    ______ ____
ROOT
ATOM      1  C   LIG    1       -0.619  -0.475   0.488  0.00  0.00    +0.043 C 
ENDROOT
BRANCH   1   2
ATOM      2  C   LIG    1        0.732  -0.185   0.004  0.00  0.00    -0.042 A 
ATOM      3  C   LIG    1        1.654  -1.234  -0.225  0.00  0.00    +0.005 A 
ATOM      4  C   LIG    1        2.919  -1.017  -0.705  0.00  0.00    +0.020 A 
ATOM      5  C   LIG    1        3.370   0.244  -0.997  0.00  0.00    +0.041 A 
ATOM      6  C   LIG    1        2.498   1.285  -0.786  0.00  0.00    +0.020 A 
ATOM      7 CL   LIG    1        4.999   0.532  -1.623  0.00  0.00    -0.084 Cl
ATOM      8  C   LIG    1        1.200   1.071  -0.293  0.00  0.00    +0.005 A 
ENDBRANCH   1   2
BRANCH   1   9
ATOM      9  C   LIG    1       -1.223   0.398   1.511  0.00  0.00    +0.129 C 
BRANCH   9  10
ATOM     10  C   LIG    1       -1.847   1.649   1.059  0.00  0.00    +0.305 C 
ATOM     11  O   LIG    1       -2.211   2.488   1.935  0.00  0.00    -0.251 OA
BRANCH  10  12
ATOM     12  O   LIG    1       -2.070   1.981  -0.255  0.00  0.00    -0.481 OA
ATOM     13  H   LIG    1       -1.924   2.941  -0.540  0.00  0.00    +0.295 HD
ENDBRANCH  10  12
ENDBRANCH   9  10
ENDBRANCH   1   9
BRANCH   1  14
ATOM     14  C   LIG    1       -1.593  -0.915  -0.591  0.00  0.00    +0.086 C 
BRANCH  14  15
ATOM     15  N   LIG    1       -2.699  -1.647  -0.009  0.00  0.00    -0.329 NA
ATOM     16  H   LIG    1       -2.313  -2.276   0.753  0.00  0.00    +0.118 HD
ATOM     17  H   LIG    1       -3.157  -2.259  -0.723  0.00  0.00    +0.118 HD
ENDBRANCH  14  15
ENDBRANCH   1  14
TORSDOF 6
