REMARK  Name = molecules/KRKNYBCHXYNGOX-UHFFFAOYSA-N.pdb
REMARK                            x       y       z     vdW  Elec       q    Type
REMARK                         _______ _______ _______ _____ _____    ______ ____
ROOT
ATOM      1  C   LIG    1       -0.246   0.465  -0.399  0.00  0.00    +0.182 C 
ENDROOT
BRANCH   1   2
ATOM      2  C   LIG    1        0.114   1.895  -0.360  0.00  0.00    +0.338 C 
ATOM      3  O   LIG    1       -0.243   2.707  -1.249  0.00  0.00    -0.248 OA
BRANCH   2   4
ATOM      4  O   LIG    1        0.874   2.397   0.683  0.00  0.00    -0.479 OA
ATOM      5  H   LIG    1        0.475   2.589   1.609  0.00  0.00    +0.295 HD
ENDBRANCH   2   4
ENDBRANCH   1   2
BRANCH   1   6
ATOM      6  O   LIG    1       -1.042   0.252  -1.560  0.00  0.00    -0.376 OA
ATOM      7  H   LIG    1       -0.466   0.237  -2.366  0.00  0.00    +0.211 HD
ENDBRANCH   1   6
BRANCH   1   8
ATOM      8  C   LIG    1       -1.124   0.065   0.766  0.00  0.00    +0.167 C 
BRANCH   8   9
ATOM      9  C   LIG    1       -1.624  -1.314   0.549  0.00  0.00    +0.308 C 
ATOM     10  O   LIG    1       -0.914  -2.322   0.865  0.00  0.00    -0.251 OA
BRANCH   9  11
ATOM     11  O   LIG    1       -2.857  -1.594   0.006  0.00  0.00    -0.481 OA
ATOM     12  H   LIG    1       -3.260  -1.195  -0.807  0.00  0.00    +0.295 HD
ENDBRANCH   9  11
ENDBRANCH   8   9
ENDBRANCH   1   8
BRANCH   1  13
ATOM     13  C   LIG    1        0.930  -0.454  -0.540  0.00  0.00    +0.167 C 
BRANCH  13  14
ATOM     14  C   LIG    1        1.821  -0.511   0.624  0.00  0.00    +0.308 C 
ATOM     15  O   LIG    1        1.686   0.123   1.689  0.00  0.00    -0.251 OA
BRANCH  14  16
ATOM     16  O   LIG    1        2.929  -1.360   0.524  0.00  0.00    -0.481 OA
ATOM     17  H   LIG    1        3.523  -1.213  -0.301  0.00  0.00    +0.295 HD
ENDBRANCH  14  16
ENDBRANCH  13  14
ENDBRANCH   1  13
TORSDOF 9
