REMARK  Name = molecules/KSCFJBIXMNOVSH-LURJTMIESA-N.pdb
REMARK                            x       y       z     vdW  Elec       q    Type
REMARK                         _______ _______ _______ _____ _____    ______ ____
ROOT
ATOM      1  N   LIG    1        0.765   0.045   1.271  0.00  0.00    -0.322 N 
ATOM      2  C   LIG    1        0.938  -1.195   1.751  0.00  0.00    +0.202 A 
ATOM      3  N   LIG    1       -0.081  -1.953   1.375  0.00  0.00    -0.218 NA
ATOM      4  C   LIG    1       -0.918  -1.205   0.650  0.00  0.00    +0.168 A 
ATOM      5  N   LIG    1       -2.088  -1.441   0.030  0.00  0.00    -0.280 N 
ATOM      6  C   LIG    1       -2.693  -2.770   0.073  0.00  0.00    +0.155 C 
ATOM      7  C   LIG    1       -2.739  -0.470  -0.647  0.00  0.00    +0.333 A 
ATOM      8  N   LIG    1       -2.265   0.780  -0.744  0.00  0.00    -0.262 N 
ATOM      9  C   LIG    1       -1.085   1.042  -0.126  0.00  0.00    +0.282 A 
ATOM     10  O   LIG    1       -0.633   2.219  -0.212  0.00  0.00    -0.265 OA
ATOM     11  C   LIG    1       -2.945   1.837  -1.464  0.00  0.00    +0.157 C 
ATOM     12  O   LIG    1       -3.846  -0.703  -1.231  0.00  0.00    -0.246 OA
ATOM     13  C   LIG    1       -0.386   0.058   0.583  0.00  0.00    +0.152 A 
ENDROOT
BRANCH   1  14
ATOM     14  C   LIG    1        1.619   1.203   1.408  0.00  0.00    +0.157 C 
BRANCH  14  15
ATOM     15  C   LIG    1        2.685   1.335   0.386  0.00  0.00    +0.159 C 
BRANCH  15  16
ATOM     16  O   LIG    1        2.280   1.602  -0.895  0.00  0.00    -0.388 OA
ATOM     17  H   LIG    1        2.337   0.870  -1.528  0.00  0.00    +0.210 HD
ENDBRANCH  15  16
BRANCH  15  18
ATOM     18  C   LIG    1        3.624   0.134   0.414  0.00  0.00    +0.188 C 
BRANCH  18  19
ATOM     19  O   LIG    1        3.029  -1.008  -0.076  0.00  0.00    -0.392 OA
ATOM     20  H   LIG    1        3.651  -1.580  -0.597  0.00  0.00    +0.210 HD
ENDBRANCH  18  19
ENDBRANCH  15  18
ENDBRANCH  14  15
ENDBRANCH   1  14
TORSDOF 5
