REMARK  Name = molecules/KSEYRUGYKHXGFW-LLVKDONJSA-N.pdb
REMARK                            x       y       z     vdW  Elec       q    Type
REMARK                         _______ _______ _______ _____ _____    ______ ____
ROOT
ATOM      1  C   LIG    1       -0.952   0.761  -0.072  0.00  0.00    +0.248 C 
ATOM      2  O   LIG    1       -0.227   1.581   0.567  0.00  0.00    -0.270 OA
ATOM      3  N   LIG    1       -0.307  -0.034  -1.025  0.00  0.00    -0.310 N 
ATOM      4  H   LIG    1       -0.801  -0.725  -1.600  0.00  0.00    +0.149 HD
ENDROOT
BRANCH   1   6
ATOM      5  C   LIG    1       -3.295  -0.102  -0.351  0.00  0.00    +0.134 A 
ATOM      6  C   LIG    1       -2.363   0.721   0.239  0.00  0.00    +0.080 A 
ATOM      7  C   LIG    1       -2.867   1.582   1.221  0.00  0.00    +0.048 A 
ATOM      8  C   LIG    1       -4.172   1.642   1.604  0.00  0.00    +0.113 A 
ATOM      9  N   LIG    1       -4.801   2.396   2.509  0.00  0.00    -0.130 NA
ATOM     10  N   LIG    1       -6.071   2.045   2.473  0.00  0.00    -0.067 NA
ATOM     11  N   LIG    1       -6.265   1.085   1.567  0.00  0.00    -0.257 N 
ATOM     12  H   LIG    1       -7.176   0.662   1.371  0.00  0.00    +0.191 HD
ATOM     13  C   LIG    1       -5.078   0.810   0.999  0.00  0.00    +0.089 A 
ATOM     14  C   LIG    1       -4.641  -0.051   0.034  0.00  0.00    +0.075 A 
BRANCH   5  16
ATOM     15  C   LIG    1       -3.714  -1.887  -2.027  0.00  0.00    +0.277 C 
ATOM     16  O   LIG    1       -2.918  -0.984  -1.323  0.00  0.00    -0.494 OA
ENDBRANCH   5  16
ENDBRANCH   1   6
BRANCH   3  17
ATOM     17  C   LIG    1        1.128   0.047  -1.291  0.00  0.00    +0.123 C 
BRANCH  17  18
ATOM     18  C   LIG    1        1.876  -0.315  -0.060  0.00  0.00    +0.074 C 
ATOM     19  C   LIG    1        1.561  -1.730   0.418  0.00  0.00    +0.022 C 
ATOM     20  C   LIG    1        2.710  -1.932   1.396  0.00  0.00    +0.017 C 
ATOM     21  C   LIG    1        3.862  -1.400   0.541  0.00  0.00    +0.085 C 
ATOM     22  N   LIG    1        3.314  -0.365  -0.275  0.00  0.00    -0.294 NA
BRANCH  22  23
ATOM     23  C   LIG    1        3.845   0.911   0.183  0.00  0.00    +0.111 C 
BRANCH  23  24
ATOM     24  C   LIG    1        5.282   1.041  -0.090  0.00  0.00    -0.019 C 
ATOM     25  C   LIG    1        5.714   2.027  -0.861  0.00  0.00    +0.005 C 
ENDBRANCH  23  24
ENDBRANCH  22  23
ENDBRANCH  17  18
ENDBRANCH   3  17
TORSDOF 6
