REMARK  Name = molecules/KSFOVUSSGSKXFI-UJJXFSCMSA-N.pdb
REMARK                            x       y       z     vdW  Elec       q    Type
REMARK                         _______ _______ _______ _____ _____    ______ ____
ROOT
ATOM      1  C   LIG    1        2.744  -1.243  -0.160  0.00  0.00    -0.019 A 
ATOM      2  C   LIG    1        2.138  -2.464  -0.040  0.00  0.00    -0.022 A 
ATOM      3  C   LIG    1        2.884  -3.722   0.345  0.00  0.00    +0.046 C 
ATOM      4  C   LIG    1        0.774  -2.294  -0.344  0.00  0.00    +0.045 A 
ATOM      5  C   LIG    1       -0.094  -3.396  -0.277  0.00  0.00    +0.054 C 
ATOM      6  C   LIG    1       -1.371  -3.432   0.252  0.00  0.00    +0.074 C 
ATOM      7  C   LIG    1       -2.186  -4.428   0.893  0.00  0.00    +0.005 C 
ATOM      8  C   LIG    1       -3.377  -3.842   1.170  0.00  0.00    -0.016 C 
ATOM      9  C   LIG    1       -4.518  -4.523   1.834  0.00  0.00    +0.046 C 
ATOM     10  C   LIG    1       -3.289  -2.482   0.702  0.00  0.00    +0.070 C 
ATOM     11  C   LIG    1       -4.183  -1.393   0.735  0.00  0.00    +0.054 C 
ATOM     12  C   LIG    1       -3.863  -0.061   0.412  0.00  0.00    +0.049 A 
ATOM     13  N   LIG    1       -2.812   0.690   0.776  0.00  0.00    -0.354 N 
ATOM     14  H   LIG    1       -1.986   0.386   1.477  0.00  0.00    +0.166 HD
ATOM     15  C   LIG    1       -2.941   1.879   0.175  0.00  0.00    +0.045 A 
ATOM     16  C   LIG    1       -2.098   3.016   0.218  0.00  0.00    +0.054 C 
ATOM     17  C   LIG    1       -0.723   3.049   0.059  0.00  0.00    +0.070 C 
ATOM     18  C   LIG    1        0.317   4.064   0.140  0.00  0.00    -0.020 C 
ATOM     19  C   LIG    1        0.071   5.492   0.469  0.00  0.00    +0.046 C 
ATOM     20  C   LIG    1        1.488   3.509  -0.118  0.00  0.00    -0.017 C 
ATOM     21  C   LIG    1        1.256   2.100  -0.380  0.00  0.00    +0.070 C 
ATOM     22  C   LIG    1        2.040   1.000  -0.705  0.00  0.00    +0.054 C 
ATOM     23  N   LIG    1       -0.077   1.894  -0.258  0.00  0.00    -0.247 NA
ATOM     24  C   LIG    1       -4.110   1.914  -0.601  0.00  0.00    -0.018 A 
ATOM     25  C   LIG    1       -4.673   3.041  -1.432  0.00  0.00    +0.046 C 
ATOM     26  C   LIG    1       -4.697   0.676  -0.448  0.00  0.00    +0.003 A 
ATOM     27  N   LIG    1       -2.079  -2.288   0.165  0.00  0.00    -0.247 NA
ATOM     28  N   LIG    1        0.544  -1.004  -0.647  0.00  0.00    -0.355 N 
ATOM     29  H   LIG    1       -0.433  -0.561  -0.958  0.00  0.00    +0.166 HD
ATOM     30  C   LIG    1        1.719  -0.357  -0.538  0.00  0.00    +0.045 A 
ENDROOT
BRANCH   7  31
ATOM     31  C   LIG    1       -1.880  -5.814   1.219  0.00  0.00    +0.002 C 
ATOM     32  C   LIG    1       -0.782  -6.464   1.020  0.00  0.00    +0.009 C 
ENDBRANCH   7  31
BRANCH  26  33
ATOM     33  C   LIG    1       -5.943   0.296  -1.135  0.00  0.00    +0.002 C 
ATOM     34  C   LIG    1       -6.930  -0.332  -0.595  0.00  0.00    +0.009 C 
ENDBRANCH  26  33
BRANCH   1  35
ATOM     35  C   LIG    1        4.194  -1.041   0.066  0.00  0.00    +0.048 C 
BRANCH  35  36
ATOM     36  C   LIG    1        5.021  -0.978  -1.187  0.00  0.00    +0.125 C 
BRANCH  36  37
ATOM     37  C   LIG    1        6.460  -0.782  -0.875  0.00  0.00    +0.305 C 
ATOM     38  O   LIG    1        7.110  -1.599  -0.164  0.00  0.00    -0.251 OA
BRANCH  37  39
ATOM     39  O   LIG    1        7.128   0.325  -1.368  0.00  0.00    -0.481 OA
ATOM     40  H   LIG    1        7.483   1.058  -0.743  0.00  0.00    +0.295 HD
ENDBRANCH  37  39
ENDBRANCH  36  37
ENDBRANCH  35  36
ENDBRANCH   1  35
BRANCH  20  41
ATOM     41  C   LIG    1        2.802   4.205  -0.138  0.00  0.00    +0.049 C 
BRANCH  41  42
ATOM     42  C   LIG    1        3.782   3.642   0.849  0.00  0.00    +0.125 C 
BRANCH  42  43
ATOM     43  C   LIG    1        5.042   4.419   0.727  0.00  0.00    +0.305 C 
ATOM     44  O   LIG    1        6.015   4.100   1.458  0.00  0.00    -0.251 OA
BRANCH  43  45
ATOM     45  O   LIG    1        5.220   5.481  -0.147  0.00  0.00    -0.481 OA
ATOM     46  H   LIG    1        5.463   6.425   0.186  0.00  0.00    +0.295 HD
ENDBRANCH  43  45
ENDBRANCH  42  43
ENDBRANCH  41  42
ENDBRANCH  20  41
TORSDOF 10
