REMARK  Name = molecules/KSUUMAWCGDNLFK-SSDOTTSWSA-N.pdb
REMARK                            x       y       z     vdW  Elec       q    Type
REMARK                         _______ _______ _______ _____ _____    ______ ____
ROOT
ATOM      1  C   LIG    1        0.705  -0.420   0.278  0.00  0.00    +0.224 C 
ATOM      2  O   LIG    1        0.846  -1.167   1.307  0.00  0.00    -0.275 OA
ATOM      3  N   LIG    1        1.840   0.220  -0.247  0.00  0.00    -0.240 N 
ATOM      4  C   LIG    1        3.119   0.055   0.346  0.00  0.00    +0.303 C 
ATOM      5  O   LIG    1        3.232  -0.669   1.347  0.00  0.00    -0.253 OA
ATOM      6  N   LIG    1        4.289   0.683  -0.153  0.00  0.00    -0.313 N 
ATOM      7  H   LIG    1        4.400   1.708   0.002  0.00  0.00    +0.146 HD
ATOM      8  H   LIG    1        4.985   0.091  -0.652  0.00  0.00    +0.146 HD
ATOM      9  H   LIG    1        1.785   0.834  -1.085  0.00  0.00    +0.159 HD
ENDROOT
BRANCH   1  10
ATOM     10  C   LIG    1       -0.658  -0.294  -0.275  0.00  0.00    +0.082 C 
BRANCH  10  11
ATOM     11  C   LIG    1       -1.581  -1.229   0.470  0.00  0.00    -0.005 C 
ATOM     12  C   LIG    1       -1.148  -2.654   0.342  0.00  0.00    +0.008 C 
ATOM     13  C   LIG    1       -3.007  -1.130  -0.062  0.00  0.00    +0.008 C 
ENDBRANCH  10  11
BRANCH  10  14
ATOM     14  C   LIG    1       -1.118   1.137  -0.065  0.00  0.00    +0.039 C 
BRANCH  14  15
ATOM     15  C   LIG    1       -0.260   2.139  -0.727  0.00  0.00    -0.034 C 
ATOM     16  C   LIG    1        0.334   3.074   0.005  0.00  0.00    +0.004 C 
ENDBRANCH  14  15
ENDBRANCH  10  14
ENDBRANCH   1  10
TORSDOF 4
