REMARK  Name = molecules/KTGWBBOJAGDSHN-UHFFFAOYSA-N.pdb
REMARK                            x       y       z     vdW  Elec       q    Type
REMARK                         _______ _______ _______ _____ _____    ______ ____
ROOT
ATOM      1  C   LIG    1        0.182   0.228  -0.012  0.00  0.00    +0.130 C 
ATOM      2  C   LIG    1       -0.311   0.742   1.264  0.00  0.00    +0.236 C 
ATOM      3  O   LIG    1        0.325   0.586   2.362  0.00  0.00    -0.274 OA
ATOM      4  N   LIG    1       -1.524   1.446   1.365  0.00  0.00    -0.239 N 
ATOM      5  H   LIG    1       -1.973   1.645   2.321  0.00  0.00    +0.159 HD
ATOM      6  C   LIG    1       -2.193   1.915   0.212  0.00  0.00    +0.312 C 
ATOM      7  O   LIG    1       -3.294   2.552   0.352  0.00  0.00    -0.252 OA
ATOM      8  N   LIG    1       -1.651   1.681  -1.050  0.00  0.00    -0.239 N 
ATOM      9  H   LIG    1       -2.190   2.053  -1.885  0.00  0.00    +0.159 HD
ATOM     10  C   LIG    1       -0.447   0.981  -1.152  0.00  0.00    +0.236 C 
ATOM     11  O   LIG    1        0.144   0.982  -2.265  0.00  0.00    -0.274 OA
ENDROOT
BRANCH   1  12
ATOM     12  C   LIG    1       -0.298  -1.192  -0.175  0.00  0.00    +0.007 C 
ATOM     13  C   LIG    1       -1.821  -1.240   0.038  0.00  0.00    +0.009 C 
ATOM     14  C   LIG    1       -0.036  -1.794  -1.513  0.00  0.00    +0.009 C 
ENDBRANCH   1  12
BRANCH   1  15
ATOM     15  C   LIG    1        1.650   0.419  -0.207  0.00  0.00    +0.068 C 
BRANCH  15  16
ATOM     16  C   LIG    1        2.576  -0.279   0.647  0.00  0.00    -0.010 C 
ATOM     17  C   LIG    1        3.406   0.323   1.471  0.00  0.00    +0.020 C 
ATOM     18 BR   LIG    1        2.675  -2.177   0.607  0.00  0.00    -0.056 Br
ENDBRANCH  15  16
ENDBRANCH   1  15
TORSDOF 3
