REMARK  Name = molecules/KTHVBAZBLKXIHZ-IBGZPJMESA-N.pdb
REMARK                            x       y       z     vdW  Elec       q    Type
REMARK                         _______ _______ _______ _____ _____    ______ ____
ROOT
ATOM      1  C   LIG    1       -2.287  -0.390  -0.918  0.00  0.00    +0.158 C 
ENDROOT
BRANCH   1   2
ATOM      2  C   LIG    1       -2.571  -1.055   0.369  0.00  0.00    -0.029 A 
ATOM      3  C   LIG    1       -1.679  -1.174   1.408  0.00  0.00    +0.005 A 
ATOM      4  C   LIG    1       -1.998  -1.810   2.604  0.00  0.00    +0.000 A 
ATOM      5  C   LIG    1       -3.239  -2.339   2.764  0.00  0.00    +0.000 A 
ATOM      6  C   LIG    1       -4.178  -2.247   1.748  0.00  0.00    +0.000 A 
ATOM      7  C   LIG    1       -3.834  -1.612   0.577  0.00  0.00    +0.005 A 
ENDBRANCH   1   2
BRANCH   1   8
ATOM      8  C   LIG    1       -2.654   1.044  -0.942  0.00  0.00    -0.029 A 
ATOM      9  C   LIG    1       -1.873   1.979  -0.339  0.00  0.00    +0.005 A 
ATOM     10  C   LIG    1       -2.267   3.319  -0.399  0.00  0.00    +0.000 A 
ATOM     11  C   LIG    1       -3.406   3.708  -1.043  0.00  0.00    +0.000 A 
ATOM     12  C   LIG    1       -4.170   2.728  -1.643  0.00  0.00    +0.000 A 
ATOM     13  C   LIG    1       -3.822   1.407  -1.608  0.00  0.00    +0.005 A 
ENDBRANCH   1   8
BRANCH   1  14
ATOM     14  C   LIG    1       -0.876  -0.554  -1.336  0.00  0.00    +0.319 C 
ATOM     15  O   LIG    1       -0.568  -1.272  -2.356  0.00  0.00    -0.250 OA
BRANCH  14  16
ATOM     16  O   LIG    1        0.213   0.017  -0.710  0.00  0.00    -0.459 OA
BRANCH  16  17
ATOM     17  C   LIG    1        1.556  -0.158  -1.132  0.00  0.00    +0.190 C 
ATOM     18  C   LIG    1        2.383  -0.881  -0.109  0.00  0.00    +0.129 C 
ATOM     19  N   LIG    1        3.477  -0.133   0.412  0.00  0.00    -0.299 NA
ATOM     20  C   LIG    1        4.348   0.434  -0.566  0.00  0.00    +0.084 C 
ATOM     21  C   LIG    1        3.653   1.030  -1.750  0.00  0.00    +0.019 C 
ATOM     22  C   LIG    1        2.167   1.145  -1.593  0.00  0.00    +0.047 C 
BRANCH  19  23
ATOM     23  C   LIG    1        4.280  -1.034   1.223  0.00  0.00    +0.081 C 
ATOM     24  C   LIG    1        3.581  -1.473   2.470  0.00  0.00    +0.020 C 
ENDBRANCH  19  23
ENDBRANCH  16  17
ENDBRANCH  14  16
ENDBRANCH   1  14
TORSDOF 6
