REMARK  Name = molecules/KTOAWCPDBUCJED-UHFFFAOYSA-N.pdb
REMARK                            x       y       z     vdW  Elec       q    Type
REMARK                         _______ _______ _______ _____ _____    ______ ____
ROOT
ATOM      1  C   LIG    1        3.005  -0.893  -0.219  0.00  0.00    +0.269 C 
ENDROOT
BRANCH   1   2
ATOM      2  C   LIG    1        4.045   0.128   0.048  0.00  0.00    +0.017 A 
ATOM      3  C   LIG    1        3.697   1.379   0.510  0.00  0.00    +0.118 A 
ATOM      4  N   LIG    1        4.665   2.311   0.752  0.00  0.00    -0.256 NA
ATOM      5  C   LIG    1        5.962   2.069   0.560  0.00  0.00    +0.080 A 
ATOM      6  C   LIG    1        6.952   3.136   0.847  0.00  0.00    +0.069 C 
ATOM      7  C   LIG    1        6.355   0.838   0.102  0.00  0.00    +0.143 A 
ATOM      8  C   LIG    1        5.383  -0.119  -0.148  0.00  0.00    +0.029 A 
BRANCH   7   9
ATOM      9  O   LIG    1        7.698   0.583  -0.097  0.00  0.00    -0.505 OA
ATOM     10  H   LIG    1        8.371   1.302   0.096  0.00  0.00    +0.292 HD
ENDBRANCH   7   9
BRANCH   8  11
ATOM     11  C   LIG    1        5.842  -1.442  -0.643  0.00  0.00    +0.195 C 
BRANCH  11  12
ATOM     12  O   LIG    1        7.225  -1.490  -0.774  0.00  0.00    -0.390 OA
ATOM     13  H   LIG    1        7.561  -2.423  -0.652  0.00  0.00    +0.210 HD
ENDBRANCH  11  12
ENDBRANCH   8  11
ENDBRANCH   1   2
BRANCH   1  14
ATOM     14  O   LIG    1        1.707  -0.392   0.064  0.00  0.00    -0.460 OA
BRANCH  14  15
ATOM     15  C   LIG    1        0.564  -1.145  -0.102  0.00  0.00    +0.308 C 
ATOM     16  O   LIG    1        0.685  -2.324  -0.522  0.00  0.00    -0.251 OA
BRANCH  15  17
ATOM     17  C   LIG    1       -0.794  -0.643   0.188  0.00  0.00    +0.132 C 
BRANCH  17  18
ATOM     18  C   LIG    1       -1.845  -1.707  -0.092  0.00  0.00    +0.132 C 
BRANCH  18  19
ATOM     19  C   LIG    1       -3.210  -1.183   0.207  0.00  0.00    +0.308 C 
ATOM     20  O   LIG    1       -3.308  -0.004   0.628  0.00  0.00    -0.251 OA
BRANCH  19  21
ATOM     21  O   LIG    1       -4.342  -1.931   0.041  0.00  0.00    -0.463 OA
BRANCH  21  22
ATOM     22  C   LIG    1       -5.662  -1.514   0.296  0.00  0.00    +0.247 C 
BRANCH  22  23
ATOM     23  C   LIG    1       -5.979  -0.346  -0.604  0.00  0.00    +0.125 C 
BRANCH  23  24
ATOM     24  N   LIG    1       -7.336   0.135  -0.391  0.00  0.00    -0.305 NA
ATOM     25  C   LIG    1       -7.431   0.743   0.943  0.00  0.00    +0.104 C 
ATOM     26  C   LIG    1       -7.533   1.231  -1.331  0.00  0.00    +0.104 C 
ENDBRANCH  23  24
ENDBRANCH  22  23
ENDBRANCH  21  22
ENDBRANCH  19  21
ENDBRANCH  18  19
ENDBRANCH  17  18
ENDBRANCH  15  17
ENDBRANCH  14  15
ENDBRANCH   1  14
TORSDOF 13
