REMARK  Name = molecules/KTOYYUONFQWSMW-UHFFFAOYSA-N.pdb
REMARK                            x       y       z     vdW  Elec       q    Type
REMARK                         _______ _______ _______ _____ _____    ______ ____
ROOT
ATOM      1  N   LIG    1       -4.245   0.190   1.283  0.00  0.00    -0.302 NA
ATOM      2  C   LIG    1       -3.614   1.369   1.715  0.00  0.00    +0.084 C 
ATOM      3  C   LIG    1       -2.129   1.251   1.924  0.00  0.00    +0.019 C 
ATOM      4  C   LIG    1       -1.572   0.552   0.708  0.00  0.00    -0.005 C 
ATOM      5  C   LIG    1       -2.073  -0.854   0.706  0.00  0.00    +0.019 C 
ATOM      6  C   LIG    1       -3.499  -0.987   1.130  0.00  0.00    +0.084 C 
ENDROOT
BRANCH   1   7
ATOM      7  C   LIG    1       -5.513   0.305   0.686  0.00  0.00    +0.086 C 
BRANCH   7   8
ATOM      8  C   LIG    1       -5.526   0.988  -0.667  0.00  0.00    +0.034 C 
BRANCH   8   9
ATOM      9  C   LIG    1       -6.951   1.062  -1.174  0.00  0.00    +0.108 C 
BRANCH   9  21
ATOM     10  C   LIG    1       -9.711  -0.852   1.409  0.00  0.00    +0.104 C 
ATOM     11  C   LIG    1      -10.427  -0.120   2.324  0.00  0.00    +0.029 C 
ATOM     12  C   LIG    1      -10.262   1.244   2.394  0.00  0.00    +0.015 C 
ATOM     13  C   LIG    1       -9.401   1.881   1.570  0.00  0.00    +0.021 C 
ATOM     14  S   LIG    1       -9.255   3.640   1.756  0.00  0.00    -0.089 S 
ATOM     15  C   LIG    1       -8.114   4.184   0.501  0.00  0.00    +0.034 A 
ATOM     16  C   LIG    1       -7.897   5.527   0.417  0.00  0.00    +0.017 A 
ATOM     17  C   LIG    1       -7.048   6.054  -0.507  0.00  0.00    +0.001 A 
ATOM     18  C   LIG    1       -6.418   5.154  -1.357  0.00  0.00    +0.002 A 
ATOM     19  C   LIG    1       -6.649   3.801  -1.260  0.00  0.00    +0.024 A 
ATOM     20  C   LIG    1       -7.512   3.260  -0.319  0.00  0.00    +0.045 A 
ATOM     21  N   LIG    1       -7.759   1.853  -0.262  0.00  0.00    -0.313 N 
ATOM     22  C   LIG    1       -8.652   1.204   0.629  0.00  0.00    +0.116 C 
ATOM     23  C   LIG    1       -8.837  -0.183   0.578  0.00  0.00    +0.035 C 
BRANCH  10  24
ATOM     24  S   LIG    1       -9.908  -2.598   1.305  0.00  0.00    +0.060 S 
ATOM     25  O   LIG    1      -10.198  -3.211   2.622  0.00  0.00    -0.153 OA
ATOM     26  O   LIG    1       -8.660  -3.248   0.746  0.00  0.00    -0.153 OA
BRANCH  24  28
ATOM     27  C   LIG    1      -10.915  -2.445  -1.124  0.00  0.00    +0.131 C 
ATOM     28  N   LIG    1      -11.181  -2.921   0.205  0.00  0.00    -0.183 NA
ATOM     29  C   LIG    1      -11.459  -4.343   0.138  0.00  0.00    +0.131 C 
ENDBRANCH  24  28
ENDBRANCH  10  24
ENDBRANCH   9  21
ENDBRANCH   8   9
ENDBRANCH   7   8
ENDBRANCH   1   7
BRANCH   4  30
ATOM     30  C   LIG    1       -0.098   0.688   0.532  0.00  0.00    +0.044 C 
BRANCH  30  31
ATOM     31  C   LIG    1        0.708   0.144   1.662  0.00  0.00    +0.232 C 
BRANCH  31  32
ATOM     32  O   LIG    1        2.088   0.302   1.443  0.00  0.00    -0.465 OA
BRANCH  32  33
ATOM     33  C   LIG    1        2.781  -0.284   0.359  0.00  0.00    +0.307 C 
ATOM     34  O   LIG    1        2.126  -0.978  -0.436  0.00  0.00    -0.251 OA
BRANCH  33  35
ATOM     35  C   LIG    1        4.232  -0.063   0.200  0.00  0.00    +0.120 C 
BRANCH  35  36
ATOM     36  C   LIG    1        4.827  -0.869  -0.908  0.00  0.00    +0.011 C 
BRANCH  36  37
ATOM     37  C   LIG    1        4.748  -2.340  -0.698  0.00  0.00    +0.001 C 
BRANCH  37  38
ATOM     38  C   LIG    1        5.387  -2.896   0.496  0.00  0.00    +0.000 C 
BRANCH  38  39
ATOM     39  C   LIG    1        6.806  -2.792   0.810  0.00  0.00    +0.000 C 
BRANCH  39  40
ATOM     40  C   LIG    1        7.829  -3.366  -0.083  0.00  0.00    +0.000 C 
BRANCH  40  41
ATOM     41  C   LIG    1        8.029  -2.749  -1.410  0.00  0.00    -0.000 C 
BRANCH  41  42
ATOM     42  C   LIG    1        8.553  -1.295  -1.284  0.00  0.00    -0.000 C 
BRANCH  42  43
ATOM     43  C   LIG    1        8.677  -0.786  -2.664  0.00  0.00    -0.000 C 
BRANCH  43  44
ATOM     44  C   LIG    1        9.066   0.592  -2.932  0.00  0.00    -0.000 C 
BRANCH  44  45
ATOM     45  C   LIG    1       10.350   1.124  -2.483  0.00  0.00    -0.000 C 
BRANCH  45  46
ATOM     46  C   LIG    1       10.642   1.234  -1.029  0.00  0.00    -0.000 C 
BRANCH  46  47
ATOM     47  C   LIG    1       12.050   1.877  -0.921  0.00  0.00    -0.000 C 
BRANCH  47  48
ATOM     48  C   LIG    1       12.420   2.018   0.535  0.00  0.00    -0.003 C 
ATOM     49  C   LIG    1       12.450   0.687   1.224  0.00  0.00    +0.004 C 
ENDBRANCH  47  48
ENDBRANCH  46  47
ENDBRANCH  45  46
ENDBRANCH  44  45
ENDBRANCH  43  44
ENDBRANCH  42  43
ENDBRANCH  41  42
ENDBRANCH  40  41
ENDBRANCH  39  40
ENDBRANCH  38  39
ENDBRANCH  37  38
ENDBRANCH  36  37
ENDBRANCH  35  36
ENDBRANCH  33  35
ENDBRANCH  32  33
ENDBRANCH  31  32
ENDBRANCH  30  31
ENDBRANCH   4  30
TORSDOF 24
