REMARK  Name = molecules/KUCQYCKVKVOKAY-CTYIDZIISA-N.pdb
REMARK                            x       y       z     vdW  Elec       q    Type
REMARK                         _______ _______ _______ _____ _____    ______ ____
ROOT
ATOM      1  O   LIG    1       -2.060   2.080  -0.358  0.00  0.00    -0.287 OA
ATOM      2  C   LIG    1       -2.558   0.951  -0.385  0.00  0.00    +0.194 C 
ATOM      3  C   LIG    1       -4.004   0.843  -0.216  0.00  0.00    +0.033 A 
ATOM      4  C   LIG    1       -4.835   1.927  -0.030  0.00  0.00    +0.012 A 
ATOM      5  C   LIG    1       -6.196   1.803   0.127  0.00  0.00    +0.001 A 
ATOM      6  C   LIG    1       -6.772   0.538   0.100  0.00  0.00    +0.001 A 
ATOM      7  C   LIG    1       -5.966  -0.563  -0.084  0.00  0.00    +0.012 A 
ATOM      8  C   LIG    1       -4.582  -0.409  -0.242  0.00  0.00    +0.036 A 
ATOM      9  C   LIG    1       -3.709  -1.542  -0.437  0.00  0.00    +0.228 C 
ATOM     10  O   LIG    1       -4.252  -2.684  -0.459  0.00  0.00    -0.283 OA
ATOM     11  C   LIG    1       -2.251  -1.373  -0.603  0.00  0.00    +0.171 C 
ATOM     12  C   LIG    1       -1.685  -0.184  -0.580  0.00  0.00    +0.048 C 
ENDROOT
BRANCH  12  13
ATOM     13  C   LIG    1       -0.269  -0.005  -0.733  0.00  0.00    +0.027 C 
ATOM     14  C   LIG    1        0.455   0.816   0.266  0.00  0.00    +0.009 C 
ATOM     15  C   LIG    1        1.376   0.064   1.193  0.00  0.00    +0.009 C 
ATOM     16  C   LIG    1        2.448  -0.683   0.482  0.00  0.00    +0.019 C 
ATOM     17  C   LIG    1        2.046  -0.900  -0.951  0.00  0.00    +0.009 C 
ATOM     18  C   LIG    1        0.550  -1.271  -0.904  0.00  0.00    +0.009 C 
BRANCH  16  19
ATOM     19  C   LIG    1        3.795  -0.139   0.570  0.00  0.00    -0.044 A 
ATOM     20  C   LIG    1        4.792  -0.823   1.227  0.00  0.00    +0.005 A 
ATOM     21  C   LIG    1        6.089  -0.343   1.333  0.00  0.00    +0.020 A 
ATOM     22  C   LIG    1        6.406   0.862   0.765  0.00  0.00    +0.041 A 
ATOM     23 CL   LIG    1        8.051   1.465   0.902  0.00  0.00    -0.084 Cl
ATOM     24  C   LIG    1        5.433   1.576   0.098  0.00  0.00    +0.020 A 
ATOM     25  C   LIG    1        4.150   1.068   0.011  0.00  0.00    +0.005 A 
ENDBRANCH  16  19
ENDBRANCH  12  13
BRANCH  11  26
ATOM     26  O   LIG    1       -1.562  -2.543  -0.778  0.00  0.00    -0.503 OA
ATOM     27  H   LIG    1       -1.679  -3.050  -1.663  0.00  0.00    +0.292 HD
ENDBRANCH  11  26
TORSDOF 3
