REMARK  Name = molecules/KUCWWEPJRBANHL-UHFFFAOYSA-N.pdb
REMARK                            x       y       z     vdW  Elec       q    Type
REMARK                         _______ _______ _______ _____ _____    ______ ____
ROOT
ATOM      1  C   LIG    1       -0.200   0.015  -0.002  0.00  0.00    +0.033 A 
ATOM      2  C   LIG    1        0.316  -0.546   1.165  0.00  0.00    +0.023 A 
ATOM      3  C   LIG    1       -0.593  -1.000   2.091  0.00  0.00    +0.002 A 
ATOM      4  C   LIG    1       -1.950  -0.903   1.868  0.00  0.00    +0.004 A 
ATOM      5  C   LIG    1       -2.467  -0.347   0.712  0.00  0.00    -0.042 A 
ATOM      6  C   LIG    1       -3.860  -0.110   0.200  0.00  0.00    +0.036 C 
ATOM      7  C   LIG    1       -3.601   1.095  -0.708  0.00  0.00    +0.009 C 
ATOM      8  C   LIG    1       -2.312   0.663  -1.375  0.00  0.00    +0.037 C 
ATOM      9  C   LIG    1       -1.558   0.110  -0.219  0.00  0.00    -0.023 A 
ENDROOT
BRANCH   1  10
ATOM     10  N   LIG    1        0.710   0.493  -0.978  0.00  0.00    -0.309 N 
ATOM     11  H   LIG    1        0.333   0.914  -1.854  0.00  0.00    +0.149 HD
BRANCH  10  12
ATOM     12  C   LIG    1        2.131   0.398  -0.759  0.00  0.00    +0.206 C 
ATOM     13  N   LIG    1        2.924   1.297  -0.319  0.00  0.00    -0.196 NA
ATOM     14  C   LIG    1        4.294   0.798  -0.245  0.00  0.00    +0.121 C 
ATOM     15  C   LIG    1        4.119  -0.721  -0.361  0.00  0.00    +0.101 C 
ATOM     16  N   LIG    1        2.843  -0.792  -1.033  0.00  0.00    -0.277 NA
ATOM     17  H   LIG    1        2.507  -1.602  -1.626  0.00  0.00    +0.125 HD
ENDBRANCH  10  12
ENDBRANCH   1  10
TORSDOF 2
