REMARK  Name = molecules/KUVIULQEHSCUHY-XYWKZLDCSA-N.pdb
REMARK                            x       y       z     vdW  Elec       q    Type
REMARK                         _______ _______ _______ _____ _____    ______ ____
ROOT
ATOM      1  C   LIG    1        1.314   0.381  -0.318  0.00  0.00    +0.182 C 
ATOM      2  C   LIG    1        0.010  -0.421  -0.306  0.00  0.00    +0.021 C 
ATOM      3  C   LIG    1       -0.637  -0.550   1.017  0.00  0.00    +0.044 C 
ATOM      4  C   LIG    1       -1.919   0.246   1.158  0.00  0.00    +0.137 C 
ATOM      5  C   LIG    1       -2.877   0.115   0.063  0.00  0.00    +0.084 C 
ATOM      6  C   LIG    1       -4.006  -0.837   0.132  0.00  0.00    +0.018 C 
ATOM      7  C   LIG    1       -4.728  -0.911   1.413  0.00  0.00    +0.035 C 
ATOM      8  C   LIG    1       -6.012  -0.656   1.575  0.00  0.00    +0.029 C 
ATOM      9  C   LIG    1       -6.804  -0.275   0.441  0.00  0.00    +0.175 C 
ATOM     10  O   LIG    1       -8.050  -0.027   0.603  0.00  0.00    -0.288 OA
ATOM     11  C   LIG    1       -6.174  -0.181  -0.858  0.00  0.00    +0.050 C 
ATOM     12  C   LIG    1       -3.629  -2.290  -0.189  0.00  0.00    +0.018 C 
ATOM     13  C   LIG    1       -4.904  -0.438  -0.987  0.00  0.00    -0.058 C 
ATOM     14  C   LIG    1       -4.325  -0.322  -2.359  0.00  0.00    +0.032 C 
ATOM     15  C   LIG    1       -3.059   0.510  -2.341  0.00  0.00    +0.010 C 
ATOM     16 CL   LIG    1       -3.670   1.736  -0.127  0.00  0.00    -0.114 Cl
ATOM     17  C   LIG    1       -2.174  -0.110  -1.288  0.00  0.00    +0.017 C 
ATOM     18  C   LIG    1        0.229  -1.790  -0.886  0.00  0.00    +0.016 C 
ATOM     19  C   LIG    1       -0.847   0.485  -1.161  0.00  0.00    +0.005 C 
ATOM     20  C   LIG    1        0.015   0.615  -2.378  0.00  0.00    +0.012 C 
ATOM     21  C   LIG    1        1.339   0.954  -1.721  0.00  0.00    +0.038 C 
ATOM     22  C   LIG    1        2.463   0.503  -2.570  0.00  0.00    +0.012 C 
ENDROOT
BRANCH   1  23
ATOM     23  C   LIG    1        2.460  -0.474  -0.030  0.00  0.00    +0.214 C 
ATOM     24  O   LIG    1        2.935  -1.255  -0.883  0.00  0.00    -0.289 OA
BRANCH  23  25
ATOM     25  C   LIG    1        3.135  -0.491   1.280  0.00  0.00    +0.310 C 
BRANCH  25  26
ATOM     26  O   LIG    1        4.226  -1.403   1.309  0.00  0.00    -0.457 OA
BRANCH  26  27
ATOM     27  C   LIG    1        5.314  -1.299   0.464  0.00  0.00    +0.307 C 
ATOM     28  O   LIG    1        5.368  -0.383  -0.365  0.00  0.00    -0.251 OA
BRANCH  27  29
ATOM     29  C   LIG    1        6.406  -2.297   0.566  0.00  0.00    +0.117 C 
ATOM     30  C   LIG    1        7.499  -2.024  -0.430  0.00  0.00    +0.015 C 
ENDBRANCH  27  29
ENDBRANCH  26  27
ENDBRANCH  25  26
ENDBRANCH  23  25
ENDBRANCH   1  23
BRANCH   4  31
ATOM     31  O   LIG    1       -2.389   0.058   2.426  0.00  0.00    -0.390 OA
ATOM     32  H   LIG    1       -2.872   0.855   2.804  0.00  0.00    +0.210 HD
ENDBRANCH   4  31
BRANCH   1  33
ATOM     33  O   LIG    1        1.131   1.379   0.645  0.00  0.00    -0.449 OA
BRANCH  33  34
ATOM     34  C   LIG    1        1.996   2.436   0.894  0.00  0.00    +0.308 C 
ATOM     35  O   LIG    1        3.018   2.529   0.190  0.00  0.00    -0.251 OA
BRANCH  34  36
ATOM     36  C   LIG    1        1.723   3.437   1.969  0.00  0.00    +0.117 C 
ATOM     37  C   LIG    1        2.858   4.435   1.960  0.00  0.00    +0.015 C 
ENDBRANCH  34  36
ENDBRANCH  33  34
ENDBRANCH   1  33
TORSDOF 9
