REMARK  Name = molecules/KUZYSQSABONDME-QRLOMCMNSA-N.pdb
REMARK                            x       y       z     vdW  Elec       q    Type
REMARK                         _______ _______ _______ _____ _____    ______ ____
ROOT
ATOM      1  C   LIG    1       -2.950  -4.225   0.000  0.00  0.00    +0.000 C 
ENDROOT
TORSDOF 0
REMARK  Name = molecules/KUZYSQSABONDME-QRLOMCMNSA-N.pdb
REMARK                            x       y       z     vdW  Elec       q    Type
REMARK                         _______ _______ _______ _____ _____    ______ ____
ROOT
ATOM      1  C   LIG    1       -4.065  -5.228   0.000  0.00  0.00    +0.000 C 
ENDROOT
TORSDOF 0
REMARK  Name = molecules/KUZYSQSABONDME-QRLOMCMNSA-N.pdb
REMARK                            x       y       z     vdW  Elec       q    Type
REMARK                         _______ _______ _______ _____ _____    ______ ____
ROOT
ATOM      1  C   LIG    1        0.706  -2.681   0.000  0.00  0.00    +0.185 C 
ATOM      2  C   LIG    1        0.394  -1.214   0.000  0.00  0.00    +0.085 C 
ATOM      3  C   LIG    1       -1.032  -0.750   0.000  0.00  0.00    +0.053 C 
ENDROOT
BRANCH   1   5
ATOM      4  C   LIG    1       -1.835  -3.221   0.000  0.00  0.00    -0.014 C 
ATOM      5  C   LIG    1       -0.409  -3.684   0.000  0.00  0.00    +0.057 C 
BRANCH   4   6
ATOM      6  C   LIG    1       -2.147  -1.754   0.000  0.00  0.00    +0.095 C 
BRANCH   6   7
ATOM      7  N   LIG    1       -3.446  -1.004   0.000  0.00  0.00    -0.297 NA
ATOM      8  C   LIG    1       -3.380   0.279   0.000  0.00  0.00    +0.091 C 
ATOM      9  H   LIG    1       -4.331  -0.881   0.000  0.00  0.00    +0.123 HD
ENDBRANCH   6   7
ENDBRANCH   4   6
ENDBRANCH   1   5
BRANCH   1  10
ATOM     10  O   LIG    1        1.501  -3.953   0.000  0.00  0.00    -0.337 OA
BRANCH  10  11
ATOM     11  O   LIG    1        0.773  -4.608   0.000  0.00  0.00    -0.201 OA
ATOM     12  H   LIG    1        1.318  -5.442   0.000  0.00  0.00    +0.267 HD
ENDBRANCH  10  11
ENDBRANCH   1  10
BRANCH   2  13
ATOM     13  N   LIG    1        1.276   0.000   0.000  0.00  0.00    -0.223 NA
BRANCH  13  14
ATOM     14  C   LIG    1        0.394   1.214   0.000  0.00  0.00    +0.094 C 
ATOM     15  C   LIG    1        0.706   2.681   0.000  0.00  0.00    -0.000 C 
ATOM     16  C   LIG    1       -0.409   3.684   0.000  0.00  0.00    +0.023 C 
ENDBRANCH  13  14
ENDBRANCH   2  13
TORSDOF 7
REMARK  Name = molecules/KUZYSQSABONDME-QRLOMCMNSA-N.pdb
REMARK                            x       y       z     vdW  Elec       q    Type
REMARK                         _______ _______ _______ _____ _____    ______ ____
ROOT
ATOM      1  C   LIG    1       -1.032   0.750   0.000  0.00  0.00    +0.000 C 
ENDROOT
TORSDOF 0
REMARK  Name = molecules/KUZYSQSABONDME-QRLOMCMNSA-N.pdb
REMARK                            x       y       z     vdW  Elec       q    Type
REMARK                         _______ _______ _______ _____ _____    ______ ____
ROOT
ATOM      1  CA  LIG    1       11.344 -10.992   0.000  0.00  0.00    +0.232 C 
ENDROOT
BRANCH   1   2
ATOM      2  C   LIG    1       12.526 -11.916   0.000  0.00  0.00    +0.381 C 
ATOM      3  OXT LIG    1       13.917 -11.354   0.000  0.00  0.00    -0.244 OA
ATOM      4  O   LIG    1       12.500 -13.415   0.000  0.00  0.00    -0.244 OA
ENDBRANCH   1   2
BRANCH   1   5
ATOM      5  N   LIG    1       10.421 -12.174   0.000  0.00  0.00    -0.237 NA
ATOM      6  C   LIG    1       10.983 -13.565   0.000  0.00  0.00    +0.213 C 
BRANCH   6   7
ATOM      7  O   LIG    1       12.432 -13.953   0.000  0.00  0.00    -0.494 OA
ATOM      8  H   LIG    1       12.632 -15.109   0.000  0.00  0.00    +0.293 HD
ENDBRANCH   6   7
BRANCH   6   9
ATOM      9  CA  LIG    1       10.059 -14.747   0.000  0.00  0.00    +0.217 C 
BRANCH   9  10
ATOM     10  C   LIG    1        9.136 -15.929   0.000  0.00  0.00    +0.063 C 
ATOM     11  C   LIG    1        8.212 -17.111   0.000  0.00  0.00    +0.224 C 
ATOM     12  O   LIG    1        6.727 -16.902   0.000  0.00  0.00    -0.284 OA
ENDBRANCH   9  10
BRANCH   9  13
ATOM     13  N   LIG    1       11.241 -15.671   0.000  0.00  0.00    -0.267 NA
ATOM     14  C   LIG    1       11.033 -17.156   0.000  0.00  0.00    +0.084 C 
BRANCH  14  15
ATOM     15  C   LIG    1       12.214 -18.079   0.000  0.00  0.00    +0.169 C 
ATOM     16  N   LIG    1       11.291 -19.261   0.000  0.00  0.00    -0.129 NA
BRANCH  15  17
ATOM     17  C   LIG    1       13.396 -19.003   0.000  0.00  0.00    +0.055 C 
ATOM     18  C   LIG    1       14.579 -19.926   0.000  0.00  0.00    +0.223 C 
ATOM     19  O   LIG    1       15.969 -19.364   0.000  0.00  0.00    -0.284 OA
ENDBRANCH  15  17
ENDBRANCH  14  15
ENDBRANCH   9  13
ENDBRANCH   6   9
ENDBRANCH   1   5
BRANCH   1  20
ATOM     20  CB  LIG    1       10.162 -10.069   0.000  0.00  0.00    +0.119 C 
BRANCH  20  22
ATOM     21  S   LIG    1        9.189  -7.660   0.000  0.00  0.00    -0.090 S 
ATOM     22  SG  LIG    1        8.980  -9.145   0.000  0.00  0.00    -0.090 S 
BRANCH  21  23
ATOM     23  C   LIG    1        8.007  -6.736   0.000  0.00  0.00    +0.122 C 
BRANCH  23  24
ATOM     24  C   LIG    1        6.825  -5.813   0.000  0.00  0.00    +0.245 C 
BRANCH  24  25
ATOM     25  O   LIG    1        5.643  -4.889   0.000  0.00  0.00    -0.447 OA
BRANCH  25  27
ATOM     26  N   LIG    1        4.670  -2.480   0.000  0.00  0.00    -0.042 NA
ATOM     27  C   LIG    1        5.852  -3.404   0.000  0.00  0.00    +0.442 C 
ATOM     28  O   LIG    1        7.242  -2.842   0.000  0.00  0.00    -0.223 OA
BRANCH  26  30
ATOM     29  C   LIG    1        2.097  -2.119   0.000  0.00  0.00    +0.154 C 
ATOM     30  N   LIG    1        3.279  -3.042   0.000  0.00  0.00    -0.161 NA
ENDBRANCH  26  30
ENDBRANCH  25  27
ENDBRANCH  24  25
ENDBRANCH  23  24
ENDBRANCH  21  23
ENDBRANCH  20  22
ENDBRANCH   1  20
TORSDOF 15
REMARK  Name = molecules/KUZYSQSABONDME-QRLOMCMNSA-N.pdb
REMARK                            x       y       z     vdW  Elec       q    Type
REMARK                         _______ _______ _______ _____ _____    ______ ____
ROOT
ATOM      1  C   LIG    1       11.853 -20.652   0.000  0.00  0.00    +0.000 C 
ENDROOT
TORSDOF 0
REMARK  Name = molecules/KUZYSQSABONDME-QRLOMCMNSA-N.pdb
REMARK                            x       y       z     vdW  Elec       q    Type
REMARK                         _______ _______ _______ _____ _____    ______ ____
ROOT
ATOM      1  C   LIG    1        8.159 -25.380   0.000  0.00  0.00    +0.145 C 
ENDROOT
BRANCH   1   2
ATOM      2  N   LIG    1        7.236 -26.562   0.000  0.00  0.00    -0.261 NA
ATOM      3  C   LIG    1        7.797 -27.953   0.000  0.00  0.00    +0.221 C 
BRANCH   3   4
ATOM      4  N   LIG    1        6.874 -29.135   0.000  0.00  0.00    -0.112 NA
BRANCH   4   5
ATOM      5  O   LIG    1        6.198 -30.000   0.000  0.00  0.00    -0.264 OA
ATOM      6  H   LIG    1        7.083 -30.620   0.000  0.00  0.00    +0.247 HD
ENDBRANCH   4   5
ENDBRANCH   3   4
ENDBRANCH   1   2
BRANCH   1   7
ATOM      7  C   LIG    1        9.082 -24.198   0.000  0.00  0.00    +0.033 C 
BRANCH   7   8
ATOM      8  C   LIG    1       10.006 -23.016   0.000  0.00  0.00    +0.040 C 
BRANCH   8   9
ATOM      9  C   LIG    1       10.929 -21.834   0.000  0.00  0.00    +0.082 C 
ATOM     10  N   LIG    1       12.111 -22.758   0.000  0.00  0.00    -0.281 NA
ATOM     11  C   LIG    1       11.903 -24.243   0.000  0.00  0.00    +0.151 C 
ENDBRANCH   8   9
ENDBRANCH   7   8
ENDBRANCH   1   7
TORSDOF 6
REMARK  Name = molecules/KUZYSQSABONDME-QRLOMCMNSA-N.pdb
REMARK                            x       y       z     vdW  Elec       q    Type
REMARK                         _______ _______ _______ _____ _____    ______ ____
ROOT
ATOM      1  C   LIG    1       13.085 -25.167   0.000  0.00  0.00    +0.118 C 
ATOM      2  C   LIG    1       14.267 -26.090   0.000  0.00  0.00    +0.114 C 
ENDROOT
BRANCH   1   3
ATOM      3  N   LIG    1       12.161 -26.349   0.000  0.00  0.00    -0.258 NA
ATOM      4  C   LIG    1       12.723 -27.739   0.000  0.00  0.00    +0.063 C 
ATOM      5  C   LIG    1       11.800 -28.921   0.000  0.00  0.00    +0.063 C 
ENDBRANCH   1   3
BRANCH   2   6
ATOM      6  C   LIG    1       15.449 -27.014   0.000  0.00  0.00    +0.368 C 
ATOM      7  O   LIG    1       16.840 -26.452   0.000  0.00  0.00    -0.242 OA
BRANCH   6   8
ATOM      8  O   LIG    1       15.240 -28.499   0.000  0.00  0.00    -0.295 OA
BRANCH   8   9
ATOM      9  O   LIG    1       14.209 -27.948   0.000  0.00  0.00    -0.198 OA
ATOM     10  H   LIG    1       13.657 -27.460   0.000  0.00  0.00    +0.268 HD
ENDBRANCH   8   9
ENDBRANCH   6   8
ENDBRANCH   2   6
TORSDOF 4
REMARK  Name = molecules/KUZYSQSABONDME-QRLOMCMNSA-N.pdb
REMARK                            x       y       z     vdW  Elec       q    Type
REMARK                         _______ _______ _______ _____ _____    ______ ____
ROOT
ATOM      1  C   LIG    1       10.876 -30.103   0.000  0.00  0.00    +0.014 C 
ATOM      2  C   LIG    1        9.953 -31.285   0.000  0.00  0.00    +0.096 C 
ENDROOT
BRANCH   2   3
ATOM      3  N   LIG    1        8.771 -30.362   0.000  0.00  0.00    -0.251 NA
ATOM      4  H   LIG    1        9.671 -29.611   0.000  0.00  0.00    +0.141 HD
ENDBRANCH   2   3
TORSDOF 1
REMARK  Name = molecules/KUZYSQSABONDME-QRLOMCMNSA-N.pdb
REMARK                            x       y       z     vdW  Elec       q    Type
REMARK                         _______ _______ _______ _____ _____    ______ ____
ROOT
ATOM      1  C   LIG    1        8.353 -33.333   0.000  0.00  0.00    +0.232 C 
ATOM      2  C   LIG    1        9.029 -32.467   0.000  0.00  0.00    +0.066 C 
ENDROOT
BRANCH   1   4
ATOM      3  C   LIG    1        7.380 -30.924   0.000  0.00  0.00    +0.177 C 
ATOM      4  O   LIG    1        7.544 -32.259   0.000  0.00  0.00    -0.328 OA
ENDBRANCH   1   4
BRANCH   1   5
ATOM      5  O   LIG    1        9.591 -33.858   0.000  0.00  0.00    -0.360 OA
ATOM      6  H   LIG    1        9.838 -33.124   0.000  0.00  0.00    +0.213 HD
ENDBRANCH   1   5
TORSDOF 2
REMARK  Name = molecules/KUZYSQSABONDME-QRLOMCMNSA-N.pdb
REMARK                            x       y       z     vdW  Elec       q    Type
REMARK                         _______ _______ _______ _____ _____    ______ ____
ROOT
ATOM      1  C   LIG    1        7.171 -32.409   0.000  0.00  0.00    +0.000 C 
ENDROOT
TORSDOF 0
REMARK  Name = molecules/KUZYSQSABONDME-QRLOMCMNSA-N.pdb
REMARK                            x       y       z     vdW  Elec       q    Type
REMARK                         _______ _______ _______ _____ _____    ______ ____
ROOT
ATOM      1  C   LIG    1        3.763 -37.989   0.000  0.00  0.00    +0.079 A 
ATOM      2  C   LIG    1        3.554 -39.475   0.000  0.00  0.00    +0.138 A 
ATOM      3  N   LIG    1        2.164 -40.037   0.000  0.00  0.00    -0.232 NA
ATOM      4  C   LIG    1        0.982 -39.113   0.000  0.00  0.00    +0.187 A 
ATOM      5  N   LIG    1       -0.409 -39.675   0.000  0.00  0.00    -0.190 NA
ATOM      6  C   LIG    1       -1.591 -38.752   0.000  0.00  0.00    +0.261 A 
ATOM      7  N   LIG    1       -2.982 -39.313   0.000  0.00  0.00    -0.086 NA
ATOM      8  N   LIG    1       -1.382 -37.266   0.000  0.00  0.00    -0.171 NA
ATOM      9  C   LIG    1        0.009 -36.704   0.000  0.00  0.00    +0.302 A 
ATOM     10  O   LIG    1        0.217 -35.219   0.000  0.00  0.00    -0.263 OA
ATOM     11  C   LIG    1        1.190 -37.628   0.000  0.00  0.00    +0.174 A 
ATOM     12  N   LIG    1        2.581 -37.066   0.000  0.00  0.00    -0.240 NA
ENDROOT
BRANCH   1  13
ATOM     13  C   LIG    1        5.154 -37.427   0.000  0.00  0.00    +0.184 C 
BRANCH  13  14
ATOM     14  N   LIG    1        6.545 -36.865   0.000  0.00  0.00    -0.243 NA
BRANCH  14  16
ATOM     15  C   LIG    1        8.144 -34.818   0.000  0.00  0.00    +0.028 C 
ATOM     16  C   LIG    1        6.754 -35.380   0.000  0.00  0.00    +0.071 C 
ENDBRANCH  14  16
ENDBRANCH  13  14
ENDBRANCH   1  13
TORSDOF 3
REMARK  Name = molecules/KUZYSQSABONDME-QRLOMCMNSA-N.pdb
REMARK                            x       y       z     vdW  Elec       q    Type
REMARK                         _______ _______ _______ _____ _____    ______ ____
ROOT
ATOM      1  C   LIG    1        5.572 -34.456   0.000  0.00  0.00    +0.000 C 
ENDROOT
TORSDOF 0
REMARK  Name = molecules/KUZYSQSABONDME-QRLOMCMNSA-N.pdb
REMARK                            x       y       z     vdW  Elec       q    Type
REMARK                         _______ _______ _______ _____ _____    ______ ____
ROOT
ATOM      1  C   LIG    1        5.780 -32.971   0.000  0.00  0.00    -0.000 C 
ENDROOT
TORSDOF 0
REMARK  Name = molecules/KUZYSQSABONDME-QRLOMCMNSA-N.pdb
REMARK                            x       y       z     vdW  Elec       q    Type
REMARK                         _______ _______ _______ _____ _____    ______ ____
ROOT
ATOM      1  O   HOH    1       10.591 -24.970   0.000  0.00  0.00    -0.410 OA
ATOM      2  H   HOH    0       10.929 -24.198   0.000  0.00  0.00    +0.205 HD
ATOM      3  H   HOH    0       10.676 -26.140   0.000  0.00  0.00    +0.205 HD
ENDROOT
TORSDOF 0
REMARK  Name = molecules/KUZYSQSABONDME-QRLOMCMNSA-N.pdb
REMARK                            x       y       z     vdW  Elec       q    Type
REMARK                         _______ _______ _______ _____ _____    ______ ____
ROOT
ATOM      1  N   LIG    1        9.283 -28.162   0.000  0.00  0.00    -0.163 NA
ATOM      2  H   LIG    1        9.159 -28.913   0.000  0.00  0.00    +0.163 HD
ENDROOT
TORSDOF 0
REMARK  Name = molecules/KUZYSQSABONDME-QRLOMCMNSA-N.pdb
REMARK                            x       y       z     vdW  Elec       q    Type
REMARK                         _______ _______ _______ _____ _____    ______ ____
ROOT
ATOM      1  O   LIG    1       13.338 -20.861   0.000  0.00  0.00    -0.253 OA
ATOM      2  H   LIG    1       12.787 -20.373   0.000  0.00  0.00    +0.253 HD
ENDROOT
BRANCH   1   3
ATOM      3  O   LIG    1       14.370 -21.412   0.000  0.00  0.00    -0.253 OA
ATOM      4  H   LIG    1       13.502 -22.196   0.000  0.00  0.00    +0.253 HD
ENDBRANCH   1   3
TORSDOF 1
REMARK  Name = molecules/KUZYSQSABONDME-QRLOMCMNSA-N.pdb
REMARK                            x       y       z     vdW  Elec       q    Type
REMARK                         _______ _______ _______ _____ _____    ______ ____
ROOT
ATOM      1  O   LIG    1        9.642 -17.718   0.000  0.00  0.00    -0.253 OA
ATOM      2  H   LIG    1       10.059 -17.111   0.000  0.00  0.00    +0.253 HD
ENDROOT
BRANCH   1   3
ATOM      3  O   LIG    1        8.774 -18.502   0.000  0.00  0.00    -0.253 OA
ATOM      4  H   LIG    1        9.806 -19.053   0.000  0.00  0.00    +0.253 HD
ENDBRANCH   1   3
TORSDOF 1
REMARK  Name = molecules/KUZYSQSABONDME-QRLOMCMNSA-N.pdb
REMARK                            x       y       z     vdW  Elec       q    Type
REMARK                         _______ _______ _______ _____ _____    ______ ____
ROOT
ATOM      1  O   LIG    1        2.659  -0.728   0.000  0.00  0.00    -0.379 OA
ATOM      2  C   LIG    1        2.776   0.000   0.000  0.00  0.00    +0.169 C 
ATOM      3  H   LIG    1        2.776  -1.500   0.000  0.00  0.00    +0.211 HD
ENDROOT
TORSDOF 0
REMARK  Name = molecules/KUZYSQSABONDME-QRLOMCMNSA-N.pdb
REMARK                            x       y       z     vdW  Elec       q    Type
REMARK                         _______ _______ _______ _____ _____    ______ ____
ROOT
ATOM      1  C   LIG    1       -1.835   3.221   0.000  0.00  0.00    +0.000 C 
ENDROOT
TORSDOF 0
REMARK  Name = molecules/KUZYSQSABONDME-QRLOMCMNSA-N.pdb
REMARK                            x       y       z     vdW  Elec       q    Type
REMARK                         _______ _______ _______ _____ _____    ______ ____
ROOT
ATOM      1  C   LIG    1       -2.147   1.754   0.000  0.00  0.00    +0.000 C 
ATOM      2  C   LIG    1       -1.642   0.620   0.000  0.00  0.00    +0.000 C 
ENDROOT
TORSDOF 0
REMARK  Name = molecules/KUZYSQSABONDME-QRLOMCMNSA-N.pdb
REMARK                            x       y       z     vdW  Elec       q    Type
REMARK                         _______ _______ _______ _____ _____    ______ ____
ROOT
ATOM      1  C   LIG    1       -2.950   4.225   0.000  0.00  0.00    +0.000 C 
ENDROOT
TORSDOF 0
REMARK  Name = molecules/KUZYSQSABONDME-QRLOMCMNSA-N.pdb
REMARK                            x       y       z     vdW  Elec       q    Type
REMARK                         _______ _______ _______ _____ _____    ______ ____
ROOT
ATOM      1  C   LIG    1       -3.592   2.869   0.000  0.00  0.00    +0.000 C 
ENDROOT
TORSDOF 0
REMARK  Name = molecules/KUZYSQSABONDME-QRLOMCMNSA-N.pdb
REMARK                            x       y       z     vdW  Elec       q    Type
REMARK                         _______ _______ _______ _____ _____    ______ ____
ROOT
ATOM      1  O   HOH    1       -2.739   1.635   0.000  0.00  0.00    -0.253 OA
ATOM      2  H   HOH    0       -1.954   2.087   0.000  0.00  0.00    +0.253 HD
ENDROOT
TORSDOF 0
REMARK  Name = molecules/KUZYSQSABONDME-QRLOMCMNSA-N.pdb
REMARK                            x       y       z     vdW  Elec       q    Type
REMARK                         _______ _______ _______ _____ _____    ______ ____
ROOT
ATOM      1  N   LIG    1       -5.198   3.160   0.000  0.00  0.00    -0.183 N 
ATOM      2  C   LIG    1       -6.661   3.489   0.000  0.00  0.00    +0.088 A 
ATOM      3  C   LIG    1       -7.885   2.622   0.000  0.00  0.00    +0.030 A 
ATOM      4  C   LIG    1       -9.248   3.248   0.000  0.00  0.00    +0.002 A 
ATOM      5  C   LIG    1       -9.387   4.741   0.000  0.00  0.00    +0.001 A 
ATOM      6  C   LIG    1       -8.164   5.609   0.000  0.00  0.00    +0.010 A 
ATOM      7  C   LIG    1       -6.801   4.983   0.000  0.00  0.00    +0.007 A 
ATOM      8  C   LIG    1       -5.423   5.577   0.000  0.00  0.00    -0.008 A 
ATOM      9  C   LIG    1       -4.433   4.451   0.000  0.00  0.00    +0.111 A 
ENDROOT
BRANCH   1  10
ATOM     10  O   LIG    1       -5.013   2.389   0.000  0.00  0.00    -0.426 OA
ATOM     11  H   LIG    1       -4.776   1.721   0.000  0.00  0.00    +0.326 HD
ENDBRANCH   1  10
BRANCH   8  12
ATOM     12  C   LIG    1       -5.458   7.077   0.000  0.00  0.00    +0.053 C 
BRANCH  12  13
ATOM     13  C   LIG    1       -4.521   8.248   0.000  0.00  0.00    +0.089 C 
BRANCH  13  14
ATOM     14  N   LIG    1       -3.050   8.543   0.000  0.00  0.00    -0.299 NA
ATOM     15  C   LIG    1       -1.734   7.823   0.000  0.00  0.00    +0.094 C 
ATOM     16  C   LIG    1       -1.924   9.533   0.000  0.00  0.00    +0.105 C 
ENDBRANCH  13  14
ENDBRANCH  12  13
ENDBRANCH   8  12
TORSDOF 4
REMARK  Name = molecules/KUZYSQSABONDME-QRLOMCMNSA-N.pdb
REMARK                            x       y       z     vdW  Elec       q    Type
REMARK                         _______ _______ _______ _____ _____    ______ ____
ROOT
ATOM      1  C   LIG    1       -1.188   6.426   0.000  0.00  0.00    +0.000 C 
ENDROOT
TORSDOF 0
REMARK  Name = molecules/KUZYSQSABONDME-QRLOMCMNSA-N.pdb
REMARK                            x       y       z     vdW  Elec       q    Type
REMARK                         _______ _______ _______ _____ _____    ______ ____
ROOT
ATOM      1  C   LIG    1       -1.669   5.005   0.000  0.00  0.00    -0.005 C 
ATOM      2  C   LIG    1       -1.211   6.155   0.000  0.00  0.00    +0.005 C 
ENDROOT
TORSDOF 0
REMARK  Name = molecules/KUZYSQSABONDME-QRLOMCMNSA-N.pdb
REMARK                            x       y       z     vdW  Elec       q    Type
REMARK                         _______ _______ _______ _____ _____    ______ ____
ROOT
ATOM      1  C   LIG    1       -0.208   7.582   0.000  0.00  0.00    -0.000 C 
ENDROOT
TORSDOF 0
REMARK  Name = molecules/KUZYSQSABONDME-QRLOMCMNSA-N.pdb
REMARK                            x       y       z     vdW  Elec       q    Type
REMARK                         _______ _______ _______ _____ _____    ______ ____
ROOT
ATOM      1  C   LIG    1       -0.503   9.053   0.000  0.00  0.00    +0.169 C 
ATOM      2  O   LIG    1        0.997   9.088   0.000  0.00  0.00    -0.379 OA
ATOM      3  H   LIG    1        1.189   8.128   0.000  0.00  0.00    +0.211 HD
ENDROOT
TORSDOF 0
REMARK  Name = molecules/KUZYSQSABONDME-QRLOMCMNSA-N.pdb
REMARK                            x       y       z     vdW  Elec       q    Type
REMARK                         _______ _______ _______ _____ _____    ______ ____
ROOT
ATOM      1  C   LIG    1       -0.277  10.536   0.000  0.00  0.00    -0.000 C 
ENDROOT
TORSDOF 0
REMARK  Name = molecules/KUZYSQSABONDME-QRLOMCMNSA-N.pdb
REMARK                            x       y       z     vdW  Elec       q    Type
REMARK                         _______ _______ _______ _____ _____    ______ ____
ROOT
ATOM      1  C   LIG    1       -0.051  12.019   0.000  0.00  0.00    +0.000 C 
ENDROOT
TORSDOF 0
REMARK  Name = molecules/KUZYSQSABONDME-QRLOMCMNSA-N.pdb
REMARK                            x       y       z     vdW  Elec       q    Type
REMARK                         _______ _______ _______ _____ _____    ______ ____
ROOT
ATOM      1  O   HOH    1       -0.097   5.152   0.000  0.00  0.00    -0.253 OA
ATOM      2  H   HOH    0        0.304   6.278   0.000  0.00  0.00    +0.253 HD
ENDROOT
TORSDOF 0
REMARK  Name = molecules/KUZYSQSABONDME-QRLOMCMNSA-N.pdb
REMARK                            x       y       z     vdW  Elec       q    Type
REMARK                         _______ _______ _______ _____ _____    ______ ____
ROOT
ATOM      1  C   LIG    1       -3.134   0.464   0.000  0.00  0.00    +0.000 C 
ENDROOT
TORSDOF 0
REMARK  Name = molecules/KUZYSQSABONDME-QRLOMCMNSA-N.pdb
REMARK                            x       y       z     vdW  Elec       q    Type
REMARK                         _______ _______ _______ _____ _____    ______ ____
ROOT
ATOM      1  C   LIG    1       -4.576  -2.001   0.000  0.00  0.00    -0.000 C 
ENDROOT
TORSDOF 0
REMARK  Name = molecules/KUZYSQSABONDME-QRLOMCMNSA-N.pdb
REMARK                            x       y       z     vdW  Elec       q    Type
REMARK                         _______ _______ _______ _____ _____    ______ ____
ROOT
ATOM      1  C   LIG    1       -4.419  -3.493   0.000  0.00  0.00    +0.000 C 
ENDROOT
TORSDOF 0
REMARK  Name = molecules/KUZYSQSABONDME-QRLOMCMNSA-N.pdb
REMARK                            x       y       z     vdW  Elec       q    Type
REMARK                         _______ _______ _______ _____ _____    ______ ____
ROOT
ATOM      1  C   LIG    1       -3.049  -4.103   0.000  0.00  0.00    +0.000 C 
ENDROOT
TORSDOF 0
REMARK  Name = molecules/KUZYSQSABONDME-QRLOMCMNSA-N.pdb
REMARK                            x       y       z     vdW  Elec       q    Type
REMARK                         _______ _______ _______ _____ _____    ______ ____
ROOT
ATOM      1  H   UNK    1       -2.090  -5.453   0.000  0.00  0.00    +0.000 HD
ENDROOT
TORSDOF 0
REMARK  Name = molecules/KUZYSQSABONDME-QRLOMCMNSA-N.pdb
REMARK                            x       y       z     vdW  Elec       q    Type
REMARK                         _______ _______ _______ _____ _____    ______ ____
ROOT
ATOM      1  H   UNK    1       -3.204  -6.457   0.000  0.00  0.00    +0.000 HD
ENDROOT
TORSDOF 0
REMARK  Name = molecules/KUZYSQSABONDME-QRLOMCMNSA-N.pdb
REMARK                            x       y       z     vdW  Elec       q    Type
REMARK                         _______ _______ _______ _____ _____    ______ ____
ROOT
ATOM      1  H   UNK    1        0.385  -6.057   0.000  0.00  0.00    +0.000 HD
ENDROOT
TORSDOF 0
REMARK  Name = molecules/KUZYSQSABONDME-QRLOMCMNSA-N.pdb
REMARK                            x       y       z     vdW  Elec       q    Type
REMARK                         _______ _______ _______ _____ _____    ______ ____
ROOT
ATOM      1  H   UNK    1        3.070  -4.528   0.000  0.00  0.00    +0.000 HD
ENDROOT
TORSDOF 0
REMARK  Name = molecules/KUZYSQSABONDME-QRLOMCMNSA-N.pdb
REMARK                            x       y       z     vdW  Elec       q    Type
REMARK                         _______ _______ _______ _____ _____    ______ ____
ROOT
ATOM      1  H   UNK    1        4.878  -0.995   0.000  0.00  0.00    +0.000 HD
ENDROOT
TORSDOF 0
REMARK  Name = molecules/KUZYSQSABONDME-QRLOMCMNSA-N.pdb
REMARK                            x       y       z     vdW  Elec       q    Type
REMARK                         _______ _______ _______ _____ _____    ______ ____
ROOT
ATOM      1  H   UNK    1        8.921 -12.148   0.000  0.00  0.00    +0.000 HD
ENDROOT
TORSDOF 0
REMARK  Name = molecules/KUZYSQSABONDME-QRLOMCMNSA-N.pdb
REMARK                            x       y       z     vdW  Elec       q    Type
REMARK                         _______ _______ _______ _____ _____    ______ ____
ROOT
ATOM      1  H   UNK    1       12.058 -31.027   0.000  0.00  0.00    +0.000 HD
ENDROOT
TORSDOF 0
REMARK  Name = molecules/KUZYSQSABONDME-QRLOMCMNSA-N.pdb
REMARK                            x       y       z     vdW  Elec       q    Type
REMARK                         _______ _______ _______ _____ _____    ______ ____
ROOT
ATOM      1  H   UNK    1        9.694 -29.180   0.000  0.00  0.00    +0.000 HD
ENDROOT
TORSDOF 0
REMARK  Name = molecules/KUZYSQSABONDME-QRLOMCMNSA-N.pdb
REMARK                            x       y       z     vdW  Elec       q    Type
REMARK                         _______ _______ _______ _____ _____    ______ ____
ROOT
ATOM      1  H   UNK    1        4.181 -35.018   0.000  0.00  0.00    +0.000 HD
ENDROOT
TORSDOF 0
REMARK  Name = molecules/KUZYSQSABONDME-QRLOMCMNSA-N.pdb
REMARK                            x       y       z     vdW  Elec       q    Type
REMARK                         _______ _______ _______ _____ _____    ______ ____
ROOT
ATOM      1  H   UNK    1        7.727 -37.789   0.000  0.00  0.00    +0.000 HD
ENDROOT
TORSDOF 0
REMARK  Name = molecules/KUZYSQSABONDME-QRLOMCMNSA-N.pdb
REMARK                            x       y       z     vdW  Elec       q    Type
REMARK                         _______ _______ _______ _____ _____    ______ ____
ROOT
ATOM      1  H   UNK    1        1.955 -41.522   0.000  0.00  0.00    +0.000 HD
ENDROOT
TORSDOF 0
REMARK  Name = molecules/KUZYSQSABONDME-QRLOMCMNSA-N.pdb
REMARK                            x       y       z     vdW  Elec       q    Type
REMARK                         _______ _______ _______ _____ _____    ______ ____
ROOT
ATOM      1  H   UNK    1       -3.191 -40.799   0.000  0.00  0.00    +0.000 HD
ENDROOT
TORSDOF 0
REMARK  Name = molecules/KUZYSQSABONDME-QRLOMCMNSA-N.pdb
REMARK                            x       y       z     vdW  Elec       q    Type
REMARK                         _______ _______ _______ _____ _____    ______ ____
ROOT
ATOM      1  H   UNK    1       -4.164 -38.390   0.000  0.00  0.00    +0.000 HD
ENDROOT
TORSDOF 0
REMARK  Name = molecules/KUZYSQSABONDME-QRLOMCMNSA-N.pdb
REMARK                            x       y       z     vdW  Elec       q    Type
REMARK                         _______ _______ _______ _____ _____    ______ ____
ROOT
ATOM      1  H   UNK    1       18.021 -27.375   0.000  0.00  0.00    +0.000 HD
ENDROOT
TORSDOF 0
REMARK  Name = molecules/KUZYSQSABONDME-QRLOMCMNSA-N.pdb
REMARK                            x       y       z     vdW  Elec       q    Type
REMARK                         _______ _______ _______ _____ _____    ______ ____
ROOT
ATOM      1  H   UNK    1        5.750 -26.354   0.000  0.00  0.00    +0.000 HD
ENDROOT
TORSDOF 0
REMARK  Name = molecules/KUZYSQSABONDME-QRLOMCMNSA-N.pdb
REMARK                            x       y       z     vdW  Elec       q    Type
REMARK                         _______ _______ _______ _____ _____    ______ ____
ROOT
ATOM      1  H   UNK    1       10.206 -26.980   0.000  0.00  0.00    +0.000 HD
ENDROOT
TORSDOF 0
REMARK  Name = molecules/KUZYSQSABONDME-QRLOMCMNSA-N.pdb
REMARK                            x       y       z     vdW  Elec       q    Type
REMARK                         _______ _______ _______ _____ _____    ______ ____
ROOT
ATOM      1  H   UNK    1       17.151 -20.288   0.000  0.00  0.00    +0.000 HD
ENDROOT
TORSDOF 0
REMARK  Name = molecules/KUZYSQSABONDME-QRLOMCMNSA-N.pdb
REMARK                            x       y       z     vdW  Elec       q    Type
REMARK                         _______ _______ _______ _____ _____    ______ ____
ROOT
ATOM      1  H   UNK    1        7.851 -19.684   0.000  0.00  0.00    +0.000 HD
ENDROOT
TORSDOF 0
REMARK  Name = molecules/KUZYSQSABONDME-QRLOMCMNSA-N.pdb
REMARK                            x       y       z     vdW  Elec       q    Type
REMARK                         _______ _______ _______ _____ _____    ______ ____
ROOT
ATOM      1  H   UNK    1       15.099 -12.277   0.000  0.00  0.00    +0.000 HD
ENDROOT
TORSDOF 0
REMARK  Name = molecules/KUZYSQSABONDME-QRLOMCMNSA-N.pdb
REMARK                            x       y       z     vdW  Elec       q    Type
REMARK                         _______ _______ _______ _____ _____    ______ ____
ROOT
ATOM      1  H   UNK    1        4.276   0.000   0.000  0.00  0.00    +0.000 HD
ENDROOT
TORSDOF 0
REMARK  Name = molecules/KUZYSQSABONDME-QRLOMCMNSA-N.pdb
REMARK                            x       y       z     vdW  Elec       q    Type
REMARK                         _______ _______ _______ _____ _____    ______ ____
ROOT
ATOM      1  H   UNK    1        2.776   1.500   0.000  0.00  0.00    +0.000 HD
ENDROOT
TORSDOF 0
REMARK  Name = molecules/KUZYSQSABONDME-QRLOMCMNSA-N.pdb
REMARK                            x       y       z     vdW  Elec       q    Type
REMARK                         _______ _______ _______ _____ _____    ______ ____
ROOT
ATOM      1  H   UNK    1       -4.851   0.574   0.000  0.00  0.00    +0.000 HD
ENDROOT
TORSDOF 0
REMARK  Name = molecules/KUZYSQSABONDME-QRLOMCMNSA-N.pdb
REMARK                            x       y       z     vdW  Elec       q    Type
REMARK                         _______ _______ _______ _____ _____    ______ ____
ROOT
ATOM      1  H   UNK    1        0.722   6.406   0.000  0.00  0.00    +0.000 HD
ENDROOT
TORSDOF 0
REMARK  Name = molecules/KUZYSQSABONDME-QRLOMCMNSA-N.pdb
REMARK                            x       y       z     vdW  Elec       q    Type
REMARK                         _______ _______ _______ _____ _____    ______ ____
ROOT
ATOM      1  H   UNK    1        1.871  10.307   0.000  0.00  0.00    +0.000 HD
ENDROOT
TORSDOF 0
REMARK  Name = molecules/KUZYSQSABONDME-QRLOMCMNSA-N.pdb
REMARK                            x       y       z     vdW  Elec       q    Type
REMARK                         _______ _______ _______ _____ _____    ______ ____
ROOT
ATOM      1  H   UNK    1       -5.233  -0.652   0.000  0.00  0.00    +0.000 HD
ENDROOT
TORSDOF 0
REMARK  Name = molecules/KUZYSQSABONDME-QRLOMCMNSA-N.pdb
REMARK                            x       y       z     vdW  Elec       q    Type
REMARK                         _______ _______ _______ _____ _____    ______ ____
ROOT
ATOM      1  H   UNK    1       -5.731  -4.220   0.000  0.00  0.00    +0.000 HD
ENDROOT
TORSDOF 0
