REMARK  Name = molecules/KVEZIRCKNOTGKY-UHFFFAOYSA-N.pdb
REMARK                            x       y       z     vdW  Elec       q    Type
REMARK                         _______ _______ _______ _____ _____    ______ ____
ROOT
ATOM      1  S   LIG    1        0.524  -1.859  -0.287  0.00  0.00    +0.033 S 
ATOM      2  O   LIG    1        0.532  -2.799   0.909  0.00  0.00    -0.164 OA
ATOM      3  O   LIG    1        0.646  -2.663  -1.533  0.00  0.00    -0.164 OA
ENDROOT
BRANCH   1   4
ATOM      4  C   LIG    1       -0.918  -0.902  -0.214  0.00  0.00    +0.094 A 
ATOM      5  C   LIG    1       -1.519  -0.686   1.009  0.00  0.00    +0.029 A 
ATOM      6  C   LIG    1       -2.659   0.055   1.167  0.00  0.00    +0.024 A 
ATOM      7  C   LIG    1       -3.264   0.628   0.073  0.00  0.00    +0.025 A 
ATOM      8  C   LIG    1       -2.676   0.422  -1.160  0.00  0.00    +0.024 A 
ATOM      9  C   LIG    1       -1.530  -0.325  -1.308  0.00  0.00    +0.029 A 
BRANCH   7  10
ATOM     10  N   LIG    1       -4.439   1.390   0.248  0.00  0.00    -0.358 N 
ATOM     11  H   LIG    1       -4.370   2.401   0.452  0.00  0.00    +0.142 HD
ATOM     12  H   LIG    1       -5.370   0.949   0.175  0.00  0.00    +0.142 HD
ENDBRANCH   7  10
ENDBRANCH   1   4
BRANCH   1  13
ATOM     13  C   LIG    1        1.954  -0.847  -0.105  0.00  0.00    +0.152 A 
ATOM     14  S   LIG    1        2.433   0.168   1.186  0.00  0.00    -0.034 S 
ATOM     15  C   LIG    1        3.899   0.741   0.531  0.00  0.00    +0.157 A 
ATOM     16  N   LIG    1        3.948   0.127  -0.640  0.00  0.00    -0.232 NA
ATOM     17  C   LIG    1        2.989  -0.673  -0.985  0.00  0.00    +0.148 A 
BRANCH  15  18
ATOM     18  N   LIG    1        4.866   1.661   1.084  0.00  0.00    -0.337 N 
ATOM     19  H   LIG    1        4.538   2.505   1.607  0.00  0.00    +0.144 HD
ATOM     20  H   LIG    1        5.857   1.425   0.926  0.00  0.00    +0.144 HD
ENDBRANCH  15  18
ENDBRANCH   1  13
TORSDOF 4
