REMARK  Name = molecules/KVJXBPDAXMEYOA-CXANFOAXSA-N.pdb
REMARK                            x       y       z     vdW  Elec       q    Type
REMARK                         _______ _______ _______ _____ _____    ______ ____
ROOT
ATOM      1  C   LIG    1        1.833   0.669   1.196  0.00  0.00    +0.015 C 
ATOM      2  C   LIG    1        1.705  -0.267  -0.010  0.00  0.00    +0.008 C 
ATOM      3  C   LIG    1        2.537  -1.486   0.317  0.00  0.00    +0.059 C 
ATOM      4  C   LIG    1        3.955  -0.999   0.465  0.00  0.00    +0.070 C 
ATOM      5  C   LIG    1        4.447  -0.084  -0.353  0.00  0.00    +0.139 C 
ATOM      6  C   LIG    1        3.606   0.475  -1.427  0.00  0.00    +0.217 C 
ATOM      7  O   LIG    1        2.959  -0.577  -2.162  0.00  0.00    -0.356 OA
ATOM      8  C   LIG    1        0.253  -0.646  -0.232  0.00  0.00    +0.002 C 
ATOM      9  C   LIG    1       -0.273  -1.593   0.761  0.00  0.00    +0.005 C 
ATOM     10  C   LIG    1       -1.707  -1.579   1.071  0.00  0.00    +0.010 C 
ATOM     11  C   LIG    1       -2.478  -0.370   0.675  0.00  0.00    -0.003 C 
ATOM     12  C   LIG    1       -2.659   0.620   1.783  0.00  0.00    +0.014 C 
ATOM     13  C   LIG    1       -3.856  -0.683   0.125  0.00  0.00    +0.121 C 
ATOM     14  C   LIG    1       -4.215   0.617  -0.575  0.00  0.00    +0.032 C 
ATOM     15  C   LIG    1       -2.899   1.331  -0.836  0.00  0.00    +0.007 C 
ATOM     16  C   LIG    1       -1.903   0.283  -0.590  0.00  0.00    +0.001 C 
ATOM     17  C   LIG    1       -0.518   0.680  -0.283  0.00  0.00    -0.003 C 
ATOM     18  C   LIG    1        0.070   1.623  -1.261  0.00  0.00    +0.007 C 
ATOM     19  C   LIG    1        1.224   1.111  -2.045  0.00  0.00    +0.039 C 
ATOM     20  C   LIG    1        2.243   0.353  -1.251  0.00  0.00    +0.109 C 
ENDROOT
BRANCH   4  21
ATOM     21  C   LIG    1        4.805  -1.507   1.484  0.00  0.00    +0.098 C 
ATOM     22  N   LIG    1        5.509  -1.934   2.315  0.00  0.00    -0.191 NA
ENDBRANCH   4  21
BRANCH   5  23
ATOM     23  O   LIG    1        5.751   0.349  -0.200  0.00  0.00    -0.507 OA
ATOM     24  H   LIG    1        6.360   0.580  -0.978  0.00  0.00    +0.292 HD
ENDBRANCH   5  23
BRANCH  13  25
ATOM     25  O   LIG    1       -4.755  -0.977   1.152  0.00  0.00    -0.391 OA
ATOM     26  H   LIG    1       -5.609  -0.521   0.957  0.00  0.00    +0.210 HD
ENDBRANCH  13  25
TORSDOF 3
