REMARK  Name = molecules/KVYGGMBOZFWZBQ-UHFFFAOYSA-N.pdb
REMARK                            x       y       z     vdW  Elec       q    Type
REMARK                         _______ _______ _______ _____ _____    ______ ____
ROOT
ATOM      1  O   LIG    1        1.381  -2.324  -0.300  0.00  0.00    -0.245 OA
ATOM      2  C   LIG    1        1.347  -1.079  -0.105  0.00  0.00    +0.341 C 
ENDROOT
BRANCH   2   3
ATOM      3  C   LIG    1        2.583  -0.355   0.145  0.00  0.00    +0.077 A 
ATOM      4  C   LIG    1        2.607   0.995   0.363  0.00  0.00    +0.125 A 
ATOM      5  N   LIG    1        3.750   1.655   0.593  0.00  0.00    -0.262 NA
ATOM      6  C   LIG    1        4.944   1.018   0.621  0.00  0.00    +0.111 A 
ATOM      7  C   LIG    1        4.958  -0.341   0.406  0.00  0.00    +0.020 A 
ATOM      8  C   LIG    1        3.787  -1.024   0.169  0.00  0.00    +0.018 A 
ENDBRANCH   2   3
BRANCH   2   9
ATOM      9  O   LIG    1        0.110  -0.475  -0.143  0.00  0.00    -0.456 OA
BRANCH   9  10
ATOM     10  C   LIG    1       -1.087  -1.228  -0.394  0.00  0.00    +0.268 C 
BRANCH  10  11
ATOM     11  C   LIG    1       -2.272  -0.339  -0.381  0.00  0.00    -0.010 A 
ATOM     12  C   LIG    1       -2.185   1.034  -0.152  0.00  0.00    +0.007 A 
ATOM     13  C   LIG    1       -3.304   1.834  -0.146  0.00  0.00    +0.000 A 
ATOM     14  C   LIG    1       -4.544   1.285  -0.368  0.00  0.00    +0.000 A 
ATOM     15  C   LIG    1       -4.668  -0.076  -0.599  0.00  0.00    +0.000 A 
ATOM     16  C   LIG    1       -3.528  -0.851  -0.599  0.00  0.00    +0.007 A 
ENDBRANCH  10  11
ENDBRANCH   9  10
ENDBRANCH   2   9
TORSDOF 4
