REMARK  Name = molecules/KWGRBVOPPLSCSI-WCBMZHEXSA-N.pdb
REMARK                            x       y       z     vdW  Elec       q    Type
REMARK                         _______ _______ _______ _____ _____    ______ ____
ROOT
ATOM      1  C   LIG    1        0.491   0.296  -1.103  0.00  0.00    +0.161 C 
ENDROOT
BRANCH   1   2
ATOM      2  C   LIG    1       -0.820   0.178  -0.468  0.00  0.00    -0.018 A 
ATOM      3  C   LIG    1       -1.412   1.234   0.192  0.00  0.00    +0.006 A 
ATOM      4  C   LIG    1       -2.654   1.118   0.795  0.00  0.00    +0.000 A 
ATOM      5  C   LIG    1       -3.354  -0.067   0.761  0.00  0.00    +0.000 A 
ATOM      6  C   LIG    1       -2.775  -1.130   0.106  0.00  0.00    +0.000 A 
ATOM      7  C   LIG    1       -1.546  -0.992  -0.483  0.00  0.00    +0.006 A 
ENDBRANCH   1   2
BRANCH   1   8
ATOM      8  C   LIG    1        1.618  -0.319  -0.323  0.00  0.00    +0.083 C 
ATOM      9  C   LIG    1        1.657  -1.827  -0.429  0.00  0.00    +0.027 C 
BRANCH   8  10
ATOM     10  N   LIG    1        1.730   0.106   1.033  0.00  0.00    -0.314 NA
ATOM     11  H   LIG    1        1.061  -0.313   1.680  0.00  0.00    +0.122 HD
ATOM     12  C   LIG    1        2.003   1.501   1.211  0.00  0.00    +0.101 C 
ENDBRANCH   8  10
ENDBRANCH   1   8
BRANCH   1  13
ATOM     13  O   LIG    1        0.554  -0.251  -2.387  0.00  0.00    -0.386 OA
ATOM     14  H   LIG    1        1.453  -0.017  -2.733  0.00  0.00    +0.210 HD
ENDBRANCH   1  13
TORSDOF 4
