REMARK  Name = molecules/KWTWDQCKEHXFFR-SMDDNHRTSA-N.pdb
REMARK                            x       y       z     vdW  Elec       q    Type
REMARK                         _______ _______ _______ _____ _____    ______ ____
ROOT
ATOM      1  C   LIG    1       -0.055  -0.082   1.235  0.00  0.00    +0.023 C 
ENDROOT
BRANCH   1   2
ATOM      2  C   LIG    1        0.938   0.485   0.255  0.00  0.00    -0.041 A 
ATOM      3  C   LIG    1        1.241   1.842   0.256  0.00  0.00    +0.004 A 
ATOM      4  C   LIG    1        2.151   2.393  -0.609  0.00  0.00    +0.004 A 
ATOM      5  C   LIG    1        2.794   1.583  -1.515  0.00  0.00    +0.045 A 
ATOM      6  C   LIG    1        2.527   0.234  -1.552  0.00  0.00    +0.117 A 
ATOM      7  C   LIG    1        1.592  -0.293  -0.655  0.00  0.00    +0.049 A 
BRANCH   6   8
ATOM      8  O   LIG    1        3.147  -0.623  -2.443  0.00  0.00    -0.507 OA
ATOM      9  H   LIG    1        2.733  -0.791  -3.347  0.00  0.00    +0.292 HD
ENDBRANCH   6   8
ENDBRANCH   1   2
BRANCH   1  10
ATOM     10  C   LIG    1        0.888  -0.709   2.312  0.00  0.00    +0.005 C 
ATOM     11  C   LIG    1        1.798   0.368   2.857  0.00  0.00    +0.004 C 
ENDBRANCH   1  10
BRANCH   1  12
ATOM     12  C   LIG    1       -0.945  -1.119   0.694  0.00  0.00    +0.007 C 
ATOM     13  C   LIG    1       -1.655  -1.875   1.858  0.00  0.00    +0.009 C 
BRANCH  12  14
ATOM     14  C   LIG    1       -1.974  -0.840  -0.294  0.00  0.00    +0.087 C 
BRANCH  14  15
ATOM     15  N   LIG    1       -1.724  -0.287  -1.555  0.00  0.00    -0.308 NA
ATOM     16  C   LIG    1       -1.395   1.105  -1.570  0.00  0.00    +0.104 C 
ATOM     17  C   LIG    1       -2.828  -0.506  -2.461  0.00  0.00    +0.104 C 
ENDBRANCH  14  15
ENDBRANCH  12  14
ENDBRANCH   1  12
TORSDOF 6
