REMARK  Name = molecules/KXGVEGMKQFWNSR-LLQZFEROSA-N.pdb
REMARK                            x       y       z     vdW  Elec       q    Type
REMARK                         _______ _______ _______ _____ _____    ______ ____
ROOT
ATOM      1  C   LIG    1       -3.708  -0.908   1.052  0.00  0.00    +0.010 C 
ATOM      2  C   LIG    1       -5.111  -1.208   0.634  0.00  0.00    +0.032 C 
ATOM      3  C   LIG    1       -5.791  -0.025  -0.014  0.00  0.00    +0.115 C 
ATOM      4  C   LIG    1       -4.959   1.198   0.302  0.00  0.00    +0.035 C 
ATOM      5  C   LIG    1       -3.633   1.043  -0.412  0.00  0.00    -0.002 C 
ATOM      6  C   LIG    1       -2.787   2.246  -0.084  0.00  0.00    +0.004 C 
ATOM      7  C   LIG    1       -1.435   2.224  -0.740  0.00  0.00    +0.004 C 
ATOM      8  C   LIG    1       -0.834   0.809  -0.688  0.00  0.00    -0.004 C 
ATOM      9  C   LIG    1       -1.547   0.080   0.388  0.00  0.00    +0.001 C 
ATOM     10  C   LIG    1       -0.864  -1.142   0.906  0.00  0.00    +0.036 C 
ATOM     11  C   LIG    1        0.629  -0.913   1.151  0.00  0.00    +0.121 C 
ATOM     12  C   LIG    1        1.223  -0.434  -0.127  0.00  0.00    +0.000 C 
ATOM     13  C   LIG    1        2.664  -0.040  -0.049  0.00  0.00    +0.001 C 
ATOM     14  C   LIG    1        2.812   0.864  -1.257  0.00  0.00    +0.005 C 
ATOM     15  C   LIG    1        1.456   1.545  -1.437  0.00  0.00    +0.005 C 
ATOM     16  C   LIG    1        0.976  -1.407  -1.226  0.00  0.00    +0.014 C 
ATOM     17  C   LIG    1        0.599   0.940  -0.375  0.00  0.00    +0.001 C 
ATOM     18  C   LIG    1       -2.938  -0.253  -0.080  0.00  0.00    -0.026 C 
ATOM     19  C   LIG    1       -2.951  -1.121  -1.310  0.00  0.00    +0.012 C 
ENDROOT
BRANCH   3  20
ATOM     20  O   LIG    1       -7.099   0.125   0.494  0.00  0.00    -0.392 OA
ATOM     21  H   LIG    1       -7.273   1.104   0.489  0.00  0.00    +0.210 HD
ENDBRANCH   3  20
BRANCH  11  22
ATOM     22  O   LIG    1        0.707   0.065   2.145  0.00  0.00    -0.391 OA
ATOM     23  H   LIG    1        1.598   0.103   2.573  0.00  0.00    +0.210 HD
ENDBRANCH  11  22
BRANCH  13  24
ATOM     24  C   LIG    1        3.663  -1.127  -0.159  0.00  0.00    -0.010 C 
ATOM     25  C   LIG    1        3.575  -2.191   0.909  0.00  0.00    +0.008 C 
BRANCH  24  26
ATOM     26  C   LIG    1        5.091  -0.627  -0.155  0.00  0.00    +0.014 C 
BRANCH  26  27
ATOM     27  C   LIG    1        5.457   0.120   1.082  0.00  0.00    +0.121 C 
BRANCH  27  28
ATOM     28  C   LIG    1        6.892   0.559   0.962  0.00  0.00    +0.305 C 
ATOM     29  O   LIG    1        7.835  -0.264   1.081  0.00  0.00    -0.251 OA
BRANCH  28  30
ATOM     30  O   LIG    1        7.232   1.883   0.717  0.00  0.00    -0.481 OA
ATOM     31  H   LIG    1        6.522   2.456   0.237  0.00  0.00    +0.295 HD
ENDBRANCH  28  30
ENDBRANCH  27  28
ENDBRANCH  26  27
ENDBRANCH  24  26
ENDBRANCH  13  24
TORSDOF 7
