REMARK  Name = molecules/KXVSBTJVTUVNPM-UKPNQBOSSA-N.pdb
REMARK                            x       y       z     vdW  Elec       q    Type
REMARK                         _______ _______ _______ _____ _____    ______ ____
ROOT
ATOM      1  C   LIG    1       -2.278   0.057   0.586  0.00  0.00    +0.095 C 
ENDROOT
BRANCH   1   2
ATOM      2  C   LIG    1       -2.925  -1.229   0.416  0.00  0.00    -0.028 A 
ATOM      3  C   LIG    1       -2.340  -2.339   1.034  0.00  0.00    +0.005 A 
ATOM      4  C   LIG    1       -2.929  -3.565   0.897  0.00  0.00    +0.000 A 
ATOM      5  C   LIG    1       -4.081  -3.759   0.172  0.00  0.00    +0.000 A 
ATOM      6  C   LIG    1       -4.652  -2.664  -0.434  0.00  0.00    +0.000 A 
ATOM      7  C   LIG    1       -4.063  -1.411  -0.302  0.00  0.00    +0.005 A 
ENDBRANCH   1   2
BRANCH   1   8
ATOM      8  C   LIG    1       -2.537   1.006  -0.535  0.00  0.00    -0.028 A 
ATOM      9  C   LIG    1       -2.560   2.345  -0.212  0.00  0.00    +0.005 A 
ATOM     10  C   LIG    1       -2.774   3.285  -1.190  0.00  0.00    +0.000 A 
ATOM     11  C   LIG    1       -2.969   2.933  -2.505  0.00  0.00    +0.000 A 
ATOM     12  C   LIG    1       -2.939   1.582  -2.799  0.00  0.00    +0.000 A 
ATOM     13  C   LIG    1       -2.727   0.627  -1.839  0.00  0.00    +0.005 A 
ENDBRANCH   1   8
BRANCH   1  14
ATOM     14  C   LIG    1       -2.643   0.684   1.858  0.00  0.00    +0.230 C 
ATOM     15  O   LIG    1       -1.672   0.645   2.765  0.00  0.00    -0.274 OA
ATOM     16  N   LIG    1       -3.804   1.309   2.300  0.00  0.00    -0.307 N 
ATOM     17  C   LIG    1       -3.870   1.806   3.710  0.00  0.00    +0.131 C 
ATOM     18  C   LIG    1       -4.966   1.553   1.513  0.00  0.00    +0.131 C 
ENDBRANCH   1  14
BRANCH   1  19
ATOM     19  C   LIG    1       -0.747  -0.059   0.606  0.00  0.00    +0.012 C 
BRANCH  19  20
ATOM     20  C   LIG    1       -0.148  -0.693  -0.583  0.00  0.00    -0.027 C 
BRANCH  20  21
ATOM     21  N   LIG    1        1.285  -0.685  -0.444  0.00  0.00    +0.422 N 
ATOM     22  C   LIG    1        1.847  -1.512   0.560  0.00  0.00    -0.025 C 
ATOM     23  C   LIG    1        3.257  -0.954   0.818  0.00  0.00    +0.026 C 
ATOM     24  C   LIG    1        4.058  -0.832  -0.433  0.00  0.00    +0.088 C 
ATOM     25  C   LIG    1        3.312  -0.345  -1.632  0.00  0.00    +0.026 C 
ATOM     26  O   LIG    1        1.678   0.603  -0.158  0.00  0.00    -0.292 OA
ATOM     27  C   LIG    1        1.946  -1.037  -1.696  0.00  0.00    -0.025 C 
BRANCH  24  28
ATOM     28  C   LIG    1        5.261  -0.005  -0.150  0.00  0.00    -0.016 A 
ATOM     29  C   LIG    1        6.136  -0.449   0.844  0.00  0.00    +0.008 A 
ATOM     30  C   LIG    1        7.271   0.276   1.144  0.00  0.00    +0.020 A 
ATOM     31  C   LIG    1        7.541   1.450   0.454  0.00  0.00    +0.041 A 
ATOM     32 CL   LIG    1        8.979   2.412   0.799  0.00  0.00    -0.084 Cl
ATOM     33  C   LIG    1        6.663   1.862  -0.518  0.00  0.00    +0.020 A 
ATOM     34  C   LIG    1        5.519   1.155  -0.839  0.00  0.00    +0.008 A 
ENDBRANCH  24  28
BRANCH  24  35
ATOM     35  O   LIG    1        4.577  -2.117  -0.749  0.00  0.00    -0.384 OA
ATOM     36  H   LIG    1        4.029  -2.822  -0.315  0.00  0.00    +0.211 HD
ENDBRANCH  24  35
ENDBRANCH  20  21
ENDBRANCH  19  20
ENDBRANCH   1  19
TORSDOF 8
