REMARK  Name = molecules/KYLIZBIRMBGUOP-UHFFFAOYSA-N.pdb
REMARK                            x       y       z     vdW  Elec       q    Type
REMARK                         _______ _______ _______ _____ _____    ______ ____
ROOT
ATOM      1  C   LIG    1        0.893   0.107  -0.178  0.00  0.00    -0.011 A 
ATOM      2  C   LIG    1       -0.059  -0.564   0.531  0.00  0.00    +0.012 A 
ATOM      3  C   LIG    1       -1.403  -0.408   0.248  0.00  0.00    +0.046 A 
ATOM      4  C   LIG    1       -1.819   0.439  -0.771  0.00  0.00    +0.120 A 
ATOM      5  C   LIG    1       -0.864   1.113  -1.483  0.00  0.00    +0.046 A 
ATOM      6  C   LIG    1        0.476   0.944  -1.185  0.00  0.00    +0.012 A 
ENDROOT
BRANCH   1  10
ATOM      7  S   LIG    1        4.901  -1.889   2.451  0.00  0.00    -0.044 S 
ATOM      8  C   LIG    1        4.169  -0.936   1.286  0.00  0.00    +0.064 A 
ATOM      9  C   LIG    1        2.841  -0.847   1.082  0.00  0.00    +0.039 A 
ATOM     10  C   LIG    1        2.353  -0.040   0.104  0.00  0.00    +0.028 A 
ATOM     11  S   LIG    1        3.554   0.803  -0.786  0.00  0.00    -0.051 S 
ATOM     12  S   LIG    1        5.154  -0.002   0.274  0.00  0.00    -0.044 S 
ENDBRANCH   1  10
BRANCH   4  13
ATOM     13  O   LIG    1       -3.185   0.570  -1.027  0.00  0.00    -0.495 OA
ATOM     14  C   LIG    1       -4.128  -0.150  -0.261  0.00  0.00    +0.277 C 
ENDBRANCH   4  13
TORSDOF 2
