REMARK  Name = molecules/KYYIDSXMWOZKMP-OAHLLOKOSA-N.pdb
REMARK                            x       y       z     vdW  Elec       q    Type
REMARK                         _______ _______ _______ _____ _____    ______ ____
ROOT
ATOM      1  C   LIG    1       -0.629  -0.273   0.257  0.00  0.00    +0.065 C 
ENDROOT
BRANCH   1   7
ATOM      2  C   LIG    1       -1.790   1.814   1.040  0.00  0.00    +0.007 A 
ATOM      3  C   LIG    1       -2.393   3.040   0.881  0.00  0.00    +0.045 A 
ATOM      4  C   LIG    1       -2.490   3.572  -0.384  0.00  0.00    +0.117 A 
ATOM      5  C   LIG    1       -1.978   2.854  -1.443  0.00  0.00    +0.045 A 
ATOM      6  C   LIG    1       -1.370   1.614  -1.268  0.00  0.00    +0.007 A 
ATOM      7  C   LIG    1       -1.269   1.076  -0.014  0.00  0.00    -0.040 A 
BRANCH   4   8
ATOM      8  O   LIG    1       -3.090   4.811  -0.605  0.00  0.00    -0.507 OA
ATOM      9  H   LIG    1       -3.461   5.333   0.154  0.00  0.00    +0.292 HD
ENDBRANCH   4   8
ENDBRANCH   1   7
BRANCH   1  10
ATOM     10  C   LIG    1        0.842  -0.131   0.085  0.00  0.00    +0.074 C 
ATOM     11  C   LIG    1        1.385   0.917   1.070  0.00  0.00    +0.035 C 
ATOM     12  C   LIG    1        2.630   1.496   0.414  0.00  0.00    +0.003 C 
ATOM     13  C   LIG    1        3.597   0.391   0.163  0.00  0.00    +0.000 C 
ATOM     14  C   LIG    1        3.144  -0.946   0.622  0.00  0.00    +0.003 C 
ATOM     15  C   LIG    1        1.719  -1.296   0.149  0.00  0.00    +0.035 C 
BRANCH  10  16
ATOM     16  O   LIG    1        1.050   0.471  -1.183  0.00  0.00    -0.388 OA
ATOM     17  H   LIG    1        1.768   0.037  -1.689  0.00  0.00    +0.210 HD
ENDBRANCH  10  16
ENDBRANCH   1  10
BRANCH   1  18
ATOM     18  C   LIG    1       -1.307  -1.305  -0.559  0.00  0.00    +0.094 C 
BRANCH  18  19
ATOM     19  N   LIG    1       -0.819  -2.636  -0.367  0.00  0.00    -0.308 NA
ATOM     20  C   LIG    1       -1.182  -3.161   0.956  0.00  0.00    +0.104 C 
ATOM     21  C   LIG    1       -1.137  -3.568  -1.390  0.00  0.00    +0.104 C 
ENDBRANCH  18  19
ENDBRANCH   1  18
TORSDOF 6
