REMARK  Name = molecules/KZSNJWFQEVHDMF-BYPYZUCNSA-N.pdb
REMARK                            x       y       z     vdW  Elec       q    Type
REMARK                         _______ _______ _______ _____ _____    ______ ____
ROOT
ATOM      1  CA  VAL A  1       -0.763  -0.439   0.167  0.00  0.00    +0.163 C 
ENDROOT
BRANCH   1   3
ATOM      2  CG2 VAL A  1        0.976   1.291   0.713  0.00  0.00    +0.009 C 
ATOM      3  CB  VAL A  1        0.710  -0.111   0.296  0.00  0.00    +0.010 C 
ATOM      4  CG1 VAL A  1        1.473  -0.518  -0.957  0.00  0.00    +0.009 C 
ENDBRANCH   1   3
BRANCH   1   5
ATOM      5  N   VAL A  1       -0.840  -1.861  -0.102  0.00  0.00    -0.318 NA
ATOM      6  H1  VAL A  1       -1.226  -2.410   0.667  0.00  0.00    +0.119 HD
ATOM      7  H2  VAL A  1       -1.194  -2.085  -1.038  0.00  0.00    +0.119 HD
ENDBRANCH   1   5
BRANCH   1   8
ATOM      8  C   VAL A  1       -1.470   0.371  -0.805  0.00  0.00    +0.322 C 
ATOM      9  O   VAL A  1       -2.071  -0.156  -1.764  0.00  0.00    -0.249 OA
BRANCH   8  10
ATOM     10  OXT VAL A  1       -1.507   1.746  -0.710  0.00  0.00    -0.480 OA
ATOM     11  HXT VAL A  1       -2.282   2.212  -0.248  0.00  0.00    +0.295 HD
ENDBRANCH   8  10
ENDBRANCH   1   8
TORSDOF 4
