REMARK  Name = molecules/KZTZJUQNSSLNAG-UHFFFAOYSA-N.pdb
REMARK                            x       y       z     vdW  Elec       q    Type
REMARK                         _______ _______ _______ _____ _____    ______ ____
ROOT
ATOM      1  C   LIG    1        0.246   0.378  -0.387  0.00  0.00    +0.282 C 
ENDROOT
BRANCH   1   2
ATOM      2  O   LIG    1        0.861  -0.715   0.252  0.00  0.00    -0.350 OA
BRANCH   2   3
ATOM      3  N   LIG    1        2.196  -0.594   0.539  0.00  0.00    +0.217 N 
ATOM      4  O   LIG    1        2.837  -1.631   0.779  0.00  0.00    -0.090 OA
ATOM      5  O   LIG    1        2.881   0.593   0.582  0.00  0.00    -0.090 OA
ENDBRANCH   2   3
ENDBRANCH   1   2
BRANCH   1   6
ATOM      6  C   LIG    1       -1.212   0.159  -0.662  0.00  0.00    +0.122 C 
BRANCH   6   7
ATOM      7  N   LIG    1       -2.016  -0.074   0.465  0.00  0.00    -0.327 NA
ATOM      8  H   LIG    1       -2.163   0.689   1.119  0.00  0.00    +0.118 HD
ATOM      9  H   LIG    1       -2.004  -1.027   0.862  0.00  0.00    +0.118 HD
ENDBRANCH   6   7
ENDBRANCH   1   6
TORSDOF 4
