REMARK  Name = molecules/LACNPVKUGFOYFW-UHFFFAOYSA-N.pdb
REMARK                            x       y       z     vdW  Elec       q    Type
REMARK                         _______ _______ _______ _____ _____    ______ ____
ROOT
ATOM      1  S   LIG    1       -0.109   2.269  -1.372  0.00  0.00    +0.073 S 
ATOM      2  O   LIG    1       -0.689   3.303  -0.445  0.00  0.00    -0.150 OA
ATOM      3  O   LIG    1        0.414   3.036  -2.568  0.00  0.00    -0.150 OA
ENDROOT
BRANCH   1   4
ATOM      4  C   LIG    1        1.231   1.499  -0.531  0.00  0.00    +0.109 A 
ATOM      5  C   LIG    1        1.414   1.570   0.815  0.00  0.00    +0.030 A 
ATOM      6  C   LIG    1        2.487   0.980   1.425  0.00  0.00    +0.025 A 
ATOM      7  C   LIG    1        3.472   0.265   0.721  0.00  0.00    +0.033 A 
ATOM      8  C   LIG    1        3.261   0.210  -0.637  0.00  0.00    +0.025 A 
ATOM      9  C   LIG    1        2.178   0.803  -1.264  0.00  0.00    +0.030 A 
BRANCH   7  10
ATOM     10  N   LIG    1        4.552  -0.317   1.417  0.00  0.00    -0.288 N 
ATOM     11  H   LIG    1        4.552  -0.172   2.468  0.00  0.00    +0.155 HD
ATOM     12  C   LIG    1        5.574  -1.042   0.817  0.00  0.00    +0.330 C 
ATOM     13  O   LIG    1        5.742  -1.314  -0.381  0.00  0.00    -0.279 OA
ENDBRANCH   7  10
ENDBRANCH   1   4
BRANCH   1  14
ATOM     14  N   LIG    1       -1.233   1.096  -1.841  0.00  0.00    -0.199 N 
ATOM     15  H   LIG    1       -1.400   0.983  -2.906  0.00  0.00    +0.175 HD
BRANCH  14  16
ATOM     16  C   LIG    1       -1.995   0.231  -1.043  0.00  0.00    +0.141 A 
ATOM     17  C   LIG    1       -1.948   0.275   0.316  0.00  0.00    +0.068 A 
ATOM     18  C   LIG    1       -2.710  -0.557   1.124  0.00  0.00    +0.044 A 
ATOM     19  C   LIG    1       -2.624  -0.473   2.609  0.00  0.00    +0.066 C 
ATOM     20  N   LIG    1       -3.520  -1.432   0.505  0.00  0.00    -0.237 NA
ATOM     21  C   LIG    1       -3.596  -1.506  -0.832  0.00  0.00    +0.128 A 
ATOM     22  C   LIG    1       -4.520  -2.504  -1.463  0.00  0.00    +0.088 C 
ATOM     23  N   LIG    1       -2.846  -0.688  -1.586  0.00  0.00    -0.216 NA
ENDBRANCH  14  16
ENDBRANCH   1  14
TORSDOF 4
