REMARK  Name = molecules/LBHIOVVIQHSOQN-UHFFFAOYSA-N.pdb
REMARK                            x       y       z     vdW  Elec       q    Type
REMARK                         _______ _______ _______ _____ _____    ______ ____
ROOT
ATOM      1  C   LIG    1       -0.360  -0.489  -0.014  0.00  0.00    +0.246 C 
ATOM      2  N   LIG    1        0.406  -0.527   1.180  0.00  0.00    -0.308 N 
ATOM      3  H   LIG    1       -0.048  -0.301   2.092  0.00  0.00    +0.149 HD
ATOM      4  O   LIG    1        0.218  -0.774  -1.116  0.00  0.00    -0.270 OA
ENDROOT
BRANCH   1   5
ATOM      5  C   LIG    1       -1.772  -0.135   0.006  0.00  0.00    +0.055 A 
ATOM      6  C   LIG    1       -2.443   0.233   1.140  0.00  0.00    +0.123 A 
ATOM      7  N   LIG    1       -3.773   0.560   1.117  0.00  0.00    -0.263 NA
ATOM      8  C   LIG    1       -4.491   0.538  -0.017  0.00  0.00    +0.111 A 
ATOM      9  C   LIG    1       -3.866   0.175  -1.187  0.00  0.00    +0.020 A 
ATOM     10  C   LIG    1       -2.530  -0.155  -1.172  0.00  0.00    +0.016 A 
ENDBRANCH   1   5
BRANCH   2  11
ATOM     11  C   LIG    1        1.794  -0.866   1.200  0.00  0.00    +0.148 C 
BRANCH  11  12
ATOM     12  C   LIG    1        2.585   0.131   0.364  0.00  0.00    +0.286 C 
BRANCH  12  13
ATOM     13  O   LIG    1        3.973  -0.244   0.410  0.00  0.00    -0.350 OA
BRANCH  13  14
ATOM     14  N   LIG    1        4.840   0.554  -0.296  0.00  0.00    +0.217 N 
ATOM     15  O   LIG    1        5.013   1.884  -0.065  0.00  0.00    -0.090 OA
ATOM     16  O   LIG    1        5.503  -0.017  -1.208  0.00  0.00    -0.090 OA
ENDBRANCH  13  14
ENDBRANCH  12  13
ENDBRANCH  11  12
ENDBRANCH   2  11
TORSDOF 5
