REMARK  Name = molecules/LCAAMXMULMCKLJ-UHFFFAOYSA-N.pdb
REMARK                            x       y       z     vdW  Elec       q    Type
REMARK                         _______ _______ _______ _____ _____    ______ ____
ROOT
ATOM      1  C   LIG    1        1.052  -0.319  -0.843  0.00  0.00    +0.074 A 
ATOM      2  C   LIG    1        1.116  -1.585  -0.345  0.00  0.00    +0.011 A 
ATOM      3  C   LIG    1        0.016  -2.130   0.316  0.00  0.00    +0.050 A 
ATOM      4  C   LIG    1        0.062  -3.425   0.817  0.00  0.00    +0.014 A 
ATOM      5  C   LIG    1        1.175  -4.227   0.689  0.00  0.00    +0.001 A 
ATOM      6  C   LIG    1        2.252  -3.679   0.035  0.00  0.00    +0.001 A 
ATOM      7  C   LIG    1       -1.103  -1.347   0.434  0.00  0.00    +0.275 A 
ATOM      8  O   LIG    1       -2.086  -1.857   1.036  0.00  0.00    -0.266 OA
ATOM      9  N   LIG    1       -1.159  -0.085  -0.068  0.00  0.00    -0.228 N 
ATOM     10  C   LIG    1        2.236  -2.396  -0.474  0.00  0.00    +0.010 A 
ATOM     11  N   LIG    1       -0.116   0.388  -0.676  0.00  0.00    -0.172 NA
ENDROOT
BRANCH   1  12
ATOM     12  C   LIG    1        2.215   0.309  -1.490  0.00  0.00    +0.093 C 
BRANCH  12  13
ATOM     13  C   LIG    1        3.185   0.918  -0.563  0.00  0.00    -0.042 A 
ATOM     14  C   LIG    1        2.786   2.139  -0.013  0.00  0.00    +0.004 A 
ATOM     15  C   LIG    1        3.587   2.797   0.861  0.00  0.00    +0.000 A 
ATOM     16  C   LIG    1        4.818   2.314   1.253  0.00  0.00    +0.000 A 
ATOM     17  C   LIG    1        5.207   1.101   0.702  0.00  0.00    +0.000 A 
ATOM     18  C   LIG    1        4.388   0.430  -0.189  0.00  0.00    +0.004 A 
ENDBRANCH  12  13
ENDBRANCH   1  12
BRANCH   9  19
ATOM     19  C   LIG    1       -2.417   0.601   0.143  0.00  0.00    +0.163 C 
BRANCH  19  20
ATOM     20  C   LIG    1       -3.401   0.363  -0.948  0.00  0.00    +0.107 C 
BRANCH  20  21
ATOM     21  N   LIG    1       -4.641   1.025  -0.708  0.00  0.00    -0.307 NA
ATOM     22  C   LIG    1       -5.386   0.414   0.393  0.00  0.00    +0.104 C 
ATOM     23  C   LIG    1       -4.472   2.418  -0.331  0.00  0.00    +0.104 C 
ENDBRANCH  20  21
ENDBRANCH  19  20
ENDBRANCH   9  19
TORSDOF 5
