REMARK  Name = molecules/LCAHPIFLPICNRW-SVYNMNNPSA-N.pdb
REMARK                            x       y       z     vdW  Elec       q    Type
REMARK                         _______ _______ _______ _____ _____    ______ ____
ROOT
ATOM      1  C   LIG    1       -1.806  -0.046   0.570  0.00  0.00    +0.092 C 
ATOM      2  C   LIG    1       -1.706  -0.236   2.058  0.00  0.00    +0.040 C 
ATOM      3  C   LIG    1       -2.070  -1.685   2.317  0.00  0.00    +0.034 C 
ATOM      4  C   LIG    1       -1.435  -2.588   1.315  0.00  0.00    +0.116 C 
ATOM      5  C   LIG    1       -0.316  -1.989   0.526  0.00  0.00    +0.046 C 
ATOM      6  C   LIG    1       -1.881   1.364   0.141  0.00  0.00    +0.093 C 
ATOM      7  C   LIG    1       -0.821   2.165   0.825  0.00  0.00    +0.057 C 
ATOM      8  C   LIG    1        0.502   1.567   0.570  0.00  0.00    -0.038 A 
ATOM      9  C   LIG    1        1.633   2.383   0.787  0.00  0.00    +0.008 A 
ATOM     10  C   LIG    1        2.879   1.868   0.607  0.00  0.00    +0.050 A 
ATOM     11  C   LIG    1        3.015   0.567   0.217  0.00  0.00    +0.162 A 
ATOM     12  C   LIG    1        1.889  -0.245   0.000  0.00  0.00    +0.166 A 
ATOM     13  C   LIG    1        0.615   0.253   0.175  0.00  0.00    +0.010 A 
ATOM     14  N   LIG    1       -1.822   1.604  -1.245  0.00  0.00    -0.299 NA
ATOM     15  C   LIG    1       -3.071   2.018  -1.807  0.00  0.00    +0.105 C 
ATOM     16  C   LIG    1       -1.044   0.737  -2.047  0.00  0.00    +0.085 C 
ATOM     17  C   LIG    1       -0.876  -0.649  -1.516  0.00  0.00    +0.030 C 
ATOM     18  C   LIG    1       -0.549  -0.645  -0.051  0.00  0.00    +0.033 C 
ENDROOT
BRANCH   1  19
ATOM     19  O   LIG    1       -2.930  -0.713   0.122  0.00  0.00    -0.386 OA
ATOM     20  H   LIG    1       -3.394  -0.267  -0.619  0.00  0.00    +0.210 HD
ENDBRANCH   1  19
BRANCH   4  21
ATOM     21  O   LIG    1       -2.375  -3.253   0.501  0.00  0.00    -0.392 OA
ATOM     22  H   LIG    1       -1.818  -3.668  -0.229  0.00  0.00    +0.210 HD
ENDBRANCH   4  21
BRANCH  11  23
ATOM     23  O   LIG    1        4.313   0.054   0.037  0.00  0.00    -0.491 OA
ATOM     24  C   LIG    1        5.444   0.870   0.256  0.00  0.00    +0.277 C 
ENDBRANCH  11  23
BRANCH  12  25
ATOM     25  O   LIG    1        2.190  -1.518  -0.384  0.00  0.00    -0.491 OA
ATOM     26  C   LIG    1        2.434  -2.046  -1.635  0.00  0.00    +0.277 C 
ENDBRANCH  12  25
TORSDOF 4
