REMARK  Name = molecules/LCDDAGSJHKEABN-MLGOLLRUSA-N.pdb
REMARK                            x       y       z     vdW  Elec       q    Type
REMARK                         _______ _______ _______ _____ _____    ______ ____
ROOT
ATOM      1  C   LIG    1        0.685   0.040  -0.759  0.00  0.00    +0.218 C 
ATOM      2  N   LIG    1       -0.413  -0.758  -0.446  0.00  0.00    -0.286 N 
ATOM      3  C   LIG    1       -1.710  -0.315   0.034  0.00  0.00    +0.187 C 
ATOM      4  C   LIG    1       -2.049  -1.194   1.171  0.00  0.00    +0.236 C 
ATOM      5  O   LIG    1       -2.216  -0.779   2.328  0.00  0.00    -0.274 OA
ATOM      6  N   LIG    1       -2.171  -2.588   0.828  0.00  0.00    -0.312 N 
ATOM      7  H   LIG    1       -2.587  -3.303   1.448  0.00  0.00    +0.149 HD
ATOM      8  C   LIG    1       -1.646  -2.917  -0.485  0.00  0.00    +0.123 C 
ATOM      9  C   LIG    1       -0.306  -2.195  -0.607  0.00  0.00    +0.127 C 
ATOM     10  O   LIG    1        0.551   1.330  -0.568  0.00  0.00    -0.276 OA
ENDROOT
BRANCH   1  11
ATOM     11  C   LIG    1        1.974  -0.344  -1.277  0.00  0.00    +0.114 C 
BRANCH  11  12
ATOM     12  C   LIG    1        2.923  -1.200  -0.605  0.00  0.00    +0.064 C 
BRANCH  12  13
ATOM     13  N   LIG    1        2.695  -2.656  -0.732  0.00  0.00    -0.327 NA
ATOM     14  H   LIG    1        3.125  -3.172   0.065  0.00  0.00    +0.118 HD
ATOM     15  H   LIG    1        3.027  -3.048  -1.613  0.00  0.00    +0.118 HD
ENDBRANCH  12  13
BRANCH  12  16
ATOM     16  C   LIG    1        3.523  -0.945   0.705  0.00  0.00    +0.057 C 
BRANCH  16  22
ATOM     17  C   LIG    1        6.514   1.253   0.650  0.00  0.00    +0.159 A 
ATOM     18  C   LIG    1        5.970   2.467   0.979  0.00  0.00    +0.161 A 
ATOM     19  C   LIG    1        4.627   2.622   1.247  0.00  0.00    +0.080 A 
ATOM     20  C   LIG    1        3.816   1.499   1.177  0.00  0.00    +0.129 A 
ATOM     21  F   LIG    1        2.522   1.672   1.488  0.00  0.00    -0.205 F 
ATOM     22  C   LIG    1        4.340   0.282   0.850  0.00  0.00    -0.008 A 
ATOM     23  F   LIG    1        6.742   3.572   1.051  0.00  0.00    -0.202 F 
ATOM     24  C   LIG    1        5.709   0.148   0.582  0.00  0.00    +0.047 A 
ATOM     25  F   LIG    1        7.853   1.123   0.387  0.00  0.00    -0.202 F 
ENDBRANCH  16  22
ENDBRANCH  12  16
ENDBRANCH  11  12
ENDBRANCH   1  11
BRANCH   3  26
ATOM     26  C   LIG    1       -1.934   1.117   0.216  0.00  0.00    +0.192 C 
BRANCH  26  27
ATOM     27  O   LIG    1       -3.117   1.500   0.690  0.00  0.00    -0.372 OA
BRANCH  27  28
ATOM     28  C   LIG    1       -4.316   1.347   0.230  0.00  0.00    +0.061 C 
ATOM     29  C   LIG    1       -5.234   2.264   1.136  0.00  0.00    +0.041 C 
ATOM     30  C   LIG    1       -4.926  -0.008   0.442  0.00  0.00    +0.041 C 
ATOM     31  C   LIG    1       -4.668   1.816  -1.149  0.00  0.00    +0.041 C 
ENDBRANCH  27  28
ENDBRANCH  26  27
ENDBRANCH   3  26
TORSDOF 8
