REMARK  Name = molecules/LCFBCKSQWVQIBY-UYAOXDASSA-N.pdb
REMARK                            x       y       z     vdW  Elec       q    Type
REMARK                         _______ _______ _______ _____ _____    ______ ____
ROOT
ATOM      1  C   LIG    1       -1.042   0.604   0.369  0.00  0.00    +0.190 C 
ENDROOT
BRANCH   1   2
ATOM      2  C   LIG    1       -1.660  -0.439   1.275  0.00  0.00    +0.036 C 
ATOM      3  C   LIG    1       -3.040  -0.089   1.722  0.00  0.00    +0.007 C 
ATOM      4  C   LIG    1       -4.095  -0.927   0.983  0.00  0.00    +0.000 C 
ATOM      5  C   LIG    1       -3.899  -2.396   1.292  0.00  0.00    +0.000 C 
ATOM      6  C   LIG    1       -2.453  -2.698   1.643  0.00  0.00    +0.000 C 
ATOM      7  C   LIG    1       -1.622  -1.828   0.680  0.00  0.00    +0.007 C 
ENDBRANCH   1   2
BRANCH   1   8
ATOM      8  C   LIG    1       -1.863   0.980  -0.780  0.00  0.00    -0.005 A 
ATOM      9  C   LIG    1       -2.637   2.127  -0.693  0.00  0.00    +0.007 A 
ATOM     10  C   LIG    1       -3.439   2.579  -1.702  0.00  0.00    +0.000 A 
ATOM     11  C   LIG    1       -3.486   1.857  -2.876  0.00  0.00    +0.000 A 
ATOM     12  C   LIG    1       -2.718   0.715  -2.967  0.00  0.00    +0.000 A 
ATOM     13  C   LIG    1       -1.913   0.269  -1.945  0.00  0.00    +0.007 A 
ENDBRANCH   1   8
BRANCH   1  14
ATOM     14  O   LIG    1       -0.892   1.746   1.220  0.00  0.00    -0.373 OA
ATOM     15  H   LIG    1       -0.516   1.398   2.080  0.00  0.00    +0.211 HD
ENDBRANCH   1  14
BRANCH   1  16
ATOM     16  C   LIG    1        0.321   0.236  -0.062  0.00  0.00    +0.344 C 
ATOM     17  O   LIG    1        0.495  -0.754  -0.795  0.00  0.00    -0.247 OA
BRANCH  16  18
ATOM     18  O   LIG    1        1.467   0.919   0.289  0.00  0.00    -0.458 OA
BRANCH  18  19
ATOM     19  C   LIG    1        2.707   0.515  -0.152  0.00  0.00    +0.190 C 
ATOM     20  C   LIG    1        3.529   0.140   1.081  0.00  0.00    +0.047 C 
ATOM     21  C   LIG    1        4.747  -0.601   0.571  0.00  0.00    +0.019 C 
ATOM     22  C   LIG    1        5.526   0.383  -0.282  0.00  0.00    +0.084 C 
ATOM     23  N   LIG    1        4.724   0.881  -1.362  0.00  0.00    -0.302 NA
ATOM     24  C   LIG    1        4.442  -0.078  -2.385  0.00  0.00    +0.105 C 
ATOM     25  C   LIG    1        3.505   1.534  -0.905  0.00  0.00    +0.128 C 
ENDBRANCH  18  19
ENDBRANCH  16  18
ENDBRANCH   1  16
TORSDOF 6
