REMARK  Name = molecules/LCQLHJZYVOQKHU-VKHMYHEASA-N.pdb
REMARK                            x       y       z     vdW  Elec       q    Type
REMARK                         _______ _______ _______ _____ _____    ______ ____
ROOT
ATOM      1  CA  GLU A  1        0.465  -0.055   0.507  0.00  0.00    +0.183 C 
ENDROOT
BRANCH   1   2
ATOM      2  N   GLU A  1        1.780   0.125  -0.128  0.00  0.00    -0.286 N 
ATOM      3  C   UNK A  0        2.586   1.234   0.196  0.00  0.00    +0.298 C 
ATOM      4  O   UNK A  0        2.185   2.069   1.025  0.00  0.00    -0.253 OA
ATOM      5  N   UNK A  0        3.841   1.388  -0.422  0.00  0.00    -0.313 N 
ATOM      6  H   UNK A  0        4.331   2.323  -0.505  0.00  0.00    +0.146 HD
ATOM      7  H   UNK A  0        4.323   0.555  -0.820  0.00  0.00    +0.146 HD
ATOM      8  H   GLU A  1        2.086  -0.592  -0.818  0.00  0.00    +0.151 HD
ENDBRANCH   1   2
BRANCH   1   9
ATOM      9  C   GLU A  1        0.426  -1.285   1.294  0.00  0.00    +0.325 C 
ATOM     10  O   GLU A  1        1.483  -2.007   1.306  0.00  0.00    -0.249 OA
BRANCH   9  11
ATOM     11  OXT GLU A  1       -0.642  -1.735   2.022  0.00  0.00    -0.479 OA
ATOM     12  HXT GLU A  1       -0.989  -2.679   1.920  0.00  0.00    +0.295 HD
ENDBRANCH   9  11
ENDBRANCH   1   9
BRANCH   1  13
ATOM     13  CB  GLU A  1       -0.571   0.076  -0.555  0.00  0.00    +0.045 C 
BRANCH  13  14
ATOM     14  CG  GLU A  1       -1.984  -0.077  -0.098  0.00  0.00    +0.123 C 
BRANCH  14  15
ATOM     15  CD  GLU A  1       -2.935   0.077  -1.224  0.00  0.00    +0.305 C 
ATOM     16  OE1 GLU A  1       -2.508   0.305  -2.377  0.00  0.00    -0.251 OA
BRANCH  15  17
ATOM     17  OE2 GLU A  1       -4.289  -0.033  -0.980  0.00  0.00    -0.481 OA
ATOM     18  HE2 GLU A  1       -4.680  -0.477  -0.166  0.00  0.00    +0.295 HD
ENDBRANCH  15  17
ENDBRANCH  14  15
ENDBRANCH  13  14
ENDBRANCH   1  13
TORSDOF 7
