REMARK  Name = molecules/LCTZPQRFOZKZNK-UHFFFAOYSA-N.pdb
REMARK                            x       y       z     vdW  Elec       q    Type
REMARK                         _______ _______ _______ _____ _____    ______ ____
ROOT
ATOM      1  C   LIG    1       -0.936   0.222  -0.088  0.00  0.00    -0.012 C 
ATOM      2  C   LIG    1        0.334   0.102  -0.111  0.00  0.00    -0.065 C 
ATOM      3  C   LIG    1        0.954  -1.273  -0.039  0.00  0.00    +0.013 C 
ATOM      4  C   LIG    1        2.285  -1.144  -0.758  0.00  0.00    -0.071 C 
ATOM      5  N   LIG    1        3.196  -0.354   0.044  0.00  0.00    +0.377 N 
ATOM      6  C   LIG    1        3.672  -1.140   1.167  0.00  0.00    -0.092 C 
ATOM      7  C   LIG    1        2.604   0.882   0.491  0.00  0.00    -0.071 C 
ATOM      8  C   LIG    1        4.373  -0.125  -0.794  0.00  0.00    -0.092 C 
ATOM      9  C   LIG    1        1.315   1.210  -0.208  0.00  0.00    +0.013 C 
ENDROOT
BRANCH   1  10
ATOM     10  C   LIG    1       -1.798  -0.951   0.038  0.00  0.00    -0.017 A 
ATOM     11  C   LIG    1       -1.706  -1.877   1.051  0.00  0.00    +0.008 A 
ATOM     12  C   LIG    1       -2.502  -3.007   1.121  0.00  0.00    +0.001 A 
ATOM     13  C   LIG    1       -3.441  -3.256   0.160  0.00  0.00    +0.000 A 
ATOM     14  C   LIG    1       -3.559  -2.341  -0.872  0.00  0.00    +0.001 A 
ATOM     15  C   LIG    1       -2.762  -1.223  -0.931  0.00  0.00    +0.008 A 
ENDBRANCH   1  10
BRANCH   1  16
ATOM     16  C   LIG    1       -1.629   1.496  -0.152  0.00  0.00    -0.017 A 
ATOM     17  C   LIG    1       -2.699   1.654   0.737  0.00  0.00    +0.008 A 
ATOM     18  C   LIG    1       -3.451   2.808   0.785  0.00  0.00    +0.001 A 
ATOM     19  C   LIG    1       -3.134   3.842  -0.072  0.00  0.00    +0.000 A 
ATOM     20  C   LIG    1       -2.082   3.696  -0.950  0.00  0.00    +0.001 A 
ATOM     21  C   LIG    1       -1.314   2.528  -1.007  0.00  0.00    +0.008 A 
ENDBRANCH   1  16
TORSDOF 2
