REMARK  Name = molecules/LDTZSTJLVYBEKB-REOHCLBHSA-N.pdb
REMARK                            x       y       z     vdW  Elec       q    Type
REMARK                         _______ _______ _______ _____ _____    ______ ____
ROOT
ATOM      1  C   LIG    1       -0.658  -0.066  -0.675  0.00  0.00    +0.230 C 
ENDROOT
BRANCH   1   2
ATOM      2  P   LIG    1       -1.867   1.164  -0.128  0.00  0.00    +0.343 P 
ATOM      3  O   LIG    1       -3.272   0.555  -0.229  0.00  0.00    -0.258 OA
BRANCH   2   4
ATOM      4  O   LIG    1       -1.528   1.523   1.484  0.00  0.00    -0.323 OA
ATOM      5  H   LIG    1       -2.306   1.352   2.081  0.00  0.00    +0.220 HD
ENDBRANCH   2   4
BRANCH   2   6
ATOM      6  O   LIG    1       -1.891   2.536  -1.101  0.00  0.00    -0.323 OA
ATOM      7  H   LIG    1       -1.467   2.310  -1.956  0.00  0.00    +0.220 HD
ENDBRANCH   2   6
ENDBRANCH   1   2
BRANCH   1   8
ATOM      8  P   LIG    1       -1.397  -1.684  -0.306  0.00  0.00    +0.343 P 
ATOM      9  O   LIG    1       -0.855  -2.771  -1.192  0.00  0.00    -0.258 OA
BRANCH   8  10
ATOM     10  O   LIG    1       -1.137  -2.045   1.341  0.00  0.00    -0.323 OA
ATOM     11  H   LIG    1       -1.936  -1.717   1.837  0.00  0.00    +0.220 HD
ENDBRANCH   8  10
BRANCH   8  12
ATOM     12  O   LIG    1       -3.066  -1.583  -0.604  0.00  0.00    -0.323 OA
ATOM     13  H   LIG    1       -3.379  -2.257  -1.238  0.00  0.00    +0.220 HD
ENDBRANCH   8  12
ENDBRANCH   1   8
BRANCH   1  14
ATOM     14  C   LIG    1        0.616   0.150   0.106  0.00  0.00    +0.134 C 
BRANCH  14  15
ATOM     15  C   LIG    1        1.166   1.487  -0.230  0.00  0.00    +0.310 C 
ATOM     16  O   LIG    1        2.290   1.601  -0.818  0.00  0.00    -0.251 OA
BRANCH  15  17
ATOM     17  O   LIG    1        0.421   2.609   0.114  0.00  0.00    -0.480 OA
ATOM     18  H   LIG    1        0.844   3.495   0.339  0.00  0.00    +0.295 HD
ENDBRANCH  15  17
ENDBRANCH  14  15
BRANCH  14  19
ATOM     19  C   LIG    1        1.688  -0.864  -0.298  0.00  0.00    +0.136 C 
BRANCH  19  20
ATOM     20  C   LIG    1        2.885  -0.567   0.529  0.00  0.00    +0.306 C 
ATOM     21  O   LIG    1        2.921   0.348   1.391  0.00  0.00    -0.251 OA
BRANCH  20  22
ATOM     22  O   LIG    1        4.067  -1.312   0.390  0.00  0.00    -0.481 OA
ATOM     23  H   LIG    1        4.572  -1.651   1.213  0.00  0.00    +0.295 HD
ENDBRANCH  20  22
ENDBRANCH  19  20
ENDBRANCH  14  19
ENDBRANCH   1  14
TORSDOF 12
