REMARK  Name = molecules/LDVRMNJZLWXJPL-JKQNMTHDSA-N.pdb
REMARK                            x       y       z     vdW  Elec       q    Type
REMARK                         _______ _______ _______ _____ _____    ______ ____
ROOT
ATOM      1  C   LIG    1       -3.895 -13.334   0.000  0.00  0.00    +0.157 C 
ATOM      2  C   LIG    1       -4.493 -14.710   0.000  0.00  0.00    +0.206 C 
ENDROOT
BRANCH   2   3
ATOM      3  N   LIG    1       -5.439 -15.874   0.000  0.00  0.00    -0.332 N 
ATOM      4  C   LIG    1       -6.665 -16.739   0.000  0.00  0.00    +0.009 C 
ATOM      5  C   LIG    1       -8.078 -17.241   0.000  0.00  0.00    +0.050 C 
ATOM      6  H   LIG    1       -4.200 -16.545   0.000  0.00  0.00    +0.168 HD
BRANCH   4   7
ATOM      7  C   LIG    1       -5.366 -17.489   0.000  0.00  0.00    +0.148 C 
BRANCH   7   8
ATOM      8  C   LIG    1       -4.067 -18.239   0.000  0.00  0.00    +0.257 C 
ATOM      9  N   LIG    1       -4.067 -19.739   0.000  0.00  0.00    -0.088 NA
ATOM     10  O   LIG    1       -2.768 -17.489   0.000  0.00  0.00    -0.272 OA
ENDBRANCH   7   8
ENDBRANCH   4   7
ENDBRANCH   2   3
BRANCH   2  11
ATOM     11  O   LIG    1       -3.211 -15.489   0.000  0.00  0.00    -0.493 OA
ATOM     12  H   LIG    1       -2.897 -14.453   0.000  0.00  0.00    +0.294 HD
ENDBRANCH   2  11
BRANCH   1  13
ATOM     13  N   LIG    1       -3.691 -11.848   0.000  0.00  0.00    -0.240 NA
BRANCH  13  14
ATOM     14  C   LIG    1       -3.895 -10.362   0.000  0.00  0.00    +0.132 C 
BRANCH  14  16
ATOM     15  N   LIG    1       -3.833  -7.639   0.000  0.00  0.00    -0.129 NA
ATOM     16  C   LIG    1       -4.493  -8.986   0.000  0.00  0.00    +0.133 C 
ENDBRANCH  14  16
ENDBRANCH  13  14
ENDBRANCH   1  13
TORSDOF 7
REMARK  Name = molecules/LDVRMNJZLWXJPL-JKQNMTHDSA-N.pdb
REMARK                            x       y       z     vdW  Elec       q    Type
REMARK                         _______ _______ _______ _____ _____    ______ ____
ROOT
ATOM      1  N   LIG    1       -9.575 -17.343   0.000  0.00  0.00    -0.163 NA
ATOM      2  H   LIG    1       -9.205 -18.524   0.000  0.00  0.00    +0.163 HD
ENDROOT
TORSDOF 0
REMARK  Name = molecules/LDVRMNJZLWXJPL-JKQNMTHDSA-N.pdb
REMARK                            x       y       z     vdW  Elec       q    Type
REMARK                         _______ _______ _______ _____ _____    ______ ____
ROOT
ATOM      1  CA  GLY A  1      -14.251 -14.043   0.000  0.00  0.00    +0.106 C 
ENDROOT
BRANCH   1   2
ATOM      2  N   GLY A  1      -13.472 -15.324   0.000  0.00  0.00    -0.244 NA
ATOM      3  H   GLY A  1      -14.226 -16.515   0.000  0.00  0.00    +0.141 HD
ENDBRANCH   1   2
BRANCH   1   4
ATOM      4  C   GLY A  1      -15.088 -15.287   0.000  0.00  0.00    +0.228 C 
ATOM      5  O   GLY A  1      -15.925 -16.532   0.000  0.00  0.00    -0.233 OA
ENDBRANCH   1   4
TORSDOF 2
REMARK  Name = molecules/LDVRMNJZLWXJPL-JKQNMTHDSA-N.pdb
REMARK                            x       y       z     vdW  Elec       q    Type
REMARK                         _______ _______ _______ _____ _____    ______ ____
ROOT
ATOM      1  N   LIG    1      -14.656 -11.098   0.000  0.00  0.00    -0.246 NA
ATOM      2  H   LIG    1      -16.041 -11.360   0.000  0.00  0.00    +0.141 HD
ENDROOT
BRANCH   1   3
ATOM      3  C   LIG    1      -14.251  -9.654   0.000  0.00  0.00    +0.080 C 
ATOM      4  C   LIG    1      -15.732  -9.892   0.000  0.00  0.00    +0.025 C 
ENDBRANCH   1   3
TORSDOF 1
REMARK  Name = molecules/LDVRMNJZLWXJPL-JKQNMTHDSA-N.pdb
REMARK                            x       y       z     vdW  Elec       q    Type
REMARK                         _______ _______ _______ _____ _____    ______ ____
ROOT
ATOM      1  N   LIG    1      -12.375  -7.348   0.000  0.00  0.00    +0.004 NA
ATOM      2  N   LIG    1      -13.617  -6.304   0.000  0.00  0.00    -0.139 NA
ENDROOT
BRANCH   2   3
ATOM      3  C   LIG    1      -14.802  -5.385   0.000  0.00  0.00    +0.108 C 
ATOM      4  C   LIG    1      -15.722  -6.569   0.000  0.00  0.00    +0.028 C 
ENDBRANCH   2   3
TORSDOF 1
REMARK  Name = molecules/LDVRMNJZLWXJPL-JKQNMTHDSA-N.pdb
REMARK                            x       y       z     vdW  Elec       q    Type
REMARK                         _______ _______ _______ _____ _____    ______ ____
ROOT
ATOM      1  N   LIG    1      -14.448  -2.811   0.000  0.00  0.00    +0.000 NA
ENDROOT
TORSDOF 0
REMARK  Name = molecules/LDVRMNJZLWXJPL-JKQNMTHDSA-N.pdb
REMARK                            x       y       z     vdW  Elec       q    Type
REMARK                         _______ _______ _______ _____ _____    ______ ____
ROOT
ATOM      1  N   LIG    1      -10.955  -1.980   0.000  0.00  0.00    -0.163 NA
ATOM      2  H   LIG    1      -11.199  -1.195   0.000  0.00  0.00    +0.163 HD
ENDROOT
TORSDOF 0
REMARK  Name = molecules/LDVRMNJZLWXJPL-JKQNMTHDSA-N.pdb
REMARK                            x       y       z     vdW  Elec       q    Type
REMARK                         _______ _______ _______ _____ _____    ______ ____
ROOT
ATOM      1  N   LIG    1       -8.789  -5.305   0.000  0.00  0.00    -0.250 NA
ATOM      2  C   LIG    1       -9.877  -5.156   0.000  0.00  0.00    +0.109 C 
ATOM      3  H   LIG    1       -8.030  -5.150   0.000  0.00  0.00    +0.141 HD
ENDROOT
TORSDOF 0
REMARK  Name = molecules/LDVRMNJZLWXJPL-JKQNMTHDSA-N.pdb
REMARK                            x       y       z     vdW  Elec       q    Type
REMARK                         _______ _______ _______ _____ _____    ______ ____
ROOT
ATOM      1  N   LIG    1       -5.199  -5.245   0.000  0.00  0.00    -0.163 NA
ATOM      2  H   LIG    1       -5.533  -6.326   0.000  0.00  0.00    +0.163 HD
ENDROOT
TORSDOF 0
REMARK  Name = molecules/LDVRMNJZLWXJPL-JKQNMTHDSA-N.pdb
REMARK                            x       y       z     vdW  Elec       q    Type
REMARK                         _______ _______ _______ _____ _____    ______ ____
ROOT
ATOM      1  N   LIG    1       -6.853  -3.706   0.000  0.00  0.00    -0.130 NA
ATOM      2  C   LIG    1       -6.685  -5.040   0.000  0.00  0.00    +0.130 C 
ENDROOT
TORSDOF 0
REMARK  Name = molecules/LDVRMNJZLWXJPL-JKQNMTHDSA-N.pdb
REMARK                            x       y       z     vdW  Elec       q    Type
REMARK                         _______ _______ _______ _____ _____    ______ ____
ROOT
ATOM      1  N   LIG    1       -4.877  -1.256   0.000  0.00  0.00    -0.099 NA
ENDROOT
BRANCH   1   2
ATOM      2  N   LIG    1       -5.631  -1.806   0.000  0.00  0.00    -0.253 N 
ATOM      3  H   LIG    1       -5.992  -2.525   0.000  0.00  0.00    +0.169 HD
BRANCH   2   4
ATOM      4  C   LIG    1       -6.288  -0.747   0.000  0.00  0.00    +0.075 C 
ATOM      5  C   LIG    1       -5.896   0.299   0.000  0.00  0.00    +0.018 C 
ENDBRANCH   2   4
ENDBRANCH   1   2
BRANCH   1   6
ATOM      6  C   LIG    1       -4.712  -0.621   0.000  0.00  0.00    +0.118 C 
ATOM      7  C   LIG    1       -3.957  -0.071   0.000  0.00  0.00    +0.028 C 
ENDBRANCH   1   6
BRANCH   1   8
ATOM      8  O   LIG    1       -4.444  -2.040   0.000  0.00  0.00    -0.294 OA
ATOM      9  H   LIG    1       -4.459  -2.697   0.000  0.00  0.00    +0.239 HD
ENDBRANCH   1   8
TORSDOF 4
REMARK  Name = molecules/LDVRMNJZLWXJPL-JKQNMTHDSA-N.pdb
REMARK                            x       y       z     vdW  Elec       q    Type
REMARK                         _______ _______ _______ _____ _____    ______ ____
ROOT
ATOM      1  N   LIG    1       -5.692   1.785   0.000  0.00  0.00    -0.163 NA
ATOM      2  H   LIG    1       -6.482   1.153   0.000  0.00  0.00    +0.163 HD
ENDROOT
TORSDOF 0
REMARK  Name = molecules/LDVRMNJZLWXJPL-JKQNMTHDSA-N.pdb
REMARK                            x       y       z     vdW  Elec       q    Type
REMARK                         _______ _______ _______ _____ _____    ______ ____
ROOT
ATOM      1  N   LIG    1       -9.283   1.724   0.000  0.00  0.00    -0.224 NA
ATOM      2  C   LIG    1       -8.609   2.592   0.000  0.00  0.00    +0.117 C 
ATOM      3  C   LIG    1       -8.320   1.513   0.000  0.00  0.00    +0.124 C 
ENDROOT
BRANCH   3   4
ATOM      4  C   LIG    1       -7.425   1.672   0.000  0.00  0.00    -0.023 C 
ATOM      5  C   LIG    1       -6.931   2.080   0.000  0.00  0.00    +0.006 C 
ENDBRANCH   3   4
TORSDOF 1
REMARK  Name = molecules/LDVRMNJZLWXJPL-JKQNMTHDSA-N.pdb
REMARK                            x       y       z     vdW  Elec       q    Type
REMARK                         _______ _______ _______ _____ _____    ______ ____
ROOT
ATOM      1  N   LIG    1       -7.629   0.186   0.000  0.00  0.00    +0.042 NA
ATOM      2  O   LIG    1       -6.911   0.309   0.000  0.00  0.00    -0.249 OA
ENDROOT
BRANCH   2   3
ATOM      3  C   LIG    1       -6.365   0.691   0.000  0.00  0.00    +0.165 C 
ATOM      4  C   LIG    1       -6.444  -0.734   0.000  0.00  0.00    +0.042 C 
ENDBRANCH   2   3
TORSDOF 1
REMARK  Name = molecules/LDVRMNJZLWXJPL-JKQNMTHDSA-N.pdb
REMARK                            x       y       z     vdW  Elec       q    Type
REMARK                         _______ _______ _______ _____ _____    ______ ____
ROOT
ATOM      1  N   LIG    1       -4.038   0.246   0.000  0.00  0.00    -0.163 NA
ATOM      2  H   LIG    1       -3.343  -0.007   0.000  0.00  0.00    +0.163 HD
ENDROOT
TORSDOF 0
REMARK  Name = molecules/LDVRMNJZLWXJPL-JKQNMTHDSA-N.pdb
REMARK                            x       y       z     vdW  Elec       q    Type
REMARK                         _______ _______ _______ _____ _____    ______ ____
ROOT
ATOM      1  N   LIG    1       -4.099   3.837   0.000  0.00  0.00    +0.000 NA
ENDROOT
TORSDOF 0
REMARK  Name = molecules/LDVRMNJZLWXJPL-JKQNMTHDSA-N.pdb
REMARK                            x       y       z     vdW  Elec       q    Type
REMARK                         _______ _______ _______ _____ _____    ______ ____
ROOT
ATOM      1  N   LIG    1       -7.689   3.776   0.000  0.00  0.00    -0.166 NA
ATOM      2  C   LIG    1       -8.063   4.858   0.000  0.00  0.00    +0.166 C 
ENDROOT
TORSDOF 0
REMARK  Name = molecules/LDVRMNJZLWXJPL-JKQNMTHDSA-N.pdb
REMARK                            x       y       z     vdW  Elec       q    Type
REMARK                         _______ _______ _______ _____ _____    ______ ____
ROOT
ATOM      1  N   LIG    1       -9.590   4.998   0.000  0.00  0.00    +0.000 NA
ENDROOT
TORSDOF 0
REMARK  Name = molecules/LDVRMNJZLWXJPL-JKQNMTHDSA-N.pdb
REMARK                            x       y       z     vdW  Elec       q    Type
REMARK                         _______ _______ _______ _____ _____    ______ ____
ROOT
ATOM      1  N   LIG    1      -13.181   4.937   0.000  0.00  0.00    -0.159 NA
ATOM      2  H   LIG    1      -12.995   6.178   0.000  0.00  0.00    +0.163 HD
ENDROOT
BRANCH   1   3
ATOM      3  N   LIG    1      -12.026   4.645   0.000  0.00  0.00    -0.134 NA
ATOM      4  C   LIG    1      -12.368   3.865   0.000  0.00  0.00    +0.129 C 
ENDBRANCH   1   3
TORSDOF 1
REMARK  Name = molecules/LDVRMNJZLWXJPL-JKQNMTHDSA-N.pdb
REMARK                            x       y       z     vdW  Elec       q    Type
REMARK                         _______ _______ _______ _____ _____    ______ ____
ROOT
ATOM      1  C   LIG    1      -13.961   1.813   0.000  0.00  0.00    +0.096 C 
ENDROOT
BRANCH   1   2
ATOM      2  N   LIG    1      -13.120   1.346   0.000  0.00  0.00    -0.229 NA
ATOM      3  C   LIG    1      -12.572   2.379   0.000  0.00  0.00    +0.114 C 
ENDBRANCH   1   2
BRANCH   1   4
ATOM      4  C   LIG    1      -14.442   0.638   0.000  0.00  0.00    +0.022 C 
ATOM      5  C   LIG    1      -14.978   1.399   0.000  0.00  0.00    -0.003 C 
ENDBRANCH   1   4
TORSDOF 2
REMARK  Name = molecules/LDVRMNJZLWXJPL-JKQNMTHDSA-N.pdb
REMARK                            x       y       z     vdW  Elec       q    Type
REMARK                         _______ _______ _______ _____ _____    ______ ____
ROOT
ATOM      1  N   LIG    1      -16.494   2.231   0.000  0.00  0.00    -0.163 NA
ATOM      2  H   LIG    1      -16.638   2.885   0.000  0.00  0.00    +0.163 HD
ENDROOT
TORSDOF 0
REMARK  Name = molecules/LDVRMNJZLWXJPL-JKQNMTHDSA-N.pdb
REMARK                            x       y       z     vdW  Elec       q    Type
REMARK                         _______ _______ _______ _____ _____    ______ ____
ROOT
ATOM      1  N   LIG    1      -15.467   5.673   0.000  0.00  0.00    +0.000 NA
ENDROOT
TORSDOF 0
REMARK  Name = molecules/LDVRMNJZLWXJPL-JKQNMTHDSA-N.pdb
REMARK                            x       y       z     vdW  Elec       q    Type
REMARK                         _______ _______ _______ _____ _____    ______ ____
ROOT
ATOM      1  N   LIG    1       -8.886   2.902   0.000  0.00  0.00    -0.163 NA
ATOM      2  H   LIG    1       -9.496   3.209   0.000  0.00  0.00    +0.163 HD
ENDROOT
TORSDOF 0
REMARK  Name = molecules/LDVRMNJZLWXJPL-JKQNMTHDSA-N.pdb
REMARK                            x       y       z     vdW  Elec       q    Type
REMARK                         _______ _______ _______ _____ _____    ______ ____
ROOT
ATOM      1  N   LIG    1       -7.143   6.043   0.000  0.00  0.00    -0.163 NA
ATOM      2  H   LIG    1       -6.060   6.040   0.000  0.00  0.00    +0.163 HD
ENDROOT
TORSDOF 0
REMARK  Name = molecules/LDVRMNJZLWXJPL-JKQNMTHDSA-N.pdb
REMARK                            x       y       z     vdW  Elec       q    Type
REMARK                         _______ _______ _______ _____ _____    ______ ____
ROOT
ATOM      1  N   LIG    1       -7.356  10.005   0.000  0.00  0.00    -0.137 NA
ATOM      2  C   LIG    1       -7.922  11.395   0.000  0.00  0.00    +0.128 C 
ENDROOT
BRANCH   2   3
ATOM      3  C   LIG    1       -6.533  11.961   0.000  0.00  0.00    +0.009 C 
ATOM      4  C   LIG    1       -5.144  12.527   0.000  0.00  0.00    +0.009 C 
ATOM      5  C   LIG    1       -5.966  10.572   0.000  0.00  0.00    +0.005 C 
ENDBRANCH   2   3
BRANCH   2   6
ATOM      6  C   LIG    1       -9.311  10.828   0.000  0.00  0.00    +0.137 C 
BRANCH   6   7
ATOM      7  N   LIG    1      -10.496  11.748   0.000  0.00  0.00    -0.286 NA
ATOM      8  C   LIG    1      -11.885  11.182   0.000  0.00  0.00    +0.135 C 
ENDBRANCH   6   7
ENDBRANCH   2   6
TORSDOF 3
REMARK  Name = molecules/LDVRMNJZLWXJPL-JKQNMTHDSA-N.pdb
REMARK                            x       y       z     vdW  Elec       q    Type
REMARK                         _______ _______ _______ _____ _____    ______ ____
ROOT
ATOM      1  N   LIG    1      -14.459  11.536   0.000  0.00  0.00    -0.144 NA
ATOM      2  C   LIG    1      -15.848  10.970   0.000  0.00  0.00    +0.120 C 
ATOM      3  C   LIG    1      -16.414  12.359   0.000  0.00  0.00    +0.023 C 
ENDROOT
TORSDOF 0
REMARK  Name = molecules/LDVRMNJZLWXJPL-JKQNMTHDSA-N.pdb
REMARK                            x       y       z     vdW  Elec       q    Type
REMARK                         _______ _______ _______ _____ _____    ______ ____
ROOT
ATOM      1  N   LIG    1      -16.201   8.396   0.000  0.00  0.00    -0.295 NA
ATOM      2  C   LIG    1      -15.210   9.017   0.000  0.00  0.00    +0.109 C 
ATOM      3  H   LIG    1      -16.092   7.235   0.000  0.00  0.00    +0.187 HD
ENDROOT
TORSDOF 0
REMARK  Name = molecules/LDVRMNJZLWXJPL-JKQNMTHDSA-N.pdb
REMARK                            x       y       z     vdW  Elec       q    Type
REMARK                         _______ _______ _______ _____ _____    ______ ____
ROOT
ATOM      1  N   LIG    1      -19.575  10.243   0.000  0.00  0.00    +0.000 NA
ENDROOT
TORSDOF 0
REMARK  Name = molecules/LDVRMNJZLWXJPL-JKQNMTHDSA-N.pdb
REMARK                            x       y       z     vdW  Elec       q    Type
REMARK                         _______ _______ _______ _____ _____    ______ ____
ROOT
ATOM      1  S   LIG    1       -6.665  -6.958   0.000  0.00  0.00    +0.000 S 
ENDROOT
TORSDOF 0
REMARK  Name = molecules/LDVRMNJZLWXJPL-JKQNMTHDSA-N.pdb
REMARK                            x       y       z     vdW  Elec       q    Type
REMARK                         _______ _______ _______ _____ _____    ______ ____
ROOT
ATOM      1  C   LIG    1       -5.439  -7.823   0.000  0.00  0.00    -0.000 C 
ENDROOT
TORSDOF 0
REMARK  Name = molecules/LDVRMNJZLWXJPL-JKQNMTHDSA-N.pdb
REMARK                            x       y       z     vdW  Elec       q    Type
REMARK                         _______ _______ _______ _____ _____    ______ ____
ROOT
ATOM      1  O   HOH    1       -2.451  -9.957   0.000  0.00  0.00    -0.410 OA
ATOM      2  H   HOH    0       -2.993  -9.020   0.000  0.00  0.00    +0.205 HD
ATOM      3  H   HOH    0       -1.133  -9.792   0.000  0.00  0.00    +0.205 HD
ENDROOT
TORSDOF 0
REMARK  Name = molecules/LDVRMNJZLWXJPL-JKQNMTHDSA-N.pdb
REMARK                            x       y       z     vdW  Elec       q    Type
REMARK                         _______ _______ _______ _____ _____    ______ ____
ROOT
ATOM      1  O   HOH    1       -7.596 -18.661   0.000  0.00  0.00    -0.410 OA
ATOM      2  H   HOH    0       -6.982 -18.205   0.000  0.00  0.00    +0.205 HD
ATOM      3  H   HOH    0       -7.413 -19.464   0.000  0.00  0.00    +0.205 HD
ENDROOT
TORSDOF 0
REMARK  Name = molecules/LDVRMNJZLWXJPL-JKQNMTHDSA-N.pdb
REMARK                            x       y       z     vdW  Elec       q    Type
REMARK                         _______ _______ _______ _____ _____    ______ ____
ROOT
ATOM      1  C   LIG    1      -12.375 -16.348   0.000  0.00  0.00    +0.000 C 
ENDROOT
TORSDOF 0
REMARK  Name = molecules/LDVRMNJZLWXJPL-JKQNMTHDSA-N.pdb
REMARK                            x       y       z     vdW  Elec       q    Type
REMARK                         _______ _______ _______ _____ _____    ______ ____
ROOT
ATOM      1  C   LIG    1      -10.028 -21.422   0.000  0.00  0.00    +0.008 C 
ATOM      2  C   LIG    1      -10.366 -19.961   0.000  0.00  0.00    -0.008 C 
ENDROOT
TORSDOF 0
REMARK  Name = molecules/LDVRMNJZLWXJPL-JKQNMTHDSA-N.pdb
REMARK                            x       y       z     vdW  Elec       q    Type
REMARK                         _______ _______ _______ _____ _____    ______ ____
ROOT
ATOM      1  C   LIG    1      -10.705 -18.499   0.000  0.00  0.00    +0.005 C 
ATOM      2  C   LIG    1      -11.043 -17.038   0.000  0.00  0.00    -0.005 C 
ENDROOT
TORSDOF 0
REMARK  Name = molecules/LDVRMNJZLWXJPL-JKQNMTHDSA-N.pdb
REMARK                            x       y       z     vdW  Elec       q    Type
REMARK                         _______ _______ _______ _____ _____    ______ ____
ROOT
ATOM      1  C   LIG    1       -8.905 -19.622   0.000  0.00  0.00    +0.000 C 
ENDROOT
TORSDOF 0
REMARK  Name = molecules/LDVRMNJZLWXJPL-JKQNMTHDSA-N.pdb
REMARK                            x       y       z     vdW  Elec       q    Type
REMARK                         _______ _______ _______ _____ _____    ______ ____
ROOT
ATOM      1  O   HOH    1      -13.240 -17.573   0.000  0.00  0.00    -0.253 OA
ATOM      2  H   HOH    0      -12.332 -17.807   0.000  0.00  0.00    +0.253 HD
ENDROOT
TORSDOF 0
REMARK  Name = molecules/LDVRMNJZLWXJPL-JKQNMTHDSA-N.pdb
REMARK                            x       y       z     vdW  Elec       q    Type
REMARK                         _______ _______ _______ _____ _____    ______ ____
ROOT
ATOM      1  C   LIG    1      -14.656 -12.598   0.000  0.00  0.00    +0.000 C 
ENDROOT
TORSDOF 0
REMARK  Name = molecules/LDVRMNJZLWXJPL-JKQNMTHDSA-N.pdb
REMARK                            x       y       z     vdW  Elec       q    Type
REMARK                         _______ _______ _______ _____ _____    ______ ____
ROOT
ATOM      1  O   HOH    1      -16.142 -12.802   0.000  0.00  0.00    -0.253 OA
ATOM      2  H   HOH    0      -15.692 -13.626   0.000  0.00  0.00    +0.253 HD
ENDROOT
TORSDOF 0
REMARK  Name = molecules/LDVRMNJZLWXJPL-JKQNMTHDSA-N.pdb
REMARK                            x       y       z     vdW  Elec       q    Type
REMARK                         _______ _______ _______ _____ _____    ______ ____
ROOT
ATOM      1  C   LIG    1      -13.472  -8.372   0.000  0.00  0.00    +0.000 C 
ENDROOT
TORSDOF 0
REMARK  Name = molecules/LDVRMNJZLWXJPL-JKQNMTHDSA-N.pdb
REMARK                            x       y       z     vdW  Elec       q    Type
REMARK                         _______ _______ _______ _____ _____    ______ ____
ROOT
ATOM      1  O   LIG    1      -15.970  -8.411   0.000  0.00  0.00    -0.386 OA
ATOM      2  C   LIG    1      -16.642  -7.754   0.000  0.00  0.00    +0.176 C 
ATOM      3  H   LIG    1      -15.206  -8.188   0.000  0.00  0.00    +0.210 HD
ENDROOT
TORSDOF 0
REMARK  Name = molecules/LDVRMNJZLWXJPL-JKQNMTHDSA-N.pdb
REMARK                            x       y       z     vdW  Elec       q    Type
REMARK                         _______ _______ _______ _____ _____    ______ ____
ROOT
ATOM      1  C   LIG    1      -17.213 -10.130   0.000  0.00  0.00    -0.009 C 
ATOM      2  S   LIG    1      -17.562  -8.939   0.000  0.00  0.00    +0.009 S 
ENDROOT
TORSDOF 0
REMARK  Name = molecules/LDVRMNJZLWXJPL-JKQNMTHDSA-N.pdb
REMARK                            x       y       z     vdW  Elec       q    Type
REMARK                         _______ _______ _______ _____ _____    ______ ____
ROOT
ATOM      1  O   HOH    1      -14.635  -7.426   0.000  0.00  0.00    -0.253 OA
ATOM      2  H   HOH    0      -14.586  -8.192   0.000  0.00  0.00    +0.253 HD
ENDROOT
TORSDOF 0
REMARK  Name = molecules/LDVRMNJZLWXJPL-JKQNMTHDSA-N.pdb
REMARK                            x       y       z     vdW  Elec       q    Type
REMARK                         _______ _______ _______ _____ _____    ______ ____
ROOT
ATOM      1  C   LIG    1      -12.228  -5.738   0.000  0.00  0.00    +0.176 C 
ATOM      2  O   LIG    1      -12.217  -4.941   0.000  0.00  0.00    -0.386 OA
ATOM      3  H   LIG    1      -11.313  -4.722   0.000  0.00  0.00    +0.210 HD
ENDROOT
TORSDOF 0
REMARK  Name = molecules/LDVRMNJZLWXJPL-JKQNMTHDSA-N.pdb
REMARK                            x       y       z     vdW  Elec       q    Type
REMARK                         _______ _______ _______ _____ _____    ______ ____
ROOT
ATOM      1  S   LIG    1       -8.078  -6.455   0.000  0.00  0.00    -0.167 S 
ATOM      2  C   LIG    1       -8.524  -7.410   0.000  0.00  0.00    +0.065 C 
ATOM      3  H   LIG    1       -8.692  -6.076   0.000  0.00  0.00    +0.102 HD
ENDROOT
TORSDOF 0
REMARK  Name = molecules/LDVRMNJZLWXJPL-JKQNMTHDSA-N.pdb
REMARK                            x       y       z     vdW  Elec       q    Type
REMARK                         _______ _______ _______ _____ _____    ______ ____
ROOT
ATOM      1  C   LIG    1       -9.575  -6.353   0.000  0.00  0.00    -0.000 C 
ENDROOT
TORSDOF 0
REMARK  Name = molecules/LDVRMNJZLWXJPL-JKQNMTHDSA-N.pdb
REMARK                            x       y       z     vdW  Elec       q    Type
REMARK                         _______ _______ _______ _____ _____    ______ ____
ROOT
ATOM      1  C   LIG    1      -11.043  -6.658   0.000  0.00  0.00    +0.000 C 
ENDROOT
TORSDOF 0
REMARK  Name = molecules/LDVRMNJZLWXJPL-JKQNMTHDSA-N.pdb
REMARK                            x       y       z     vdW  Elec       q    Type
REMARK                         _______ _______ _______ _____ _____    ______ ____
ROOT
ATOM      1  C   LIG    1      -13.882  -4.200   0.000  0.00  0.00    +0.221 C 
ATOM      2  O   LIG    1      -13.005  -4.320   0.000  0.00  0.00    -0.186 OA
ATOM      3  O   LIG    1      -12.527  -3.883   0.000  0.00  0.00    -0.035 OA
ENDROOT
TORSDOF 0
REMARK  Name = molecules/LDVRMNJZLWXJPL-JKQNMTHDSA-N.pdb
REMARK                            x       y       z     vdW  Elec       q    Type
REMARK                         _______ _______ _______ _____ _____    ______ ____
ROOT
ATOM      1  C   LIG    1      -19.048  -8.735   0.000  0.00  0.00    +0.000 C 
ENDROOT
TORSDOF 0
REMARK  Name = molecules/LDVRMNJZLWXJPL-JKQNMTHDSA-N.pdb
REMARK                            x       y       z     vdW  Elec       q    Type
REMARK                         _______ _______ _______ _____ _____    ______ ____
ROOT
ATOM      1  C   LIG    1      -12.344  -2.546   0.000  0.00  0.00    +0.000 C 
ENDROOT
TORSDOF 0
REMARK  Name = molecules/LDVRMNJZLWXJPL-JKQNMTHDSA-N.pdb
REMARK                            x       y       z     vdW  Elec       q    Type
REMARK                         _______ _______ _______ _____ _____    ______ ____
ROOT
ATOM      1  C   LIG    1      -17.083   1.134   0.000  0.00  0.00    -0.000 C 
ENDROOT
TORSDOF 0
REMARK  Name = molecules/LDVRMNJZLWXJPL-JKQNMTHDSA-N.pdb
REMARK                            x       y       z     vdW  Elec       q    Type
REMARK                         _______ _______ _______ _____ _____    ______ ____
ROOT
ATOM      1  C   LIG    1      -14.713  -0.706   0.000  0.00  0.00    +0.000 C 
ENDROOT
TORSDOF 0
REMARK  Name = molecules/LDVRMNJZLWXJPL-JKQNMTHDSA-N.pdb
REMARK                            x       y       z     vdW  Elec       q    Type
REMARK                         _______ _______ _______ _____ _____    ______ ____
ROOT
ATOM      1  C   LIG    1      -13.528  -1.626   0.000  0.00  0.00    +0.008 C 
ATOM      2  C   LIG    1      -12.691  -1.043   0.000  0.00  0.00    -0.004 C 
ATOM      3  C   LIG    1      -14.177  -0.838   0.000  0.00  0.00    -0.004 C 
ENDROOT
TORSDOF 0
REMARK  Name = molecules/LDVRMNJZLWXJPL-JKQNMTHDSA-N.pdb
REMARK                            x       y       z     vdW  Elec       q    Type
REMARK                         _______ _______ _______ _____ _____    ______ ____
ROOT
ATOM      1  C   LIG    1      -15.898   0.214   0.000  0.00  0.00    -0.000 C 
ENDROOT
TORSDOF 0
REMARK  Name = molecules/LDVRMNJZLWXJPL-JKQNMTHDSA-N.pdb
REMARK                            x       y       z     vdW  Elec       q    Type
REMARK                         _______ _______ _______ _____ _____    ______ ____
ROOT
ATOM      1  C   LIG    1       -8.585  -3.819   0.000  0.00  0.00    +0.070 C 
ATOM      2  C   LIG    1       -8.284  -3.104   0.000  0.00  0.00    +0.269 C 
ENDROOT
BRANCH   2   3
ATOM      3  O   LIG    1       -7.491  -2.793   0.000  0.00  0.00    -0.326 OA
ATOM      4  C   LIG    1       -7.364  -1.919   0.000  0.00  0.00    +0.177 C 
ENDBRANCH   2   3
BRANCH   2   5
ATOM      5  O   LIG    1       -7.416  -3.731   0.000  0.00  0.00    -0.196 OA
BRANCH   5   6
ATOM      6  O   LIG    1       -7.553  -4.413   0.000  0.00  0.00    -0.247 OA
ATOM      7  H   LIG    1       -7.236  -5.156   0.000  0.00  0.00    +0.253 HD
ENDBRANCH   5   6
ENDBRANCH   2   5
TORSDOF 3
REMARK  Name = molecules/LDVRMNJZLWXJPL-JKQNMTHDSA-N.pdb
REMARK                            x       y       z     vdW  Elec       q    Type
REMARK                         _______ _______ _______ _____ _____    ______ ____
ROOT
ATOM      1  C   LIG    1       -9.770  -2.900   0.000  0.00  0.00    +0.000 C 
ENDROOT
TORSDOF 0
REMARK  Name = molecules/LDVRMNJZLWXJPL-JKQNMTHDSA-N.pdb
REMARK                            x       y       z     vdW  Elec       q    Type
REMARK                         _______ _______ _______ _____ _____    ______ ____
ROOT
ATOM      1  O   HOH    1       -7.340  -8.330   0.000  0.00  0.00    +0.000 OA
ENDROOT
TORSDOF 0
REMARK  Name = molecules/LDVRMNJZLWXJPL-JKQNMTHDSA-N.pdb
REMARK                            x       y       z     vdW  Elec       q    Type
REMARK                         _______ _______ _______ _____ _____    ______ ____
ROOT
ATOM      1  C   LIG    1       -7.604  -6.225   0.000  0.00  0.00    +0.000 C 
ENDROOT
TORSDOF 0
REMARK  Name = molecules/LDVRMNJZLWXJPL-JKQNMTHDSA-N.pdb
REMARK                            x       y       z     vdW  Elec       q    Type
REMARK                         _______ _______ _______ _____ _____    ______ ____
ROOT
ATOM      1  C   LIG    1       -9.444  -8.595   0.000  0.00  0.00    -0.000 C 
ENDROOT
TORSDOF 0
REMARK  Name = molecules/LDVRMNJZLWXJPL-JKQNMTHDSA-N.pdb
REMARK                            x       y       z     vdW  Elec       q    Type
REMARK                         _______ _______ _______ _____ _____    ______ ____
ROOT
ATOM      1  C   LIG    1       -5.463  -3.140   0.000  0.00  0.00    +0.000 C 
ENDROOT
TORSDOF 0
REMARK  Name = molecules/LDVRMNJZLWXJPL-JKQNMTHDSA-N.pdb
REMARK                            x       y       z     vdW  Elec       q    Type
REMARK                         _______ _______ _______ _____ _____    ______ ____
ROOT
ATOM      1  C   LIG    1       -3.094  -4.980   0.000  0.00  0.00    +0.000 C 
ENDROOT
TORSDOF 0
REMARK  Name = molecules/LDVRMNJZLWXJPL-JKQNMTHDSA-N.pdb
REMARK                            x       y       z     vdW  Elec       q    Type
REMARK                         _______ _______ _______ _____ _____    ______ ____
ROOT
ATOM      1  C   LIG    1        0.665  -6.253   0.000  0.00  0.00    +0.111 C 
ENDROOT
BRANCH   1   2
ATOM      2  C   LIG    1        0.461  -7.740   0.000  0.00  0.00    +0.163 C 
ATOM      3  O   LIG    1        1.645  -8.659   0.000  0.00  0.00    -0.292 OA
ATOM      4  C   LIG    1       -0.928  -8.306   0.000  0.00  0.00    +0.050 C 
ENDBRANCH   1   2
BRANCH   1   5
ATOM      5  C   LIG    1       -0.520  -5.334   0.000  0.00  0.00    +0.146 C 
BRANCH   5   7
ATOM      6  C   LIG    1       -1.909  -5.900   0.000  0.00  0.00    +0.174 C 
ATOM      7  O   LIG    1       -1.361  -4.867   0.000  0.00  0.00    -0.351 OA
ENDBRANCH   5   7
ENDBRANCH   1   5
TORSDOF 3
REMARK  Name = molecules/LDVRMNJZLWXJPL-JKQNMTHDSA-N.pdb
REMARK                            x       y       z     vdW  Elec       q    Type
REMARK                         _______ _______ _______ _____ _____    ______ ____
ROOT
ATOM      1  C   LIG    1       -2.113  -7.386   0.000  0.00  0.00    +0.000 C 
ENDROOT
TORSDOF 0
REMARK  Name = molecules/LDVRMNJZLWXJPL-JKQNMTHDSA-N.pdb
REMARK                            x       y       z     vdW  Elec       q    Type
REMARK                         _______ _______ _______ _____ _____    ______ ____
ROOT
ATOM      1  C   LIG    1       -4.279  -4.060   0.000  0.00  0.00    +0.000 C 
ENDROOT
TORSDOF 0
REMARK  Name = molecules/LDVRMNJZLWXJPL-JKQNMTHDSA-N.pdb
REMARK                            x       y       z     vdW  Elec       q    Type
REMARK                         _______ _______ _______ _____ _____    ______ ____
ROOT
ATOM      1  C   LIG    1       -7.117  -1.601   0.000  0.00  0.00    +0.279 C 
ATOM      2  O   LIG    1       -6.857  -0.853   0.000  0.00  0.00    -0.279 OA
ENDROOT
TORSDOF 0
REMARK  Name = molecules/LDVRMNJZLWXJPL-JKQNMTHDSA-N.pdb
REMARK                            x       y       z     vdW  Elec       q    Type
REMARK                         _______ _______ _______ _____ _____    ______ ____
ROOT
ATOM      1  O   HOH    1      -10.142  -3.051   0.000  0.00  0.00    -0.253 OA
ATOM      2  H   HOH    0      -10.949  -3.826   0.000  0.00  0.00    +0.253 HD
ENDROOT
TORSDOF 0
REMARK  Name = molecules/LDVRMNJZLWXJPL-JKQNMTHDSA-N.pdb
REMARK                            x       y       z     vdW  Elec       q    Type
REMARK                         _______ _______ _______ _____ _____    ______ ____
ROOT
ATOM      1  C   LIG    1       -8.037  -2.786   0.000  0.00  0.00    +0.000 C 
ENDROOT
TORSDOF 0
REMARK  Name = molecules/LDVRMNJZLWXJPL-JKQNMTHDSA-N.pdb
REMARK                            x       y       z     vdW  Elec       q    Type
REMARK                         _______ _______ _______ _____ _____    ______ ____
ROOT
ATOM      1  C   LIG    1       -8.957  -3.971   0.000  0.00  0.00    +0.109 C 
ATOM      2  N   LIG    1       -9.770  -2.900   0.000  0.00  0.00    -0.250 NA
ATOM      3  H   LIG    1       -9.222  -1.866   0.000  0.00  0.00    +0.141 HD
ENDROOT
TORSDOF 0
REMARK  Name = molecules/LDVRMNJZLWXJPL-JKQNMTHDSA-N.pdb
REMARK                            x       y       z     vdW  Elec       q    Type
REMARK                         _______ _______ _______ _____ _____    ______ ____
ROOT
ATOM      1  O   HOH    1       -7.684  -0.212   0.000  0.00  0.00    +0.000 OA
ENDROOT
TORSDOF 0
REMARK  Name = molecules/LDVRMNJZLWXJPL-JKQNMTHDSA-N.pdb
REMARK                            x       y       z     vdW  Elec       q    Type
REMARK                         _______ _______ _______ _____ _____    ______ ____
ROOT
ATOM      1  C   LIG    1       -3.527  -1.541   0.000  0.00  0.00    +0.000 C 
ENDROOT
TORSDOF 0
REMARK  Name = molecules/LDVRMNJZLWXJPL-JKQNMTHDSA-N.pdb
REMARK                            x       y       z     vdW  Elec       q    Type
REMARK                         _______ _______ _______ _____ _____    ______ ____
ROOT
ATOM      1  C   LIG    1       -2.342  -2.461   0.000  0.00  0.00    -0.000 C 
ENDROOT
TORSDOF 0
REMARK  Name = molecules/LDVRMNJZLWXJPL-JKQNMTHDSA-N.pdb
REMARK                            x       y       z     vdW  Elec       q    Type
REMARK                         _______ _______ _______ _____ _____    ______ ____
ROOT
ATOM      1  C   LIG    1       -1.157  -3.381   0.000  0.00  0.00    -0.000 C 
ENDROOT
TORSDOF 0
REMARK  Name = molecules/LDVRMNJZLWXJPL-JKQNMTHDSA-N.pdb
REMARK                            x       y       z     vdW  Elec       q    Type
REMARK                         _______ _______ _______ _____ _____    ______ ____
ROOT
ATOM      1  N   LIG    1        0.232  -2.814   0.000  0.00  0.00    -0.320 NA
ATOM      2  C   LIG    1        0.436  -1.329   0.000  0.00  0.00    +0.082 C 
ATOM      3  H   LIG    1        1.187  -3.684   0.000  0.00  0.00    +0.119 HD
ATOM      4  H   LIG    1       -0.743  -2.256   0.000  0.00  0.00    +0.119 HD
ENDROOT
TORSDOF 0
REMARK  Name = molecules/LDVRMNJZLWXJPL-JKQNMTHDSA-N.pdb
REMARK                            x       y       z     vdW  Elec       q    Type
REMARK                         _______ _______ _______ _____ _____    ______ ____
ROOT
ATOM      1  C   LIG    1       -7.797   1.520   0.000  0.00  0.00    +0.000 C 
ENDROOT
TORSDOF 0
REMARK  Name = molecules/LDVRMNJZLWXJPL-JKQNMTHDSA-N.pdb
REMARK                            x       y       z     vdW  Elec       q    Type
REMARK                         _______ _______ _______ _____ _____    ______ ____
ROOT
ATOM      1  C   LIG    1       -5.957   3.890   0.000  0.00  0.00    +0.000 C 
ENDROOT
TORSDOF 0
REMARK  Name = molecules/LDVRMNJZLWXJPL-JKQNMTHDSA-N.pdb
REMARK                            x       y       z     vdW  Elec       q    Type
REMARK                         _______ _______ _______ _____ _____    ______ ____
ROOT
ATOM      1  C   LIG    1       -5.037   5.074   0.000  0.00  0.00    +0.005 C 
ATOM      2  C   LIG    1       -4.364   5.942   0.000  0.00  0.00    -0.005 C 
ENDROOT
TORSDOF 0
REMARK  Name = molecules/LDVRMNJZLWXJPL-JKQNMTHDSA-N.pdb
REMARK                            x       y       z     vdW  Elec       q    Type
REMARK                         _______ _______ _______ _____ _____    ______ ____
ROOT
ATOM      1  O   HOH    1       -3.551   4.870   0.000  0.00  0.00    -0.410 OA
ATOM      2  H   HOH    0       -2.928   5.508   0.000  0.00  0.00    +0.205 HD
ATOM      3  H   HOH    0       -2.651   4.230   0.000  0.00  0.00    +0.205 HD
ENDROOT
TORSDOF 0
REMARK  Name = molecules/LDVRMNJZLWXJPL-JKQNMTHDSA-N.pdb
REMARK                            x       y       z     vdW  Elec       q    Type
REMARK                         _______ _______ _______ _____ _____    ______ ____
ROOT
ATOM      1  O   HOH    1       -5.603   6.464   0.000  0.00  0.00    +0.000 OA
ENDROOT
TORSDOF 0
REMARK  Name = molecules/LDVRMNJZLWXJPL-JKQNMTHDSA-N.pdb
REMARK                            x       y       z     vdW  Elec       q    Type
REMARK                         _______ _______ _______ _____ _____    ______ ____
ROOT
ATOM      1  C   LIG    1       -6.877   2.705   0.000  0.00  0.00    +0.000 C 
ATOM      2  C   LIG    1       -6.204   3.572   0.000  0.00  0.00    +0.000 C 
ATOM      3  C   LIG    1       -7.497   3.469   0.000  0.00  0.00    +0.000 C 
ENDROOT
TORSDOF 0
REMARK  Name = molecules/LDVRMNJZLWXJPL-JKQNMTHDSA-N.pdb
REMARK                            x       y       z     vdW  Elec       q    Type
REMARK                         _______ _______ _______ _____ _____    ______ ____
ROOT
ATOM      1  C   LIG    1       -9.018  -0.380   0.000  0.00  0.00    +0.000 C 
ENDROOT
TORSDOF 0
REMARK  Name = molecules/LDVRMNJZLWXJPL-JKQNMTHDSA-N.pdb
REMARK                            x       y       z     vdW  Elec       q    Type
REMARK                         _______ _______ _______ _____ _____    ______ ____
ROOT
ATOM      1  C   LIG    1      -11.387   1.459   0.000  0.00  0.00    +0.000 C 
ENDROOT
TORSDOF 0
REMARK  Name = molecules/LDVRMNJZLWXJPL-JKQNMTHDSA-N.pdb
REMARK                            x       y       z     vdW  Elec       q    Type
REMARK                         _______ _______ _______ _____ _____    ______ ____
ROOT
ATOM      1  C   LIG    1      -15.146   2.733   0.000  0.00  0.00    -0.005 C 
ATOM      2  C   LIG    1      -15.008   2.027   0.000  0.00  0.00    +0.005 C 
ENDROOT
TORSDOF 0
REMARK  Name = molecules/LDVRMNJZLWXJPL-JKQNMTHDSA-N.pdb
REMARK                            x       y       z     vdW  Elec       q    Type
REMARK                         _______ _______ _______ _____ _____    ______ ____
ROOT
ATOM      1  C   LIG    1      -14.942   4.219   0.000  0.00  0.00    +0.000 C 
ATOM      2  C   LIG    1      -15.671   4.186   0.000  0.00  0.00    +0.000 C 
ENDROOT
TORSDOF 0
REMARK  Name = molecules/LDVRMNJZLWXJPL-JKQNMTHDSA-N.pdb
REMARK                            x       y       z     vdW  Elec       q    Type
REMARK                         _______ _______ _______ _____ _____    ______ ____
ROOT
ATOM      1  C   LIG    1      -13.553   4.785   0.000  0.00  0.00    +0.000 C 
ENDROOT
TORSDOF 0
REMARK  Name = molecules/LDVRMNJZLWXJPL-JKQNMTHDSA-N.pdb
REMARK                            x       y       z     vdW  Elec       q    Type
REMARK                         _______ _______ _______ _____ _____    ______ ____
ROOT
ATOM      1  C   LIG    1      -10.203   0.539   0.000  0.00  0.00    +0.008 C 
ATOM      2  C   LIG    1       -9.709   0.947   0.000  0.00  0.00    -0.008 C 
ENDROOT
TORSDOF 0
REMARK  Name = molecules/LDVRMNJZLWXJPL-JKQNMTHDSA-N.pdb
REMARK                            x       y       z     vdW  Elec       q    Type
REMARK                         _______ _______ _______ _____ _____    ______ ____
ROOT
ATOM      1  O   HOH    1       -9.222  -1.866   0.000  0.00  0.00    -0.410 OA
ATOM      2  H   HOH    0       -8.736  -1.313   0.000  0.00  0.00    +0.205 HD
ATOM      3  H   HOH    0       -9.983  -1.415   0.000  0.00  0.00    +0.205 HD
ENDROOT
TORSDOF 0
REMARK  Name = molecules/LDVRMNJZLWXJPL-JKQNMTHDSA-N.pdb
REMARK                            x       y       z     vdW  Elec       q    Type
REMARK                         _______ _______ _______ _____ _____    ______ ____
ROOT
ATOM      1  C   LIG    1       -5.524   0.451   0.000  0.00  0.00    +0.000 C 
ATOM      2  C   LIG    1       -6.240   0.752   0.000  0.00  0.00    +0.000 C 
ENDROOT
TORSDOF 0
REMARK  Name = molecules/LDVRMNJZLWXJPL-JKQNMTHDSA-N.pdb
REMARK                            x       y       z     vdW  Elec       q    Type
REMARK                         _______ _______ _______ _____ _____    ______ ____
ROOT
ATOM      1  O   LIG    1       -5.737   1.935   0.000  0.00  0.00    -0.038 OA
ATOM      2  O   LIG    1       -5.177   2.478   0.000  0.00  0.00    -0.218 OA
ATOM      3  H   LIG    1       -4.382   2.516   0.000  0.00  0.00    +0.256 HD
ENDROOT
TORSDOF 0
REMARK  Name = molecules/LDVRMNJZLWXJPL-JKQNMTHDSA-N.pdb
REMARK                            x       y       z     vdW  Elec       q    Type
REMARK                         _______ _______ _______ _____ _____    ______ ____
ROOT
ATOM      1  C   LIG    1       -4.303   2.351   0.000  0.00  0.00    +0.000 C 
ENDROOT
TORSDOF 0
REMARK  Name = molecules/LDVRMNJZLWXJPL-JKQNMTHDSA-N.pdb
REMARK                            x       y       z     vdW  Elec       q    Type
REMARK                         _______ _______ _______ _____ _____    ______ ____
ROOT
ATOM      1  C   LIG    1       -0.749  -0.409   0.000  0.00  0.00    +0.000 C 
ENDROOT
TORSDOF 0
REMARK  Name = molecules/LDVRMNJZLWXJPL-JKQNMTHDSA-N.pdb
REMARK                            x       y       z     vdW  Elec       q    Type
REMARK                         _______ _______ _______ _____ _____    ______ ____
ROOT
ATOM      1  C   LIG    1       -1.933   0.511   0.000  0.00  0.00    +0.000 C 
ENDROOT
TORSDOF 0
REMARK  Name = molecules/LDVRMNJZLWXJPL-JKQNMTHDSA-N.pdb
REMARK                            x       y       z     vdW  Elec       q    Type
REMARK                         _______ _______ _______ _____ _____    ______ ____
ROOT
ATOM      1  C   LIG    1       -3.118   1.431   0.000  0.00  0.00    +0.000 C 
ENDROOT
TORSDOF 0
REMARK  Name = molecules/LDVRMNJZLWXJPL-JKQNMTHDSA-N.pdb
REMARK                            x       y       z     vdW  Elec       q    Type
REMARK                         _______ _______ _______ _____ _____    ______ ____
ROOT
ATOM      1  N   LIG    1        2.806  -3.168   0.000  0.00  0.00    +0.000 NA
ENDROOT
TORSDOF 0
REMARK  Name = molecules/LDVRMNJZLWXJPL-JKQNMTHDSA-N.pdb
REMARK                            x       y       z     vdW  Elec       q    Type
REMARK                         _______ _______ _______ _____ _____    ______ ____
ROOT
ATOM      1  C   LIG    1        1.621  -2.248   0.000  0.00  0.00    +0.000 C 
ENDROOT
TORSDOF 0
REMARK  Name = molecules/LDVRMNJZLWXJPL-JKQNMTHDSA-N.pdb
REMARK                            x       y       z     vdW  Elec       q    Type
REMARK                         _______ _______ _______ _____ _____    ______ ____
ROOT
ATOM      1  O   LIG    1       -5.514   1.466   0.000  0.00  0.00    -0.299 OA
ATOM      2  H   LIG    1       -5.431   2.110   0.000  0.00  0.00    +0.238 HD
ENDROOT
BRANCH   1   3
ATOM      3  N   LIG    1       -4.799   1.170   0.000  0.00  0.00    -0.115 NA
ATOM      4  H   LIG    1       -4.902   0.357   0.000  0.00  0.00    +0.176 HD
ENDBRANCH   1   3
TORSDOF 1
REMARK  Name = molecules/LDVRMNJZLWXJPL-JKQNMTHDSA-N.pdb
REMARK                            x       y       z     vdW  Elec       q    Type
REMARK                         _______ _______ _______ _____ _____    ______ ____
ROOT
ATOM      1  C   LIG    1       -3.444   7.127   0.000  0.00  0.00    +0.021 C 
ATOM      2  C   LIG    1       -4.010   8.516   0.000  0.00  0.00    -0.017 C 
ATOM      3  C   LIG    1       -3.090   9.701   0.000  0.00  0.00    -0.004 C 
ENDROOT
BRANCH   3   4
ATOM      4  C   LIG    1       -1.604   9.496   0.000  0.00  0.00    -0.005 C 
ATOM      5  C   LIG    1       -1.038   8.107   0.000  0.00  0.00    -0.027 C 
ATOM      6  C   LIG    1       -1.958   6.922   0.000  0.00  0.00    +0.031 C 
ENDBRANCH   3   4
TORSDOF 1
REMARK  Name = molecules/LDVRMNJZLWXJPL-JKQNMTHDSA-N.pdb
REMARK                            x       y       z     vdW  Elec       q    Type
REMARK                         _______ _______ _______ _____ _____    ______ ____
ROOT
ATOM      1  C   LIG    1       -5.284   4.757   0.000  0.00  0.00    +0.000 C 
ENDROOT
TORSDOF 0
REMARK  Name = molecules/LDVRMNJZLWXJPL-JKQNMTHDSA-N.pdb
REMARK                            x       y       z     vdW  Elec       q    Type
REMARK                         _______ _______ _______ _____ _____    ______ ____
ROOT
ATOM      1  C   LIG    1       -9.794   3.512   0.000  0.00  0.00    -0.000 C 
ENDROOT
TORSDOF 0
REMARK  Name = molecules/LDVRMNJZLWXJPL-JKQNMTHDSA-N.pdb
REMARK                            x       y       z     vdW  Elec       q    Type
REMARK                         _______ _______ _______ _____ _____    ______ ____
ROOT
ATOM      1  O   LIG    1      -10.888   2.485   0.000  0.00  0.00    -0.218 OA
ATOM      2  O   LIG    1      -11.431   3.045   0.000  0.00  0.00    -0.038 OA
ATOM      3  H   LIG    1      -10.102   2.395   0.000  0.00  0.00    +0.256 HD
ENDROOT
TORSDOF 0
REMARK  Name = molecules/LDVRMNJZLWXJPL-JKQNMTHDSA-N.pdb
REMARK                            x       y       z     vdW  Elec       q    Type
REMARK                         _______ _______ _______ _____ _____    ______ ____
ROOT
ATOM      1  C   LIG    1      -11.695   4.733   0.000  0.00  0.00    +0.000 C 
ENDROOT
TORSDOF 0
REMARK  Name = molecules/LDVRMNJZLWXJPL-JKQNMTHDSA-N.pdb
REMARK                            x       y       z     vdW  Elec       q    Type
REMARK                         _______ _______ _______ _____ _____    ______ ____
ROOT
ATOM      1  O   HOH    1      -11.040   8.022   0.000  0.00  0.00    -0.410 OA
ATOM      2  H   HOH    0      -11.839   6.975   0.000  0.00  0.00    +0.205 HD
ATOM      3  H   HOH    0      -10.223   9.056   0.000  0.00  0.00    +0.205 HD
ENDROOT
TORSDOF 0
REMARK  Name = molecules/LDVRMNJZLWXJPL-JKQNMTHDSA-N.pdb
REMARK                            x       y       z     vdW  Elec       q    Type
REMARK                         _______ _______ _______ _____ _____    ______ ____
ROOT
ATOM      1  C   LIG    1      -10.775   5.918   0.000  0.00  0.00    +0.228 C 
ATOM      2  O   LIG    1       -9.687   5.272   0.000  0.00  0.00    -0.301 OA
ATOM      3  C   LIG    1       -9.855   7.102   0.000  0.00  0.00    +0.073 C 
ENDROOT
TORSDOF 0
REMARK  Name = molecules/LDVRMNJZLWXJPL-JKQNMTHDSA-N.pdb
REMARK                            x       y       z     vdW  Elec       q    Type
REMARK                         _______ _______ _______ _____ _____    ______ ____
ROOT
ATOM      1  C   LIG    1       -8.935   8.287   0.000  0.00  0.00    +0.174 C 
ATOM      2  O   LIG    1       -9.761   9.025   0.000  0.00  0.00    -0.221 OA
ATOM      3  C   LIG    1       -8.275   8.821   0.000  0.00  0.00    +0.047 C 
ENDROOT
TORSDOF 0
REMARK  Name = molecules/LDVRMNJZLWXJPL-JKQNMTHDSA-N.pdb
REMARK                            x       y       z     vdW  Elec       q    Type
REMARK                         _______ _______ _______ _____ _____    ______ ____
ROOT
ATOM      1  O   LIG    1      -10.809   3.522   0.000  0.00  0.00    -0.279 OA
ATOM      2  C   LIG    1      -11.460   3.256   0.000  0.00  0.00    +0.279 C 
ENDROOT
TORSDOF 0
REMARK  Name = molecules/LDVRMNJZLWXJPL-JKQNMTHDSA-N.pdb
REMARK                            x       y       z     vdW  Elec       q    Type
REMARK                         _______ _______ _______ _____ _____    ______ ____
ROOT
ATOM      1  C   LIG    1      -12.916   2.832   0.000  0.00  0.00    +0.000 C 
ENDROOT
TORSDOF 0
REMARK  Name = molecules/LDVRMNJZLWXJPL-JKQNMTHDSA-N.pdb
REMARK                            x       y       z     vdW  Elec       q    Type
REMARK                         _______ _______ _______ _____ _____    ______ ____
ROOT
ATOM      1  C   LIG    1      -15.285   4.672   0.000  0.00  0.00    +0.000 C 
ENDROOT
TORSDOF 0
REMARK  Name = molecules/LDVRMNJZLWXJPL-JKQNMTHDSA-N.pdb
REMARK                            x       y       z     vdW  Elec       q    Type
REMARK                         _______ _______ _______ _____ _____    ______ ____
ROOT
ATOM      1  C   LIG    1      -16.470   5.592   0.000  0.00  0.00    +0.004 C 
ATOM      2  C   LIG    1      -17.024   6.113   0.000  0.00  0.00    -0.016 C 
ATOM      3  C   LIG    1      -17.859   5.026   0.000  0.00  0.00    +0.012 C 
ENDROOT
TORSDOF 0
REMARK  Name = molecules/LDVRMNJZLWXJPL-JKQNMTHDSA-N.pdb
REMARK                            x       y       z     vdW  Elec       q    Type
REMARK                         _______ _______ _______ _____ _____    ______ ____
ROOT
ATOM      1  C   LIG    1      -16.266   7.078   0.000  0.00  0.00    +0.000 C 
ENDROOT
TORSDOF 0
REMARK  Name = molecules/LDVRMNJZLWXJPL-JKQNMTHDSA-N.pdb
REMARK                            x       y       z     vdW  Elec       q    Type
REMARK                         _______ _______ _______ _____ _____    ______ ____
ROOT
ATOM      1  C   LIG    1      -17.451   7.998   0.000  0.00  0.00    +0.030 C 
ATOM      2  C   LIG    1      -18.209   7.033   0.000  0.00  0.00    -0.065 C 
ATOM      3  C   LIG    1      -18.840   7.432   0.000  0.00  0.00    -0.023 C 
ATOM      4  C   LIG    1      -19.044   5.946   0.000  0.00  0.00    +0.030 C 
ENDROOT
BRANCH   3   5
ATOM      5  C   LIG    1      -19.157   8.802   0.000  0.00  0.00    +0.022 C 
ATOM      6  C   LIG    1      -17.701   8.444   0.000  0.00  0.00    +0.004 C 
ENDBRANCH   3   5
TORSDOF 1
REMARK  Name = molecules/LDVRMNJZLWXJPL-JKQNMTHDSA-N.pdb
REMARK                            x       y       z     vdW  Elec       q    Type
REMARK                         _______ _______ _______ _____ _____    ______ ____
ROOT
ATOM      1  C   LIG    1      -14.101   3.752   0.000  0.00  0.00    +0.169 C 
ATOM      2  O   LIG    1      -14.745   3.007   0.000  0.00  0.00    -0.379 OA
ATOM      3  H   LIG    1      -15.469   3.138   0.000  0.00  0.00    +0.211 HD
ENDROOT
TORSDOF 0
REMARK  Name = molecules/LDVRMNJZLWXJPL-JKQNMTHDSA-N.pdb
REMARK                            x       y       z     vdW  Elec       q    Type
REMARK                         _______ _______ _______ _____ _____    ______ ____
ROOT
ATOM      1  C   LIG    1      -12.038   0.307   0.000  0.00  0.00    -0.000 C 
ENDROOT
TORSDOF 0
REMARK  Name = molecules/LDVRMNJZLWXJPL-JKQNMTHDSA-N.pdb
REMARK                            x       y       z     vdW  Elec       q    Type
REMARK                         _______ _______ _______ _____ _____    ______ ____
ROOT
ATOM      1  O   LIG    1      -14.574   3.463   0.000  0.00  0.00    +0.000 OA
ATOM      2  O   LIG    1      -14.881   4.236   0.000  0.00  0.00    +0.000 OA
ENDROOT
TORSDOF 0
REMARK  Name = molecules/LDVRMNJZLWXJPL-JKQNMTHDSA-N.pdb
REMARK                            x       y       z     vdW  Elec       q    Type
REMARK                         _______ _______ _______ _____ _____    ______ ____
ROOT
ATOM      1  C   LIG    1      -21.228   1.922   0.000  0.00  0.00    +0.252 C 
ATOM      2  N   LIG    1      -22.413   2.842   0.000  0.00  0.00    -0.088 NA
ATOM      3  O   LIG    1      -21.432   0.436   0.000  0.00  0.00    -0.272 OA
ENDROOT
BRANCH   1   5
ATOM      4  C   LIG    1      -18.450   3.054   0.000  0.00  0.00    +0.006 C 
ATOM      5  C   LIG    1      -19.839   2.488   0.000  0.00  0.00    +0.103 C 
ENDBRANCH   1   5
TORSDOF 1
REMARK  Name = molecules/LDVRMNJZLWXJPL-JKQNMTHDSA-N.pdb
REMARK                            x       y       z     vdW  Elec       q    Type
REMARK                         _______ _______ _______ _____ _____    ______ ____
ROOT
ATOM      1  C   LIG    1      -17.061   3.620   0.000  0.00  0.00    +0.000 C 
ENDROOT
TORSDOF 0
REMARK  Name = molecules/LDVRMNJZLWXJPL-JKQNMTHDSA-N.pdb
REMARK                            x       y       z     vdW  Elec       q    Type
REMARK                         _______ _______ _______ _____ _____    ______ ____
ROOT
ATOM      1  C   LIG    1      -13.512   4.850   0.000  0.00  0.00    +0.000 C 
ENDROOT
TORSDOF 0
REMARK  Name = molecules/LDVRMNJZLWXJPL-JKQNMTHDSA-N.pdb
REMARK                            x       y       z     vdW  Elec       q    Type
REMARK                         _______ _______ _______ _____ _____    ______ ____
ROOT
ATOM      1  O   HOH    1      -13.255   8.194   0.000  0.00  0.00    -0.253 OA
ATOM      2  H   HOH    0      -12.867   7.124   0.000  0.00  0.00    +0.253 HD
ENDROOT
TORSDOF 0
REMARK  Name = molecules/LDVRMNJZLWXJPL-JKQNMTHDSA-N.pdb
REMARK                            x       y       z     vdW  Elec       q    Type
REMARK                         _______ _______ _______ _____ _____    ______ ____
ROOT
ATOM      1  C   LIG    1      -14.078   6.239   0.000  0.00  0.00    -0.000 C 
ENDROOT
TORSDOF 0
REMARK  Name = molecules/LDVRMNJZLWXJPL-JKQNMTHDSA-N.pdb
REMARK                            x       y       z     vdW  Elec       q    Type
REMARK                         _______ _______ _______ _____ _____    ______ ____
ROOT
ATOM      1  C   LIG    1      -14.644   7.628   0.000  0.00  0.00    +0.000 C 
ENDROOT
TORSDOF 0
REMARK  Name = molecules/LDVRMNJZLWXJPL-JKQNMTHDSA-N.pdb
REMARK                            x       y       z     vdW  Elec       q    Type
REMARK                         _______ _______ _______ _____ _____    ______ ____
ROOT
ATOM      1  C   LIG    1      -10.071   3.822   0.000  0.00  0.00    +0.176 C 
ATOM      2  O   LIG    1       -9.563   4.879   0.000  0.00  0.00    -0.386 OA
ATOM      3  H   LIG    1       -8.421   5.086   0.000  0.00  0.00    +0.210 HD
ENDROOT
TORSDOF 0
REMARK  Name = molecules/LDVRMNJZLWXJPL-JKQNMTHDSA-N.pdb
REMARK                            x       y       z     vdW  Elec       q    Type
REMARK                         _______ _______ _______ _____ _____    ______ ____
ROOT
ATOM      1  C   LIG    1      -12.849   2.690   0.000  0.00  0.00    +0.000 C 
ENDROOT
TORSDOF 0
REMARK  Name = molecules/LDVRMNJZLWXJPL-JKQNMTHDSA-N.pdb
REMARK                            x       y       z     vdW  Elec       q    Type
REMARK                         _______ _______ _______ _____ _____    ______ ____
ROOT
ATOM      1  C   LIG    1       -7.709   7.432   0.000  0.00  0.00    -0.000 C 
ENDROOT
TORSDOF 0
REMARK  Name = molecules/LDVRMNJZLWXJPL-JKQNMTHDSA-N.pdb
REMARK                            x       y       z     vdW  Elec       q    Type
REMARK                         _______ _______ _______ _____ _____    ______ ____
ROOT
ATOM      1  O   HOH    1       -9.868   9.436   0.000  0.00  0.00    -0.410 OA
ATOM      2  H   HOH    0      -10.835   9.508   0.000  0.00  0.00    +0.205 HD
ATOM      3  H   HOH    0       -8.861   9.785   0.000  0.00  0.00    +0.205 HD
ENDROOT
TORSDOF 0
REMARK  Name = molecules/LDVRMNJZLWXJPL-JKQNMTHDSA-N.pdb
REMARK                            x       y       z     vdW  Elec       q    Type
REMARK                         _______ _______ _______ _____ _____    ______ ____
ROOT
ATOM      1  C   LIG    1      -13.274  10.616   0.000  0.00  0.00    +0.169 C 
ATOM      2  O   LIG    1      -13.782   9.559   0.000  0.00  0.00    -0.379 OA
ATOM      3  H   LIG    1      -12.532   9.508   0.000  0.00  0.00    +0.211 HD
ENDROOT
TORSDOF 0
REMARK  Name = molecules/LDVRMNJZLWXJPL-JKQNMTHDSA-N.pdb
REMARK                            x       y       z     vdW  Elec       q    Type
REMARK                         _______ _______ _______ _____ _____    ______ ____
ROOT
ATOM      1  O   HOH    1      -12.932   9.155   0.000  0.00  0.00    -0.253 OA
ATOM      2  H   HOH    0      -13.763   9.409   0.000  0.00  0.00    +0.253 HD
ENDROOT
TORSDOF 0
REMARK  Name = molecules/LDVRMNJZLWXJPL-JKQNMTHDSA-N.pdb
REMARK                            x       y       z     vdW  Elec       q    Type
REMARK                         _______ _______ _______ _____ _____    ______ ____
ROOT
ATOM      1  C   LIG    1      -15.281   9.581   0.000  0.00  0.00    +0.000 C 
ENDROOT
TORSDOF 0
REMARK  Name = molecules/LDVRMNJZLWXJPL-JKQNMTHDSA-N.pdb
REMARK                            x       y       z     vdW  Elec       q    Type
REMARK                         _______ _______ _______ _____ _____    ______ ____
ROOT
ATOM      1  C   LIG    1      -15.784   6.955   0.000  0.00  0.00    +0.000 C 
ENDROOT
TORSDOF 0
REMARK  Name = molecules/LDVRMNJZLWXJPL-JKQNMTHDSA-N.pdb
REMARK                            x       y       z     vdW  Elec       q    Type
REMARK                         _______ _______ _______ _____ _____    ______ ____
ROOT
ATOM      1  O   HOH    1      -20.427   8.004   0.000  0.00  0.00    +0.000 OA
ENDROOT
TORSDOF 0
REMARK  Name = molecules/LDVRMNJZLWXJPL-JKQNMTHDSA-N.pdb
REMARK                            x       y       z     vdW  Elec       q    Type
REMARK                         _______ _______ _______ _____ _____    ______ ____
ROOT
ATOM      1  H   UNK    1       -4.816  -6.506   0.000  0.00  0.00    +0.000 HD
ENDROOT
TORSDOF 0
REMARK  Name = molecules/LDVRMNJZLWXJPL-JKQNMTHDSA-N.pdb
REMARK                            x       y       z     vdW  Elec       q    Type
REMARK                         _______ _______ _______ _____ _____    ______ ____
ROOT
ATOM      1  H   UNK    1       -2.191 -11.848   0.000  0.00  0.00    +0.000 HD
ENDROOT
TORSDOF 0
REMARK  Name = molecules/LDVRMNJZLWXJPL-JKQNMTHDSA-N.pdb
REMARK                            x       y       z     vdW  Elec       q    Type
REMARK                         _______ _______ _______ _____ _____    ______ ____
ROOT
ATOM      1  H   UNK    1      -13.511  -6.369   0.000  0.00  0.00    +0.000 HD
ENDROOT
TORSDOF 0
REMARK  Name = molecules/LDVRMNJZLWXJPL-JKQNMTHDSA-N.pdb
REMARK                            x       y       z     vdW  Elec       q    Type
REMARK                         _______ _______ _______ _____ _____    ______ ____
ROOT
ATOM      1  H   UNK    1      -15.948  -2.789   0.000  0.00  0.00    +0.000 HD
ENDROOT
TORSDOF 0
REMARK  Name = molecules/LDVRMNJZLWXJPL-JKQNMTHDSA-N.pdb
REMARK                            x       y       z     vdW  Elec       q    Type
REMARK                         _______ _______ _______ _____ _____    ______ ____
ROOT
ATOM      1  H   UNK    1      -10.750  -0.494   0.000  0.00  0.00    +0.000 HD
ENDROOT
TORSDOF 0
REMARK  Name = molecules/LDVRMNJZLWXJPL-JKQNMTHDSA-N.pdb
REMARK                            x       y       z     vdW  Elec       q    Type
REMARK                         _______ _______ _______ _____ _____    ______ ____
ROOT
ATOM      1  H   UNK    1      -17.552   1.167   0.000  0.00  0.00    +0.000 HD
ENDROOT
TORSDOF 0
REMARK  Name = molecules/LDVRMNJZLWXJPL-JKQNMTHDSA-N.pdb
REMARK                            x       y       z     vdW  Elec       q    Type
REMARK                         _______ _______ _______ _____ _____    ______ ____
ROOT
ATOM      1  H   UNK    1      -10.291  13.234   0.000  0.00  0.00    +0.000 HD
ENDROOT
TORSDOF 0
REMARK  Name = molecules/LDVRMNJZLWXJPL-JKQNMTHDSA-N.pdb
REMARK                            x       y       z     vdW  Elec       q    Type
REMARK                         _______ _______ _______ _____ _____    ______ ____
ROOT
ATOM      1  H   UNK    1      -14.075  12.986   0.000  0.00  0.00    +0.000 HD
ENDROOT
TORSDOF 0
REMARK  Name = molecules/LDVRMNJZLWXJPL-JKQNMTHDSA-N.pdb
REMARK                            x       y       z     vdW  Elec       q    Type
REMARK                         _______ _______ _______ _____ _____    ______ ____
ROOT
ATOM      1  H   UNK    1      -21.032  10.601   0.000  0.00  0.00    +0.000 HD
ENDROOT
TORSDOF 0
REMARK  Name = molecules/LDVRMNJZLWXJPL-JKQNMTHDSA-N.pdb
REMARK                            x       y       z     vdW  Elec       q    Type
REMARK                         _______ _______ _______ _____ _____    ______ ____
ROOT
ATOM      1  H   UNK    1      -18.676  11.444   0.000  0.00  0.00    +0.000 HD
ENDROOT
TORSDOF 0
REMARK  Name = molecules/LDVRMNJZLWXJPL-JKQNMTHDSA-N.pdb
REMARK                            x       y       z     vdW  Elec       q    Type
REMARK                         _______ _______ _______ _____ _____    ______ ____
ROOT
ATOM      1  H   UNK    1       -4.043  -7.277   0.000  0.00  0.00    +0.000 HD
ENDROOT
TORSDOF 0
REMARK  Name = molecules/LDVRMNJZLWXJPL-JKQNMTHDSA-N.pdb
REMARK                            x       y       z     vdW  Elec       q    Type
REMARK                         _______ _______ _______ _____ _____    ______ ____
ROOT
ATOM      1  H   UNK    1       -2.768 -20.489   0.000  0.00  0.00    +0.000 HD
ENDROOT
TORSDOF 0
REMARK  Name = molecules/LDVRMNJZLWXJPL-JKQNMTHDSA-N.pdb
REMARK                            x       y       z     vdW  Elec       q    Type
REMARK                         _______ _______ _______ _____ _____    ______ ____
ROOT
ATOM      1  H   UNK    1       -5.366 -20.489   0.000  0.00  0.00    +0.000 HD
ENDROOT
TORSDOF 0
REMARK  Name = molecules/LDVRMNJZLWXJPL-JKQNMTHDSA-N.pdb
REMARK                            x       y       z     vdW  Elec       q    Type
REMARK                         _______ _______ _______ _____ _____    ______ ____
ROOT
ATOM      1  H   UNK    1       -8.391 -21.031   0.000  0.00  0.00    +0.000 HD
ENDROOT
TORSDOF 0
REMARK  Name = molecules/LDVRMNJZLWXJPL-JKQNMTHDSA-N.pdb
REMARK                            x       y       z     vdW  Elec       q    Type
REMARK                         _______ _______ _______ _____ _____    ______ ____
ROOT
ATOM      1  H   UNK    1      -17.421 -16.430   0.000  0.00  0.00    +0.000 HD
ENDROOT
TORSDOF 0
REMARK  Name = molecules/LDVRMNJZLWXJPL-JKQNMTHDSA-N.pdb
REMARK                            x       y       z     vdW  Elec       q    Type
REMARK                         _______ _______ _______ _____ _____    ______ ____
ROOT
ATOM      1  H   UNK    1      -18.654 -10.547   0.000  0.00  0.00    +0.000 HD
ENDROOT
TORSDOF 0
REMARK  Name = molecules/LDVRMNJZLWXJPL-JKQNMTHDSA-N.pdb
REMARK                            x       y       z     vdW  Elec       q    Type
REMARK                         _______ _______ _______ _____ _____    ______ ____
ROOT
ATOM      1  H   UNK    1      -16.975 -11.611   0.000  0.00  0.00    +0.000 HD
ENDROOT
TORSDOF 0
REMARK  Name = molecules/LDVRMNJZLWXJPL-JKQNMTHDSA-N.pdb
REMARK                            x       y       z     vdW  Elec       q    Type
REMARK                         _______ _______ _______ _____ _____    ______ ____
ROOT
ATOM      1  H   UNK    1      -17.827  -6.834   0.000  0.00  0.00    +0.000 HD
ENDROOT
TORSDOF 0
REMARK  Name = molecules/LDVRMNJZLWXJPL-JKQNMTHDSA-N.pdb
REMARK                            x       y       z     vdW  Elec       q    Type
REMARK                         _______ _______ _______ _____ _____    ______ ____
ROOT
ATOM      1  H   UNK    1      -20.534  -8.530   0.000  0.00  0.00    +0.000 HD
ENDROOT
TORSDOF 0
REMARK  Name = molecules/LDVRMNJZLWXJPL-JKQNMTHDSA-N.pdb
REMARK                            x       y       z     vdW  Elec       q    Type
REMARK                         _______ _______ _______ _____ _____    ______ ____
ROOT
ATOM      1  H   UNK    1      -19.432 -10.185   0.000  0.00  0.00    +0.000 HD
ENDROOT
TORSDOF 0
REMARK  Name = molecules/LDVRMNJZLWXJPL-JKQNMTHDSA-N.pdb
REMARK                            x       y       z     vdW  Elec       q    Type
REMARK                         _______ _______ _______ _____ _____    ______ ____
ROOT
ATOM      1  H   UNK    1      -18.844  -7.249   0.000  0.00  0.00    +0.000 HD
ENDROOT
TORSDOF 0
REMARK  Name = molecules/LDVRMNJZLWXJPL-JKQNMTHDSA-N.pdb
REMARK                            x       y       z     vdW  Elec       q    Type
REMARK                         _______ _______ _______ _____ _____    ______ ____
ROOT
ATOM      1  H   UNK    1      -16.827   2.612   0.000  0.00  0.00    +0.000 HD
ENDROOT
TORSDOF 0
REMARK  Name = molecules/LDVRMNJZLWXJPL-JKQNMTHDSA-N.pdb
REMARK                            x       y       z     vdW  Elec       q    Type
REMARK                         _______ _______ _______ _____ _____    ______ ____
ROOT
ATOM      1  H   UNK    1      -18.003  -0.051   0.000  0.00  0.00    +0.000 HD
ENDROOT
TORSDOF 0
REMARK  Name = molecules/LDVRMNJZLWXJPL-JKQNMTHDSA-N.pdb
REMARK                            x       y       z     vdW  Elec       q    Type
REMARK                         _______ _______ _______ _____ _____    ______ ____
ROOT
ATOM      1  H   UNK    1      -15.771  -1.770   0.000  0.00  0.00    +0.000 HD
ENDROOT
TORSDOF 0
REMARK  Name = molecules/LDVRMNJZLWXJPL-JKQNMTHDSA-N.pdb
REMARK                            x       y       z     vdW  Elec       q    Type
REMARK                         _______ _______ _______ _____ _____    ______ ____
ROOT
ATOM      1  H   UNK    1      -10.690  -4.084   0.000  0.00  0.00    +0.000 HD
ENDROOT
TORSDOF 0
REMARK  Name = molecules/LDVRMNJZLWXJPL-JKQNMTHDSA-N.pdb
REMARK                            x       y       z     vdW  Elec       q    Type
REMARK                         _______ _______ _______ _____ _____    ______ ____
ROOT
ATOM      1  H   UNK    1       -9.001  -1.611   0.000  0.00  0.00    +0.000 HD
ENDROOT
TORSDOF 0
REMARK  Name = molecules/LDVRMNJZLWXJPL-JKQNMTHDSA-N.pdb
REMARK                            x       y       z     vdW  Elec       q    Type
REMARK                         _______ _______ _______ _____ _____    ______ ____
ROOT
ATOM      1  H   UNK    1       -7.361  -9.830   0.000  0.00  0.00    +0.000 HD
ENDROOT
TORSDOF 0
REMARK  Name = molecules/LDVRMNJZLWXJPL-JKQNMTHDSA-N.pdb
REMARK                            x       y       z     vdW  Elec       q    Type
REMARK                         _______ _______ _______ _____ _____    ______ ____
ROOT
ATOM      1  H   UNK    1       -9.588  -6.353   0.000  0.00  0.00    +0.000 HD
ENDROOT
TORSDOF 0
REMARK  Name = molecules/LDVRMNJZLWXJPL-JKQNMTHDSA-N.pdb
REMARK                            x       y       z     vdW  Elec       q    Type
REMARK                         _______ _______ _______ _____ _____    ______ ____
ROOT
ATOM      1  H   UNK    1        3.034  -8.093   0.000  0.00  0.00    +0.000 HD
ENDROOT
TORSDOF 0
REMARK  Name = molecules/LDVRMNJZLWXJPL-JKQNMTHDSA-N.pdb
REMARK                            x       y       z     vdW  Elec       q    Type
REMARK                         _______ _______ _______ _____ _____    ______ ____
ROOT
ATOM      1  H   UNK    1       -2.347  -0.614   0.000  0.00  0.00    +0.000 HD
ENDROOT
TORSDOF 0
REMARK  Name = molecules/LDVRMNJZLWXJPL-JKQNMTHDSA-N.pdb
REMARK                            x       y       z     vdW  Elec       q    Type
REMARK                         _______ _______ _______ _____ _____    ______ ____
ROOT
ATOM      1  H   UNK    1        1.296  -3.872   0.000  0.00  0.00    +0.000 HD
ENDROOT
TORSDOF 0
REMARK  Name = molecules/LDVRMNJZLWXJPL-JKQNMTHDSA-N.pdb
REMARK                            x       y       z     vdW  Elec       q    Type
REMARK                         _______ _______ _______ _____ _____    ______ ____
ROOT
ATOM      1  H   UNK    1       -4.479   3.634   0.000  0.00  0.00    +0.000 HD
ENDROOT
TORSDOF 0
REMARK  Name = molecules/LDVRMNJZLWXJPL-JKQNMTHDSA-N.pdb
REMARK                            x       y       z     vdW  Elec       q    Type
REMARK                         _______ _______ _______ _____ _____    ______ ____
ROOT
ATOM      1  H   UNK    1       -5.668  -2.018   0.000  0.00  0.00    +0.000 HD
ENDROOT
TORSDOF 0
REMARK  Name = molecules/LDVRMNJZLWXJPL-JKQNMTHDSA-N.pdb
REMARK                            x       y       z     vdW  Elec       q    Type
REMARK                         _______ _______ _______ _____ _____    ______ ____
ROOT
ATOM      1  H   UNK    1        1.356  -0.144   0.000  0.00  0.00    +0.000 HD
ENDROOT
TORSDOF 0
REMARK  Name = molecules/LDVRMNJZLWXJPL-JKQNMTHDSA-N.pdb
REMARK                            x       y       z     vdW  Elec       q    Type
REMARK                         _______ _______ _______ _____ _____    ______ ____
ROOT
ATOM      1  H   UNK    1        0.171   0.776   0.000  0.00  0.00    +0.000 HD
ENDROOT
TORSDOF 0
REMARK  Name = molecules/LDVRMNJZLWXJPL-JKQNMTHDSA-N.pdb
REMARK                            x       y       z     vdW  Elec       q    Type
REMARK                         _______ _______ _______ _____ _____    ______ ____
ROOT
ATOM      1  H   UNK    1       -1.014   1.696   0.000  0.00  0.00    +0.000 HD
ENDROOT
TORSDOF 0
REMARK  Name = molecules/LDVRMNJZLWXJPL-JKQNMTHDSA-N.pdb
REMARK                            x       y       z     vdW  Elec       q    Type
REMARK                         _______ _______ _______ _____ _____    ______ ____
ROOT
ATOM      1  H   UNK    1        4.195  -2.602   0.000  0.00  0.00    +0.000 HD
ENDROOT
TORSDOF 0
REMARK  Name = molecules/LDVRMNJZLWXJPL-JKQNMTHDSA-N.pdb
REMARK                            x       y       z     vdW  Elec       q    Type
REMARK                         _______ _______ _______ _____ _____    ______ ____
ROOT
ATOM      1  H   UNK    1        2.602  -4.654   0.000  0.00  0.00    +0.000 HD
ENDROOT
TORSDOF 0
REMARK  Name = molecules/LDVRMNJZLWXJPL-JKQNMTHDSA-N.pdb
REMARK                            x       y       z     vdW  Elec       q    Type
REMARK                         _______ _______ _______ _____ _____    ______ ____
ROOT
ATOM      1  H   UNK    1        2.541  -1.063   0.000  0.00  0.00    +0.000 HD
ENDROOT
TORSDOF 0
REMARK  Name = molecules/LDVRMNJZLWXJPL-JKQNMTHDSA-N.pdb
REMARK                            x       y       z     vdW  Elec       q    Type
REMARK                         _______ _______ _______ _____ _____    ______ ____
ROOT
ATOM      1  H   UNK    1       -5.428   6.999   0.000  0.00  0.00    +0.000 HD
ENDROOT
TORSDOF 0
REMARK  Name = molecules/LDVRMNJZLWXJPL-JKQNMTHDSA-N.pdb
REMARK                            x       y       z     vdW  Elec       q    Type
REMARK                         _______ _______ _______ _____ _____    ______ ____
ROOT
ATOM      1  H   UNK    1       -9.893   1.815   0.000  0.00  0.00    +0.000 HD
ENDROOT
TORSDOF 0
REMARK  Name = molecules/LDVRMNJZLWXJPL-JKQNMTHDSA-N.pdb
REMARK                            x       y       z     vdW  Elec       q    Type
REMARK                         _______ _______ _______ _____ _____    ______ ____
ROOT
ATOM      1  H   UNK    1      -18.417   3.633   0.000  0.00  0.00    +0.000 HD
ENDROOT
TORSDOF 0
REMARK  Name = molecules/LDVRMNJZLWXJPL-JKQNMTHDSA-N.pdb
REMARK                            x       y       z     vdW  Elec       q    Type
REMARK                         _______ _______ _______ _____ _____    ______ ____
ROOT
ATOM      1  H   UNK    1      -15.941   0.581   0.000  0.00  0.00    +0.000 HD
ENDROOT
TORSDOF 0
REMARK  Name = molecules/LDVRMNJZLWXJPL-JKQNMTHDSA-N.pdb
REMARK                            x       y       z     vdW  Elec       q    Type
REMARK                         _______ _______ _______ _____ _____    ______ ____
ROOT
ATOM      1  H   UNK    1      -11.269   1.596   0.000  0.00  0.00    +0.000 HD
ENDROOT
TORSDOF 0
REMARK  Name = molecules/LDVRMNJZLWXJPL-JKQNMTHDSA-N.pdb
REMARK                            x       y       z     vdW  Elec       q    Type
REMARK                         _______ _______ _______ _____ _____    ______ ____
ROOT
ATOM      1  H   UNK    1      -23.802   2.276   0.000  0.00  0.00    +0.000 HD
ENDROOT
TORSDOF 0
REMARK  Name = molecules/LDVRMNJZLWXJPL-JKQNMTHDSA-N.pdb
REMARK                            x       y       z     vdW  Elec       q    Type
REMARK                         _______ _______ _______ _____ _____    ______ ____
ROOT
ATOM      1  H   UNK    1      -22.208   4.328   0.000  0.00  0.00    +0.000 HD
ENDROOT
TORSDOF 0
REMARK  Name = molecules/LDVRMNJZLWXJPL-JKQNMTHDSA-N.pdb
REMARK                            x       y       z     vdW  Elec       q    Type
REMARK                         _______ _______ _______ _____ _____    ______ ____
ROOT
ATOM      1  H   UNK    1      -18.087   4.714   0.000  0.00  0.00    +0.000 HD
ENDROOT
TORSDOF 0
REMARK  Name = molecules/LDVRMNJZLWXJPL-JKQNMTHDSA-N.pdb
REMARK                            x       y       z     vdW  Elec       q    Type
REMARK                         _______ _______ _______ _____ _____    ______ ____
ROOT
ATOM      1  H   UNK    1       -6.517  -0.802   0.000  0.00  0.00    +0.000 HD
ENDROOT
TORSDOF 0
REMARK  Name = molecules/LDVRMNJZLWXJPL-JKQNMTHDSA-N.pdb
REMARK                            x       y       z     vdW  Elec       q    Type
REMARK                         _______ _______ _______ _____ _____    ______ ____
ROOT
ATOM      1  H   UNK    1       -8.997   0.175   0.000  0.00  0.00    +0.000 HD
ENDROOT
TORSDOF 0
REMARK  Name = molecules/LDVRMNJZLWXJPL-JKQNMTHDSA-N.pdb
REMARK                            x       y       z     vdW  Elec       q    Type
REMARK                         _______ _______ _______ _____ _____    ______ ____
ROOT
ATOM      1  H   UNK    1       -5.400   9.182   0.000  0.00  0.00    +0.000 HD
ENDROOT
TORSDOF 0
REMARK  Name = molecules/LDVRMNJZLWXJPL-JKQNMTHDSA-N.pdb
REMARK                            x       y       z     vdW  Elec       q    Type
REMARK                         _______ _______ _______ _____ _____    ______ ____
ROOT
ATOM      1  H   UNK    1      -17.862   9.935   0.000  0.00  0.00    +0.000 HD
ENDROOT
TORSDOF 0
REMARK  Name = molecules/LDVRMNJZLWXJPL-JKQNMTHDSA-N.pdb
REMARK                            x       y       z     vdW  Elec       q    Type
REMARK                         _______ _______ _______ _____ _____    ______ ____
ROOT
ATOM      1  H   UNK    1      -19.285   5.987   0.000  0.00  0.00    +0.000 HD
ENDROOT
TORSDOF 0
REMARK  Name = molecules/LDVRMNJZLWXJPL-JKQNMTHDSA-N.pdb
REMARK                            x       y       z     vdW  Elec       q    Type
REMARK                         _______ _______ _______ _____ _____    ______ ____
ROOT
ATOM      1  H   UNK    1      -14.474   7.686   0.000  0.00  0.00    +0.000 HD
ENDROOT
TORSDOF 0
