REMARK  Name = molecules/LECZXZOBEZITCL-INIZCTEOSA-N.pdb
REMARK                            x       y       z     vdW  Elec       q    Type
REMARK                         _______ _______ _______ _____ _____    ______ ____
ROOT
ATOM      1  C   LIG    1       -0.185  -0.472   0.008  0.00  0.00    +0.130 A 
ATOM      2  N   LIG    1        0.787   0.271   0.579  0.00  0.00    -0.199 NA
ATOM      3  C   LIG    1        2.120   0.071   0.319  0.00  0.00    +0.221 A 
ATOM      4  N   LIG    1        2.368  -0.911  -0.538  0.00  0.00    -0.219 NA
ATOM      5  C   LIG    1        1.450  -1.685  -1.139  0.00  0.00    +0.048 A 
ATOM      6  C   LIG    1        1.844  -2.740  -2.067  0.00  0.00    +0.066 C 
ATOM      7  C   LIG    1        0.132  -1.476  -0.873  0.00  0.00    +0.011 A 
ATOM      8  C   LIG    1       -0.885  -2.297  -1.517  0.00  0.00    +0.049 C 
ENDROOT
BRANCH   1  15
ATOM      9  C   LIG    1       -5.317   2.673   0.878  0.00  0.00    +0.000 A 
ATOM     10  C   LIG    1       -6.127   1.615   1.220  0.00  0.00    +0.000 A 
ATOM     11  C   LIG    1       -5.632   0.345   1.139  0.00  0.00    +0.004 A 
ATOM     12  C   LIG    1       -4.326   0.114   0.717  0.00  0.00    -0.041 A 
ATOM     13  C   LIG    1       -3.773  -1.251   0.621  0.00  0.00    +0.054 C 
ATOM     14  C   LIG    1       -2.303  -1.283   0.944  0.00  0.00    +0.112 C 
ATOM     15  N   LIG    1       -1.560  -0.247   0.300  0.00  0.00    -0.308 N 
ATOM     16  C   LIG    1       -2.116   1.033  -0.082  0.00  0.00    +0.102 C 
ATOM     17  C   LIG    1       -2.037   1.153  -1.578  0.00  0.00    +0.033 C 
ATOM     18  C   LIG    1       -3.523   1.176   0.378  0.00  0.00    -0.024 A 
ATOM     19  C   LIG    1       -4.014   2.469   0.456  0.00  0.00    +0.006 A 
ENDBRANCH   1  15
BRANCH   3  20
ATOM     20  N   LIG    1        3.066   0.903   0.967  0.00  0.00    -0.284 N 
ATOM     21  H   LIG    1        2.717   1.661   1.638  0.00  0.00    +0.155 HD
BRANCH  20  22
ATOM     22  C   LIG    1        4.446   0.824   0.814  0.00  0.00    +0.034 A 
ATOM     23  C   LIG    1        5.266   1.802   1.372  0.00  0.00    +0.026 A 
ATOM     24  C   LIG    1        6.638   1.780   1.244  0.00  0.00    +0.040 A 
ATOM     25  C   LIG    1        7.249   0.775   0.550  0.00  0.00    +0.124 A 
ATOM     26  F   LIG    1        8.595   0.783   0.443  0.00  0.00    -0.205 F 
ATOM     27  C   LIG    1        6.486  -0.202  -0.012  0.00  0.00    +0.040 A 
ATOM     28  C   LIG    1        5.085  -0.173   0.123  0.00  0.00    +0.026 A 
ENDBRANCH  20  22
ENDBRANCH   3  20
TORSDOF 3
