REMARK  Name = molecules/LENNRXOJHWNHSD-OIBJUYFYSA-N.pdb
REMARK                            x       y       z     vdW  Elec       q    Type
REMARK                         _______ _______ _______ _____ _____    ______ ____
ROOT
ATOM      1  C   LIG    1        0.857  -0.121  -0.485  0.00  0.00    -0.014 A 
ATOM      2  C   LIG    1        0.959   0.987   0.329  0.00  0.00    +0.010 A 
ATOM      3  C   LIG    1        2.089   1.171   1.088  0.00  0.00    +0.049 A 
ATOM      4  C   LIG    1        3.137   0.283   1.069  0.00  0.00    +0.158 A 
ATOM      5  C   LIG    1        3.050  -0.833   0.257  0.00  0.00    +0.159 A 
ATOM      6  C   LIG    1        1.924  -1.023  -0.504  0.00  0.00    +0.055 A 
ENDROOT
BRANCH   4   7
ATOM      7  O   LIG    1        4.287   0.480   1.848  0.00  0.00    -0.503 OA
ATOM      8  H   LIG    1        4.346   1.295   2.439  0.00  0.00    +0.292 HD
ENDBRANCH   4   7
BRANCH   5   9
ATOM      9  O   LIG    1        4.079  -1.768   0.194  0.00  0.00    -0.503 OA
ATOM     10  H   LIG    1        3.988  -2.567  -0.403  0.00  0.00    +0.292 HD
ENDBRANCH   5   9
BRANCH   1  11
ATOM     11  C   LIG    1       -0.336  -0.372  -1.338  0.00  0.00    +0.161 C 
BRANCH  11  12
ATOM     12  O   LIG    1       -0.624  -1.746  -1.299  0.00  0.00    -0.386 OA
ATOM     13  H   LIG    1       -0.572  -2.086  -0.361  0.00  0.00    +0.210 HD
ENDBRANCH  11  12
BRANCH  11  14
ATOM     14  C   LIG    1       -1.548   0.414  -0.916  0.00  0.00    +0.084 C 
BRANCH  14  15
ATOM     15  N   LIG    1       -2.641   0.122  -1.856  0.00  0.00    -0.325 NA
ATOM     16  H   LIG    1       -3.394  -0.427  -1.428  0.00  0.00    +0.119 HD
ATOM     17  H   LIG    1       -2.921   0.942  -2.404  0.00  0.00    +0.119 HD
ENDBRANCH  14  15
BRANCH  14  18
ATOM     18  C   LIG    1       -1.990  -0.086   0.467  0.00  0.00    +0.018 C 
ATOM     19  C   LIG    1       -3.208   0.698   0.908  0.00  0.00    +0.005 C 
ENDBRANCH  14  18
ENDBRANCH  11  14
ENDBRANCH   1  11
TORSDOF 7
