REMARK  Name = molecules/LEQAKWQJCITZNK-AXHKHJLKSA-N.pdb
REMARK                            x       y       z     vdW  Elec       q    Type
REMARK                         _______ _______ _______ _____ _____    ______ ____
ROOT
ATOM      1  C   LIG    1       -0.456   0.129   0.804  0.00  0.00    +0.170 A 
ATOM      2  C   LIG    1        0.911   0.152   0.553  0.00  0.00    +0.204 A 
ATOM      3  C   LIG    1        1.535  -0.831  -0.195  0.00  0.00    +0.169 A 
ATOM      4  C   LIG    1        0.732  -1.888  -0.717  0.00  0.00    +0.053 A 
ATOM      5  C   LIG    1       -0.572  -1.925  -0.484  0.00  0.00    -0.036 A 
ATOM      6  C   LIG    1       -1.348  -3.050  -1.099  0.00  0.00    +0.038 C 
ATOM      7  C   LIG    1       -2.426  -2.389  -1.904  0.00  0.00    +0.031 C 
ATOM      8  C   LIG    1       -3.714  -2.062  -1.235  0.00  0.00    +0.101 C 
ATOM      9  C   LIG    1       -3.652  -1.212  -0.045  0.00  0.00    -0.030 C 
ATOM     10  C   LIG    1       -2.553  -0.845   0.704  0.00  0.00    +0.058 C 
ATOM     11  C   LIG    1       -2.409  -0.371   2.007  0.00  0.00    -0.012 C 
ATOM     12  C   LIG    1       -3.416   0.237   2.715  0.00  0.00    -0.003 C 
ATOM     13  C   LIG    1       -4.779   0.335   2.417  0.00  0.00    +0.121 C 
ATOM     14  C   LIG    1       -5.444  -0.128   1.302  0.00  0.00    +0.178 C 
ATOM     15  O   LIG    1       -6.671   0.141   1.283  0.00  0.00    -0.291 OA
ATOM     16  C   LIG    1       -4.950  -0.846   0.202  0.00  0.00    +0.050 C 
ATOM     17  C   LIG    1       -1.165  -0.910   0.285  0.00  0.00    +0.017 A 
ENDROOT
BRANCH   8  18
ATOM     18  N   LIG    1       -4.443  -1.279  -2.250  0.00  0.00    -0.309 N 
ATOM     19  H   LIG    1       -4.008  -0.350  -2.457  0.00  0.00    +0.149 HD
ATOM     20  C   LIG    1       -5.598  -1.701  -2.892  0.00  0.00    +0.210 C 
ATOM     21  O   LIG    1       -6.099  -2.814  -2.630  0.00  0.00    -0.276 OA
ATOM     22  C   LIG    1       -6.255  -0.841  -3.895  0.00  0.00    +0.109 C 
ENDBRANCH   8  18
BRANCH   1  23
ATOM     23  O   LIG    1       -1.078   1.112   1.532  0.00  0.00    -0.491 OA
ATOM     24  C   LIG    1       -1.590   2.304   0.946  0.00  0.00    +0.277 C 
ENDBRANCH   1  23
BRANCH   2  25
ATOM     25  O   LIG    1        1.662   1.199   1.072  0.00  0.00    -0.488 OA
ATOM     26  C   LIG    1        1.800   2.455   0.418  0.00  0.00    +0.277 C 
ENDBRANCH   2  25
BRANCH  13  27
ATOM     27  S   LIG    1       -5.764   1.171   3.646  0.00  0.00    -0.143 S 
ATOM     28  C   LIG    1       -4.785   1.733   5.035  0.00  0.00    +0.085 C 
ENDBRANCH  13  27
BRANCH   3  29
ATOM     29  O   LIG    1        2.842  -0.922  -0.502  0.00  0.00    -0.457 OA
BRANCH  29  30
ATOM     30  C   LIG    1        3.929  -0.207  -0.165  0.00  0.00    +0.339 C 
ATOM     31  C   LIG    1        5.071  -1.092   0.385  0.00  0.00    +0.214 C 
ATOM     32  C   LIG    1        6.177  -0.160   0.798  0.00  0.00    +0.180 C 
ATOM     33  C   LIG    1        6.582   0.614  -0.446  0.00  0.00    +0.177 C 
ATOM     34  C   LIG    1        5.350   1.378  -0.907  0.00  0.00    +0.179 C 
ATOM     35  O   LIG    1        4.406   0.453  -1.329  0.00  0.00    -0.331 OA
BRANCH  31  36
ATOM     36  O   LIG    1        4.576  -1.730   1.496  0.00  0.00    -0.383 OA
ATOM     37  H   LIG    1        4.093  -2.575   1.293  0.00  0.00    +0.210 HD
ENDBRANCH  31  36
BRANCH  32  38
ATOM     38  O   LIG    1        7.272  -0.836   1.319  0.00  0.00    -0.386 OA
ATOM     39  H   LIG    1        7.205  -1.782   0.991  0.00  0.00    +0.210 HD
ENDBRANCH  32  38
BRANCH  33  40
ATOM     40  O   LIG    1        7.539   1.534  -0.097  0.00  0.00    -0.386 OA
ATOM     41  H   LIG    1        8.411   1.322  -0.490  0.00  0.00    +0.210 HD
ENDBRANCH  33  40
BRANCH  34  42
ATOM     42  C   LIG    1        5.699   2.229  -2.121  0.00  0.00    +0.190 C 
BRANCH  42  43
ATOM     43  O   LIG    1        6.654   3.179  -1.722  0.00  0.00    -0.392 OA
ATOM     44  H   LIG    1        6.255   3.864  -1.143  0.00  0.00    +0.210 HD
ENDBRANCH  42  43
ENDBRANCH  34  42
ENDBRANCH  29  30
ENDBRANCH   3  29
TORSDOF 11
