REMARK  Name = molecules/LFAXYIHYMGEIHW-UHFFFAOYSA-N.pdb
REMARK                            x       y       z     vdW  Elec       q    Type
REMARK                         _______ _______ _______ _____ _____    ______ ____
ROOT
ATOM      1  C   LIG    1       -0.232  -1.000   0.134  0.00  0.00    +0.263 C 
ATOM      2  N   LIG    1        0.288  -0.494   1.355  0.00  0.00    -0.181 N 
ATOM      3  H   LIG    1       -0.295   0.106   1.973  0.00  0.00    +0.177 HD
ATOM      4  O   LIG    1        0.495  -1.731  -0.605  0.00  0.00    -0.269 OA
ENDROOT
BRANCH   1   5
ATOM      5  C   LIG    1       -1.574  -0.716  -0.317  0.00  0.00    +0.038 A 
ATOM      6  C   LIG    1       -2.362   0.209   0.323  0.00  0.00    +0.016 A 
ATOM      7  C   LIG    1       -3.670   0.478  -0.111  0.00  0.00    -0.047 A 
ATOM      8  C   LIG    1       -4.506   1.473   0.588  0.00  0.00    +0.044 C 
ATOM      9  C   LIG    1       -4.179  -0.184  -1.187  0.00  0.00    -0.047 A 
ATOM     10  C   LIG    1       -5.548   0.086  -1.661  0.00  0.00    +0.044 C 
ATOM     11  C   LIG    1       -3.406  -1.124  -1.854  0.00  0.00    +0.004 A 
ATOM     12  C   LIG    1       -2.114  -1.374  -1.405  0.00  0.00    +0.013 A 
ENDBRANCH   1   5
BRANCH   2  13
ATOM     13  S   LIG    1        1.885  -0.835   1.887  0.00  0.00    +0.075 S 
ATOM     14  O   LIG    1        2.055  -0.331   3.298  0.00  0.00    -0.150 OA
ATOM     15  O   LIG    1        1.966  -2.355   2.010  0.00  0.00    -0.150 OA
BRANCH  13  16
ATOM     16  C   LIG    1        3.118  -0.268   0.834  0.00  0.00    +0.109 A 
ATOM     17  C   LIG    1        3.668   0.982   0.963  0.00  0.00    +0.030 A 
ATOM     18  C   LIG    1        4.676   1.424   0.096  0.00  0.00    +0.024 A 
ATOM     19  C   LIG    1        5.132   0.602  -0.909  0.00  0.00    +0.025 A 
ATOM     20  C   LIG    1        4.585  -0.656  -1.046  0.00  0.00    +0.024 A 
ATOM     21  C   LIG    1        3.588  -1.074  -0.177  0.00  0.00    +0.030 A 
BRANCH  19  22
ATOM     22  N   LIG    1        6.163   1.053  -1.798  0.00  0.00    -0.358 N 
ATOM     23  H   LIG    1        6.352   2.044  -2.009  0.00  0.00    +0.142 HD
ATOM     24  H   LIG    1        6.752   0.324  -2.252  0.00  0.00    +0.142 HD
ENDBRANCH  19  22
ENDBRANCH  13  16
ENDBRANCH   2  13
TORSDOF 4
