REMARK  Name = molecules/LFTFGCDECFPSQD-LLVKDONJSA-N.pdb
REMARK                            x       y       z     vdW  Elec       q    Type
REMARK                         _______ _______ _______ _____ _____    ______ ____
ROOT
ATOM      1  C   LIG    1       -0.176   1.972  -0.631  0.00  0.00    +0.261 C 
ENDROOT
BRANCH   1   2
ATOM      2  O   LIG    1       -0.610   0.656  -0.360  0.00  0.00    -0.486 OA
BRANCH   2   3
ATOM      3  C   LIG    1       -1.960   0.478  -0.105  0.00  0.00    +0.162 A 
ATOM      4  C   LIG    1       -2.425  -0.789   0.166  0.00  0.00    +0.161 A 
ATOM      5  C   LIG    1       -3.784  -1.002   0.429  0.00  0.00    +0.049 A 
ATOM      6  C   LIG    1       -4.676   0.049   0.422  0.00  0.00    +0.004 A 
ATOM      7  C   LIG    1       -4.205   1.317   0.150  0.00  0.00    +0.004 A 
ATOM      8  C   LIG    1       -2.870   1.539  -0.110  0.00  0.00    +0.049 A 
BRANCH   4   9
ATOM      9  O   LIG    1       -1.511  -1.835   0.169  0.00  0.00    -0.491 OA
ATOM     10  C   LIG    1       -1.979  -3.146   0.447  0.00  0.00    +0.277 C 
ENDBRANCH   4   9
ENDBRANCH   2   3
ENDBRANCH   1   2
BRANCH   1  11
ATOM     11  C   LIG    1        1.302   2.073  -0.895  0.00  0.00    +0.166 C 
BRANCH  11  12
ATOM     12  O   LIG    1        1.691   1.317  -1.981  0.00  0.00    -0.387 OA
ATOM     13  H   LIG    1        0.962   0.799  -2.382  0.00  0.00    +0.210 HD
ENDBRANCH  11  12
BRANCH  11  14
ATOM     14  C   LIG    1        2.100   1.807   0.361  0.00  0.00    +0.115 C 
BRANCH  14  15
ATOM     15  N   LIG    1        2.031   0.465   0.821  0.00  0.00    -0.311 NA
ATOM     16  H   LIG    1        2.167   0.323   1.825  0.00  0.00    +0.122 HD
BRANCH  15  17
ATOM     17  C   LIG    1        2.660  -0.527   0.019  0.00  0.00    +0.048 C 
ATOM     18  C   LIG    1        2.497  -1.857   0.777  0.00  0.00    +0.023 C 
ATOM     19  C   LIG    1        4.156  -0.328  -0.119  0.00  0.00    +0.023 C 
ENDBRANCH  15  17
ENDBRANCH  14  15
ENDBRANCH  11  14
ENDBRANCH   1  11
TORSDOF 8
