REMARK  Name = molecules/LGAJOMLFGCSBFF-OLXDQKQCSA-N.pdb
REMARK                            x       y       z     vdW  Elec       q    Type
REMARK                         _______ _______ _______ _____ _____    ______ ____
ROOT
ATOM      1  C   LIG    1       -4.523  -0.109   1.083  0.00  0.00    +0.263 C 
ATOM      2  O   LIG    1       -5.387   0.714   1.575  0.00  0.00    -0.267 OA
ATOM      3  N   LIG    1       -3.388   0.371   0.398  0.00  0.00    -0.280 N 
ATOM      4  C   LIG    1       -3.223   1.716   0.156  0.00  0.00    +0.057 A 
ATOM      5  C   LIG    1       -3.973   2.842   0.416  0.00  0.00    +0.030 A 
ATOM      6  C   LIG    1       -3.512   4.098   0.030  0.00  0.00    +0.048 A 
ATOM      7  C   LIG    1       -2.308   4.235  -0.614  0.00  0.00    +0.121 A 
ATOM      8  C   LIG    1       -1.575   3.108  -0.866  0.00  0.00    +0.056 A 
ATOM      9  C   LIG    1       -2.018   1.837  -0.487  0.00  0.00    +0.008 A 
ATOM     10  C   LIG    1       -1.437   0.606  -0.647  0.00  0.00    -0.010 A 
ATOM     11  C   LIG    1       -2.334  -0.290  -0.074  0.00  0.00    +0.028 A 
ATOM     12  C   LIG    1       -2.050  -1.755  -0.024  0.00  0.00    +0.064 C 
ENDROOT
BRANCH   1  13
ATOM     13  C   LIG    1       -4.878  -1.496   1.326  0.00  0.00    +0.040 A 
ATOM     14  C   LIG    1       -5.079  -1.959   2.629  0.00  0.00    +0.015 A 
ATOM     15  C   LIG    1       -5.416  -3.267   2.859  0.00  0.00    +0.021 A 
ATOM     16  C   LIG    1       -5.560  -4.135   1.806  0.00  0.00    +0.041 A 
ATOM     17 CL   LIG    1       -5.994  -5.829   2.074  0.00  0.00    -0.084 Cl
ATOM     18  C   LIG    1       -5.360  -3.670   0.514  0.00  0.00    +0.021 A 
ATOM     19  C   LIG    1       -5.021  -2.361   0.269  0.00  0.00    +0.015 A 
ENDBRANCH   1  13
BRANCH   7  20
ATOM     20  O   LIG    1       -1.834   5.465  -1.003  0.00  0.00    -0.495 OA
ATOM     21  C   LIG    1       -2.618   6.610  -0.727  0.00  0.00    +0.277 C 
ENDBRANCH   7  20
BRANCH  10  22
ATOM     22  C   LIG    1       -0.154   0.281  -1.269  0.00  0.00    +0.133 C 
BRANCH  22  23
ATOM     23  C   LIG    1        0.927   0.007  -0.315  0.00  0.00    +0.218 C 
ATOM     24  O   LIG    1        0.714   0.078   0.909  0.00  0.00    -0.275 OA
ATOM     25  N   LIG    1        2.210  -0.338  -0.775  0.00  0.00    -0.305 N 
ATOM     26  H   LIG    1        2.364  -0.393  -1.805  0.00  0.00    +0.149 HD
BRANCH  25  27
ATOM     27  C   LIG    1        3.323  -0.619   0.121  0.00  0.00    +0.160 C 
ATOM     28  C   LIG    1        3.831  -2.025   0.020  0.00  0.00    +0.270 C 
ATOM     29  O   LIG    1        5.230  -2.039   0.241  0.00  0.00    -0.341 OA
ATOM     30  C   LIG    1        5.825  -1.576  -0.946  0.00  0.00    +0.178 C 
ATOM     31  C   LIG    1        5.316  -0.205  -1.306  0.00  0.00    +0.176 C 
ATOM     32  C   LIG    1        4.464   0.321  -0.192  0.00  0.00    +0.171 C 
BRANCH  31  33
ATOM     33  O   LIG    1        4.681  -0.213  -2.537  0.00  0.00    -0.387 OA
ATOM     34  H   LIG    1        5.080  -0.894  -3.138  0.00  0.00    +0.210 HD
ENDBRANCH  31  33
BRANCH  28  35
ATOM     35  O   LIG    1        3.656  -2.588  -1.245  0.00  0.00    -0.365 OA
ATOM     36  H   LIG    1        2.853  -3.163  -1.187  0.00  0.00    +0.213 HD
ENDBRANCH  28  35
BRANCH  32  37
ATOM     37  O   LIG    1        5.297   0.435   0.941  0.00  0.00    -0.387 OA
ATOM     38  H   LIG    1        5.812   1.267   0.939  0.00  0.00    +0.210 HD
ENDBRANCH  32  37
BRANCH  30  39
ATOM     39  C   LIG    1        7.319  -1.540  -0.769  0.00  0.00    +0.190 C 
BRANCH  39  40
ATOM     40  O   LIG    1        7.633  -0.689   0.272  0.00  0.00    -0.392 OA
ATOM     41  H   LIG    1        8.336  -0.036   0.067  0.00  0.00    +0.210 HD
ENDBRANCH  39  40
ENDBRANCH  30  39
ENDBRANCH  25  27
ENDBRANCH  22  23
ENDBRANCH  10  22
TORSDOF 10
