REMARK  Name = molecules/LGLFFNDHMLKUMI-UHFFFAOYSA-N.pdb
REMARK                            x       y       z     vdW  Elec       q    Type
REMARK                         _______ _______ _______ _____ _____    ______ ____
ROOT
ATOM      1  C   LIG    1        0.023   0.045  -0.052  0.00  0.00    +0.063 C 
ENDROOT
BRANCH   1   5
ATOM      2  C   LIG    1        3.860  -1.577   0.128  0.00  0.00    +0.029 A 
ATOM      3  C   LIG    1        2.923  -1.957   1.084  0.00  0.00    +0.023 A 
ATOM      4  C   LIG    1        1.654  -1.424   0.994  0.00  0.00    +0.007 A 
ATOM      5  C   LIG    1        1.365  -0.548  -0.022  0.00  0.00    -0.031 A 
ATOM      6  C   LIG    1        2.299  -0.184  -0.959  0.00  0.00    +0.007 A 
ATOM      7  C   LIG    1        3.569  -0.700  -0.892  0.00  0.00    +0.023 A 
BRANCH   2   9
ATOM      8  C   LIG    1        5.342  -3.559   0.053  0.00  0.00    +0.129 C 
ATOM      9  N   LIG    1        5.166  -2.148   0.246  0.00  0.00    -0.336 N 
ATOM     10  C   LIG    1        6.267  -1.254   0.550  0.00  0.00    +0.129 C 
ENDBRANCH   2   9
ENDBRANCH   1   5
BRANCH   1  11
ATOM     11  C   LIG    1       -0.157   1.355  -0.023  0.00  0.00    -0.031 A 
ATOM     12  C   LIG    1        0.986   2.253   0.055  0.00  0.00    +0.007 A 
ATOM     13  C   LIG    1        0.804   3.561   0.040  0.00  0.00    +0.023 A 
ATOM     14  C   LIG    1       -0.515   4.186  -0.053  0.00  0.00    +0.029 A 
ATOM     15  C   LIG    1       -1.631   3.247  -0.130  0.00  0.00    +0.023 A 
ATOM     16  C   LIG    1       -1.482   1.934  -0.117  0.00  0.00    +0.007 A 
BRANCH  14  17
ATOM     17  N   LIG    1       -0.674   5.459  -0.054  0.00  0.00    -0.336 N 
ATOM     18  C   LIG    1        0.460   6.343   0.039  0.00  0.00    +0.129 C 
ATOM     19  C   LIG    1       -1.989   6.034  -0.150  0.00  0.00    +0.129 C 
ENDBRANCH  14  17
ENDBRANCH   1  11
BRANCH   1  20
ATOM     20  C   LIG    1       -1.128  -0.833  -0.047  0.00  0.00    -0.031 A 
ATOM     21  C   LIG    1       -2.128  -0.689   0.912  0.00  0.00    +0.007 A 
ATOM     22  C   LIG    1       -3.203  -1.545   0.830  0.00  0.00    +0.023 A 
ATOM     23  C   LIG    1       -3.338  -2.525  -0.138  0.00  0.00    +0.029 A 
ATOM     24  C   LIG    1       -2.312  -2.616  -1.058  0.00  0.00    +0.023 A 
ATOM     25  C   LIG    1       -1.213  -1.789  -1.028  0.00  0.00    +0.007 A 
BRANCH  23  26
ATOM     26  N   LIG    1       -4.475  -3.361  -0.161  0.00  0.00    -0.336 N 
ATOM     27  C   LIG    1       -5.503  -3.195   0.836  0.00  0.00    +0.129 C 
ATOM     28  C   LIG    1       -4.632  -4.383  -1.168  0.00  0.00    +0.129 C 
ENDBRANCH  23  26
ENDBRANCH   1  20
TORSDOF 6
