REMARK  Name = molecules/LHHCSNFAOIFYRV-MUPNANLLSA-N.pdb
REMARK                            x       y       z     vdW  Elec       q    Type
REMARK                         _______ _______ _______ _____ _____    ______ ____
ROOT
ATOM      1  C   LIG    1       -0.105  -0.481  -2.357  0.00  0.00    +0.113 C 
ATOM      2  N   LIG    1        0.117  -0.379  -0.937  0.00  0.00    -0.288 N 
ATOM      3  C   LIG    1       -0.781   0.133   0.009  0.00  0.00    +0.237 C 
ATOM      4  O   LIG    1       -0.410   0.137   1.243  0.00  0.00    -0.274 OA
ATOM      5  C   LIG    1        1.435  -0.922  -0.627  0.00  0.00    +0.166 C 
ATOM      6  C   LIG    1        1.734  -1.890  -1.721  0.00  0.00    +0.030 C 
ATOM      7  C   LIG    1        0.726  -2.886  -2.163  0.00  0.00    -0.025 C 
ATOM      8  C   LIG    1       -0.484  -3.222  -1.356  0.00  0.00    +0.011 C 
ATOM      9  C   LIG    1        1.297  -4.032  -2.985  0.00  0.00    +0.011 C 
ATOM     10  C   LIG    1        0.843  -1.552  -2.831  0.00  0.00    +0.018 C 
ENDROOT
BRANCH   5  11
ATOM     11  C   LIG    1        2.470   0.128  -0.530  0.00  0.00    +0.234 C 
ATOM     12  N   LIG    1        3.841  -0.217  -0.441  0.00  0.00    -0.304 N 
ATOM     13  H   LIG    1        4.067  -1.256  -0.456  0.00  0.00    +0.149 HD
ATOM     14  O   LIG    1        2.050   1.330  -0.535  0.00  0.00    -0.274 OA
BRANCH  12  15
ATOM     15  C   LIG    1        4.940   0.714  -0.333  0.00  0.00    +0.149 C 
BRANCH  15  16
ATOM     16  C   LIG    1        5.552   1.046  -1.612  0.00  0.00    +0.237 C 
ATOM     17  O   LIG    1        5.014   0.529  -2.647  0.00  0.00    -0.285 OA
BRANCH  16  18
ATOM     18  C   LIG    1        6.700   1.895  -1.821  0.00  0.00    +0.279 C 
ATOM     19  O   LIG    1        7.370   2.462  -0.922  0.00  0.00    -0.267 OA
ATOM     20  N   LIG    1        7.169   2.155  -3.161  0.00  0.00    -0.323 N 
ATOM     21  H   LIG    1        7.396   3.108  -3.506  0.00  0.00    +0.145 HD
ATOM     22  H   LIG    1        7.281   1.349  -3.807  0.00  0.00    +0.145 HD
ENDBRANCH  16  18
ENDBRANCH  15  16
BRANCH  15  23
ATOM     23  C   LIG    1        4.583   1.981   0.408  0.00  0.00    +0.034 C 
BRANCH  23  24
ATOM     24  C   LIG    1        4.197   1.834   1.824  0.00  0.00    -0.009 C 
ATOM     25  C   LIG    1        5.314   1.262   2.734  0.00  0.00    +0.003 C 
ATOM     26  C   LIG    1        4.129   0.827   3.630  0.00  0.00    +0.001 C 
ATOM     27  C   LIG    1        3.408   0.622   2.269  0.00  0.00    +0.003 C 
ENDBRANCH  23  24
ENDBRANCH  15  23
ENDBRANCH  12  15
ENDBRANCH   5  11
BRANCH   3  28
ATOM     28  C   LIG    1       -2.133   0.675  -0.229  0.00  0.00    +0.166 C 
BRANCH  28  29
ATOM     29  N   LIG    1       -2.930   0.420   1.000  0.00  0.00    -0.288 N 
ATOM     30  H   LIG    1       -2.646   0.834   1.897  0.00  0.00    +0.151 HD
ATOM     31  C   LIG    1       -4.077  -0.397   0.926  0.00  0.00    +0.301 C 
ATOM     32  N   LIG    1       -4.894  -0.689   2.041  0.00  0.00    -0.295 N 
ATOM     33  H   LIG    1       -4.649  -0.280   2.984  0.00  0.00    +0.151 HD
ATOM     34  O   LIG    1       -4.436  -0.921  -0.182  0.00  0.00    -0.253 OA
BRANCH  32  35
ATOM     35  C   LIG    1       -6.064  -1.525   1.972  0.00  0.00    +0.028 C 
ATOM     36  C   LIG    1       -6.742  -1.685   3.299  0.00  0.00    +0.031 C 
ATOM     37  C   LIG    1       -5.660  -2.924   1.488  0.00  0.00    +0.031 C 
ATOM     38  C   LIG    1       -7.089  -1.019   0.982  0.00  0.00    +0.031 C 
ENDBRANCH  32  35
ENDBRANCH  28  29
BRANCH  28  39
ATOM     39  C   LIG    1       -2.121   2.167  -0.461  0.00  0.00    -0.011 C 
ATOM     40  C   LIG    1       -1.547   2.890   0.762  0.00  0.00    +0.013 C 
ATOM     41  C   LIG    1       -3.537   2.690  -0.692  0.00  0.00    +0.013 C 
ATOM     42  C   LIG    1       -1.311   2.566  -1.655  0.00  0.00    +0.013 C 
ENDBRANCH  28  39
ENDBRANCH   3  28
TORSDOF 10
