REMARK  Name = molecules/LHIALLMPKJMSIQ-NSCUHMNNSA-N.pdb
REMARK                            x       y       z     vdW  Elec       q    Type
REMARK                         _______ _______ _______ _____ _____    ______ ____
ROOT
ATOM      1  C   LIG    1       -0.231   0.176  -0.046  0.00  0.00    +0.048 C 
ATOM      2  C   LIG    1        0.835  -0.583  -0.062  0.00  0.00    +0.031 C 
ENDROOT
BRANCH   1   3
ATOM      3  C   LIG    1       -1.535  -0.484  -0.006  0.00  0.00    +0.135 A 
ATOM      4  N   LIG    1       -1.799  -1.802   0.017  0.00  0.00    -0.234 NA
ATOM      5  C   LIG    1       -3.129  -1.977   0.051  0.00  0.00    +0.164 A 
ATOM      6  C   LIG    1       -3.733  -0.740   0.050  0.00  0.00    +0.216 A 
ATOM      7  N   LIG    1       -2.710   0.155   0.014  0.00  0.00    -0.309 N 
ATOM      8  C   LIG    1       -2.930   1.597   0.001  0.00  0.00    +0.152 C 
BRANCH   6   9
ATOM      9  N   LIG    1       -5.113  -0.469   0.080  0.00  0.00    +0.075 N 
ATOM     10  O   LIG    1       -6.003  -1.507   0.115  0.00  0.00    -0.125 OA
ATOM     11  O   LIG    1       -5.595   0.682   0.076  0.00  0.00    -0.125 OA
ENDBRANCH   6   9
ENDBRANCH   1   3
BRANCH   2  12
ATOM     12  C   LIG    1        2.178  -0.025  -0.102  0.00  0.00    +0.069 A 
ATOM     13  N   LIG    1        3.234  -0.894  -0.116  0.00  0.00    -0.215 NA
ATOM     14  C   LIG    1        4.505  -0.482  -0.152  0.00  0.00    +0.213 A 
ATOM     15  N   LIG    1        4.719   0.840  -0.174  0.00  0.00    -0.223 NA
ATOM     16  C   LIG    1        3.740   1.746  -0.163  0.00  0.00    +0.116 A 
ATOM     17  C   LIG    1        2.410   1.326  -0.125  0.00  0.00    +0.047 A 
BRANCH  14  18
ATOM     18  N   LIG    1        5.594  -1.413  -0.166  0.00  0.00    -0.327 N 
ATOM     19  H   LIG    1        5.811  -2.012   0.640  0.00  0.00    +0.145 HD
ATOM     20  H   LIG    1        6.196  -1.492  -1.024  0.00  0.00    +0.145 HD
ENDBRANCH  14  18
ENDBRANCH   2  12
TORSDOF 4
