REMARK  Name = molecules/LIAWQASKBFCRNR-SECBINFHSA-N.pdb
REMARK                            x       y       z     vdW  Elec       q    Type
REMARK                         _______ _______ _______ _____ _____    ______ ____
ROOT
ATOM      1  N   LIG    1       -1.248   0.695   0.112  0.00  0.00    -0.285 N 
ATOM      2  H   LIG    1       -1.541   1.601   0.592  0.00  0.00    +0.155 HD
ATOM      3  C   LIG    1       -2.274  -0.113  -0.399  0.00  0.00    +0.220 C 
ATOM      4  O   LIG    1       -2.098  -1.196  -0.985  0.00  0.00    -0.275 OA
ENDROOT
BRANCH   1   5
ATOM      5  C   LIG    1        0.134   0.441   0.059  0.00  0.00    +0.034 A 
ATOM      6  C   LIG    1        1.026   1.362   0.615  0.00  0.00    +0.027 A 
ATOM      7  C   LIG    1        2.386   1.161   0.591  0.00  0.00    +0.047 A 
ATOM      8  C   LIG    1        2.911   0.035   0.013  0.00  0.00    +0.121 A 
ATOM      9  C   LIG    1        2.067  -0.888  -0.542  0.00  0.00    +0.047 A 
ATOM     10  C   LIG    1        0.692  -0.669  -0.509  0.00  0.00    +0.027 A 
BRANCH   8  11
ATOM     11  O   LIG    1        4.252  -0.209  -0.035  0.00  0.00    -0.492 OA
BRANCH  11  12
ATOM     12  C   LIG    1        5.295   0.568   0.461  0.00  0.00    +0.225 C 
ATOM     13  C   LIG    1        5.140   0.710   1.953  0.00  0.00    +0.048 C 
ENDBRANCH  11  12
ENDBRANCH   8  11
ENDBRANCH   1   5
BRANCH   3  14
ATOM     14  C   LIG    1       -3.704   0.343  -0.237  0.00  0.00    +0.127 C 
BRANCH  14  15
ATOM     15  C   LIG    1       -4.585  -0.706  -0.869  0.00  0.00    +0.120 C 
ATOM     16  C   LIG    1       -4.373  -2.018  -0.180  0.00  0.00    +0.038 C 
BRANCH  15  17
ATOM     17  O   LIG    1       -5.932  -0.332  -0.818  0.00  0.00    -0.392 OA
ATOM     18  H   LIG    1       -6.038   0.377  -1.521  0.00  0.00    +0.210 HD
ENDBRANCH  15  17
ENDBRANCH  14  15
ENDBRANCH   3  14
TORSDOF 6
