REMARK  Name = molecules/LIQODXNTTZAGID-OCBXBXKTSA-N.pdb
REMARK                            x       y       z     vdW  Elec       q    Type
REMARK                         _______ _______ _______ _____ _____    ______ ____
ROOT
ATOM      1  O   LIG    1        1.983   1.219   3.021  0.00  0.00    -0.250 OA
ATOM      2  C   LIG    1        1.104   1.476   2.164  0.00  0.00    +0.312 C 
ATOM      3  O   LIG    1        0.415   2.687   1.998  0.00  0.00    -0.464 OA
ATOM      4  C   LIG    1       -0.514   2.586   0.906  0.00  0.00    +0.239 C 
ATOM      5  C   LIG    1        0.046   1.474   0.072  0.00  0.00    +0.075 C 
ATOM      6  C   LIG    1       -0.974   0.677  -0.708  0.00  0.00    +0.159 C 
ATOM      7  C   LIG    1       -0.113  -0.388  -1.369  0.00  0.00    -0.011 A 
ATOM      8  C   LIG    1        0.991  -0.884  -0.721  0.00  0.00    -0.030 A 
ATOM      9  C   LIG    1        1.436  -0.482   0.640  0.00  0.00    +0.064 C 
ATOM     10  C   LIG    1        1.734  -1.851  -1.400  0.00  0.00    +0.054 A 
ATOM     11  C   LIG    1        1.407  -2.308  -2.658  0.00  0.00    +0.167 A 
ATOM     12  C   LIG    1        0.296  -1.795  -3.284  0.00  0.00    +0.167 A 
ATOM     13  O   LIG    1        0.196  -2.410  -4.507  0.00  0.00    -0.453 OA
ATOM     14  C   LIG    1        1.090  -3.500  -4.531  0.00  0.00    +0.466 C 
ATOM     15  O   LIG    1        2.011  -3.250  -3.487  0.00  0.00    -0.453 OA
ATOM     16  C   LIG    1       -0.434  -0.847  -2.619  0.00  0.00    +0.056 A 
ATOM     17  C   LIG    1        0.579   0.578   1.125  0.00  0.00    +0.118 C 
ENDROOT
BRANCH   9  18
ATOM     18  C   LIG    1        2.889  -0.277   0.596  0.00  0.00    -0.032 A 
ATOM     19  C   LIG    1        3.698  -1.329   1.009  0.00  0.00    +0.054 A 
ATOM     20  C   LIG    1        5.068  -1.265   1.022  0.00  0.00    +0.166 A 
ATOM     21  C   LIG    1        5.721  -0.118   0.614  0.00  0.00    +0.215 A 
ATOM     22  C   LIG    1        4.930   0.930   0.203  0.00  0.00    +0.166 A 
ATOM     23  C   LIG    1        3.536   0.850   0.195  0.00  0.00    +0.054 A 
BRANCH  20  24
ATOM     24  O   LIG    1        5.854  -2.353   1.448  0.00  0.00    -0.491 OA
ATOM     25  C   LIG    1        5.266  -3.556   1.878  0.00  0.00    +0.277 C 
ENDBRANCH  20  24
BRANCH  22  26
ATOM     26  O   LIG    1        5.543   2.097  -0.214  0.00  0.00    -0.491 OA
ATOM     27  C   LIG    1        4.771   3.211  -0.648  0.00  0.00    +0.277 C 
ENDBRANCH  22  26
BRANCH  21  28
ATOM     28  O   LIG    1        7.105  -0.099   0.644  0.00  0.00    -0.397 OA
BRANCH  28  29
ATOM     29  P   LIG    1        8.098   1.187   0.193  0.00  0.00    +0.528 P 
ATOM     30  O   LIG    1        7.803   2.370   1.089  0.00  0.00    -0.216 OA
BRANCH  29  31
ATOM     31  O   LIG    1        9.727   0.801   0.438  0.00  0.00    -0.293 OA
ATOM     32  H   LIG    1       10.103   0.601  -0.471  0.00  0.00    +0.223 HD
ENDBRANCH  29  31
BRANCH  29  33
ATOM     33  O   LIG    1        7.842   1.661  -1.412  0.00  0.00    -0.293 OA
ATOM     34  H   LIG    1        8.192   2.592  -1.479  0.00  0.00    +0.223 HD
ENDBRANCH  29  33
ENDBRANCH  28  29
ENDBRANCH  21  28
ENDBRANCH   9  18
BRANCH   6  35
ATOM     35  O   LIG    1       -1.894   0.010   0.056  0.00  0.00    -0.340 OA
BRANCH  35  36
ATOM     36  C   LIG    1       -3.207   0.228  -0.339  0.00  0.00    +0.282 C 
ATOM     37  O   LIG    1       -3.847   0.869   0.739  0.00  0.00    -0.340 OA
ATOM     38  C   LIG    1       -5.186   1.010   0.479  0.00  0.00    +0.178 C 
ATOM     39  C   LIG    1       -5.815   1.940   1.493  0.00  0.00    +0.197 C 
ATOM     40  O   LIG    1       -7.177   1.948   1.204  0.00  0.00    -0.349 OA
ATOM     41  C   LIG    1       -7.766   0.710   1.185  0.00  0.00    +0.248 C 
ATOM     42  C   LIG    1       -9.183   0.917   0.633  0.00  0.00    +0.070 C 
ATOM     43  O   LIG    1       -7.146  -0.230   0.372  0.00  0.00    -0.343 OA
ATOM     44  C   LIG    1       -5.833  -0.354   0.747  0.00  0.00    +0.183 C 
ATOM     45  C   LIG    1       -5.056  -1.434   0.093  0.00  0.00    +0.179 C 
ATOM     46  C   LIG    1       -3.917  -1.009  -0.765  0.00  0.00    +0.201 C 
BRANCH  45  47
ATOM     47  O   LIG    1       -4.579  -2.377   1.032  0.00  0.00    -0.386 OA
ATOM     48  H   LIG    1       -5.103  -2.356   1.870  0.00  0.00    +0.210 HD
ENDBRANCH  45  47
BRANCH  46  49
ATOM     49  O   LIG    1       -4.407  -0.870  -2.084  0.00  0.00    -0.384 OA
ATOM     50  H   LIG    1       -3.807  -0.256  -2.603  0.00  0.00    +0.210 HD
ENDBRANCH  46  49
ENDBRANCH  35  36
ENDBRANCH   6  35
TORSDOF 11
