REMARK  Name = molecules/LIRCDOVJWUGTMW-ZWNOBZJWSA-N.pdb
REMARK                            x       y       z     vdW  Elec       q    Type
REMARK                         _______ _______ _______ _____ _____    ______ ____
ROOT
ATOM      1  C   LIG    1       -0.454  -0.940  -0.963  0.00  0.00    +0.143 C 
ENDROOT
BRANCH   1   2
ATOM      2  N   LIG    1       -0.427  -1.693   0.266  0.00  0.00    -0.304 N 
ATOM      3  H   LIG    1       -0.055  -1.320   1.144  0.00  0.00    +0.149 HD
ATOM      4  C   LIG    1       -0.942  -3.021   0.258  0.00  0.00    +0.246 C 
ATOM      5  O   LIG    1       -1.417  -3.543  -0.800  0.00  0.00    -0.273 OA
BRANCH   4   6
ATOM      6  C   LIG    1       -0.955  -3.868   1.481  0.00  0.00    +0.256 C 
ATOM      7 CL   LIG    1       -1.960  -3.018   2.679  0.00  0.00    -0.094 Cl
ATOM      8 CL   LIG    1        0.689  -4.130   2.100  0.00  0.00    -0.094 Cl
ENDBRANCH   4   6
ENDBRANCH   1   2
BRANCH   1   9
ATOM      9  C   LIG    1       -0.907   0.468  -0.844  0.00  0.00    +0.168 C 
BRANCH   9  10
ATOM     10  C   LIG    1       -2.291   0.706  -0.481  0.00  0.00    -0.017 A 
ATOM     11  C   LIG    1       -2.629   2.019  -0.122  0.00  0.00    +0.008 A 
ATOM     12  C   LIG    1       -3.927   2.312   0.243  0.00  0.00    +0.033 A 
ATOM     13  C   LIG    1       -4.898   1.338   0.263  0.00  0.00    +0.126 A 
ATOM     14  C   LIG    1       -4.535   0.065  -0.094  0.00  0.00    +0.033 A 
ATOM     15  C   LIG    1       -3.249  -0.275  -0.467  0.00  0.00    +0.008 A 
BRANCH  13  16
ATOM     16  N   LIG    1       -6.243   1.653   0.645  0.00  0.00    +0.056 N 
ATOM     17  O   LIG    1       -6.571   2.804   0.968  0.00  0.00    -0.126 OA
ATOM     18  O   LIG    1       -7.199   0.676   0.659  0.00  0.00    -0.126 OA
ENDBRANCH  13  16
ENDBRANCH   9  10
BRANCH   9  19
ATOM     19  O   LIG    1       -0.096   1.204   0.025  0.00  0.00    -0.385 OA
ATOM     20  H   LIG    1       -0.522   1.161   0.925  0.00  0.00    +0.210 HD
ENDBRANCH   9  19
ENDBRANCH   1   9
BRANCH   1  21
ATOM     21  C   LIG    1        1.024  -0.868  -1.404  0.00  0.00    +0.257 C 
BRANCH  21  22
ATOM     22  O   LIG    1        1.768  -0.202  -0.372  0.00  0.00    -0.463 OA
BRANCH  22  23
ATOM     23  C   LIG    1        3.127   0.006  -0.485  0.00  0.00    +0.308 C 
ATOM     24  O   LIG    1        3.673  -0.417  -1.532  0.00  0.00    -0.251 OA
BRANCH  23  25
ATOM     25  C   LIG    1        3.949   0.682   0.535  0.00  0.00    +0.132 C 
BRANCH  25  26
ATOM     26  C   LIG    1        5.381   0.717   0.057  0.00  0.00    +0.131 C 
BRANCH  26  27
ATOM     27  C   LIG    1        6.265   1.385   1.031  0.00  0.00    +0.305 C 
ATOM     28  O   LIG    1        6.560   0.762   2.094  0.00  0.00    -0.251 OA
BRANCH  27  29
ATOM     29  O   LIG    1        6.774   2.641   0.831  0.00  0.00    -0.481 OA
ATOM     30  H   LIG    1        6.212   3.365   0.376  0.00  0.00    +0.295 HD
ENDBRANCH  27  29
ENDBRANCH  26  27
ENDBRANCH  25  26
ENDBRANCH  23  25
ENDBRANCH  22  23
ENDBRANCH  21  22
ENDBRANCH   1  21
TORSDOF 13
