REMARK  Name = molecules/LKAJKIOFIWVMDJ-IYRCEVNGSA-N.pdb
REMARK                            x       y       z     vdW  Elec       q    Type
REMARK                         _______ _______ _______ _____ _____    ______ ____
ROOT
ATOM      1  C   LIG    1       -1.685  -0.697   1.689  0.00  0.00    +0.012 C 
ATOM      2  C   LIG    1       -1.743   0.098   0.376  0.00  0.00    -0.022 C 
ATOM      3  C   LIG    1       -2.610   1.279   0.639  0.00  0.00    +0.045 C 
ATOM      4  C   LIG    1       -4.044   1.097   0.314  0.00  0.00    -0.006 A 
ATOM      5  C   LIG    1       -5.056   2.032   0.353  0.00  0.00    +0.138 A 
ATOM      6  N   LIG    1       -6.175   1.398  -0.024  0.00  0.00    -0.182 NA
ATOM      7  N   LIG    1       -5.904   0.135  -0.289  0.00  0.00    -0.281 N 
ATOM      8  H   LIG    1       -6.637  -0.569  -0.609  0.00  0.00    +0.189 HD
ATOM      9  C   LIG    1       -4.603  -0.074  -0.089  0.00  0.00    +0.040 A 
ATOM     10  C   LIG    1       -3.743  -1.260  -0.222  0.00  0.00    +0.059 C 
ATOM     11  C   LIG    1       -0.373   0.435  -0.118  0.00  0.00    -0.001 C 
ATOM     12  C   LIG    1        0.311   1.491   0.722  0.00  0.00    +0.005 C 
ATOM     13  C   LIG    1        1.734   1.710   0.271  0.00  0.00    +0.010 C 
ATOM     14  C   LIG    1        2.495   0.417   0.280  0.00  0.00    -0.000 C 
ATOM     15  C   LIG    1        2.529  -0.210   1.635  0.00  0.00    +0.014 C 
ATOM     16  C   LIG    1        3.849   0.467  -0.291  0.00  0.00    +0.069 C 
ATOM     17  C   LIG    1        4.238   1.774  -0.923  0.00  0.00    +0.042 C 
ATOM     18  C   LIG    1        3.991  -0.695  -1.261  0.00  0.00    +0.035 C 
ATOM     19  C   LIG    1        2.721  -1.515  -1.027  0.00  0.00    +0.007 C 
ATOM     20  C   LIG    1        1.751  -0.455  -0.744  0.00  0.00    +0.001 C 
ATOM     21  C   LIG    1        0.463  -0.833  -0.118  0.00  0.00    -0.004 C 
ATOM     22  C   LIG    1       -0.213  -2.010  -0.704  0.00  0.00    +0.004 C 
ATOM     23  C   LIG    1       -1.551  -1.790  -1.290  0.00  0.00    +0.005 C 
ATOM     24  C   LIG    1       -2.389  -0.729  -0.716  0.00  0.00    +0.001 C 
ENDROOT
BRANCH  16  25
ATOM     25  O   LIG    1        4.815   0.232   0.711  0.00  0.00    -0.388 OA
ATOM     26  H   LIG    1        5.667  -0.084   0.313  0.00  0.00    +0.210 HD
ENDBRANCH  16  25
TORSDOF 1
