REMARK  Name = molecules/LKRDZKPBAOKJBT-CNPIRKNPSA-N.pdb
REMARK                            x       y       z     vdW  Elec       q    Type
REMARK                         _______ _______ _______ _____ _____    ______ ____
ROOT
ATOM      1  C   LIG    1       -0.207   0.146  -1.780  0.00  0.00    +0.253 C 
ATOM      2  O   LIG    1       -0.996   0.985  -0.948  0.00  0.00    -0.346 OA
ATOM      3  C   LIG    1       -2.337   0.835  -1.399  0.00  0.00    +0.150 C 
ATOM      4  C   LIG    1       -2.788  -0.437  -0.667  0.00  0.00    +0.178 C 
ATOM      5  C   LIG    1       -1.692  -1.421  -0.723  0.00  0.00    +0.151 C 
ATOM      6  C   LIG    1       -3.056   2.052  -0.877  0.00  0.00    +0.041 C 
ATOM      7  C   LIG    1       -0.931  -1.141  -2.048  0.00  0.00    +0.095 C 
ENDROOT
BRANCH   5   8
ATOM      8  O   LIG    1       -2.073  -2.747  -0.839  0.00  0.00    -0.389 OA
ATOM      9  H   LIG    1       -1.393  -3.316  -1.265  0.00  0.00    +0.210 HD
ENDBRANCH   5   8
BRANCH   1  10
ATOM     10  O   LIG    1        1.035  -0.010  -1.250  0.00  0.00    -0.348 OA
BRANCH  10  22
ATOM     11  C   LIG    1        7.831   0.752   0.241  0.00  0.00    +0.077 C 
ATOM     12  C   LIG    1        7.582   1.903   1.158  0.00  0.00    +0.067 C 
ATOM     13  C   LIG    1        8.079   1.429   2.498  0.00  0.00    +0.125 C 
ATOM     14  C   LIG    1        9.099   0.340   2.185  0.00  0.00    +0.056 C 
ATOM     15  C   LIG    1        8.383  -0.383   1.086  0.00  0.00    +0.006 C 
ATOM     16  C   LIG    1        7.341  -1.296   1.675  0.00  0.00    +0.010 C 
ATOM     17  C   LIG    1        6.131  -1.522   0.839  0.00  0.00    +0.005 C 
ATOM     18  C   LIG    1        5.604  -0.188   0.288  0.00  0.00    +0.001 C 
ATOM     19  C   LIG    1        4.299  -0.370  -0.399  0.00  0.00    -0.026 C 
ATOM     20  C   LIG    1        3.325   0.633   0.169  0.00  0.00    +0.010 C 
ATOM     21  C   LIG    1        2.683   1.543  -0.834  0.00  0.00    +0.032 C 
ATOM     22  C   LIG    1        2.064   0.691  -1.891  0.00  0.00    +0.122 C 
ATOM     23  C   LIG    1        2.991  -0.313  -2.522  0.00  0.00    +0.035 C 
ATOM     24  C   LIG    1        3.766  -1.755  -0.007  0.00  0.00    +0.012 C 
ATOM     25  C   LIG    1        4.368  -0.313  -1.906  0.00  0.00    -0.002 C 
ATOM     26  C   LIG    1        5.146   0.824  -2.476  0.00  0.00    +0.004 C 
ATOM     27  C   LIG    1        6.210   1.367  -1.522  0.00  0.00    +0.007 C 
ATOM     28  C   LIG    1        9.251  -1.213   0.169  0.00  0.00    +0.015 C 
ATOM     29  C   LIG    1        6.713   0.324  -0.618  0.00  0.00    +0.025 C 
BRANCH  14  30
ATOM     30  C   LIG    1       10.431   0.854   1.865  0.00  0.00    -0.020 C 
ATOM     31  C   LIG    1       10.735   2.133   1.784  0.00  0.00    +0.094 C 
ATOM     32  C   LIG    1       12.143   2.311   1.451  0.00  0.00    +0.332 C 
ATOM     33  O   LIG    1       12.661   1.042   1.341  0.00  0.00    -0.457 OA
ATOM     34  O   LIG    1       12.772   3.406   1.293  0.00  0.00    -0.246 OA
ATOM     35  C   LIG    1       11.663   0.095   1.628  0.00  0.00    +0.264 C 
ENDBRANCH  14  30
BRANCH  11  36
ATOM     36  O   LIG    1        8.905   1.146  -0.594  0.00  0.00    -0.388 OA
ATOM     37  H   LIG    1        8.752   0.887  -1.519  0.00  0.00    +0.210 HD
ENDBRANCH  11  36
BRANCH  13  38
ATOM     38  O   LIG    1        8.507   2.385   3.366  0.00  0.00    -0.391 OA
ATOM     39  H   LIG    1        9.245   2.034   3.962  0.00  0.00    +0.210 HD
ENDBRANCH  13  38
ENDBRANCH  10  22
ENDBRANCH   1  10
BRANCH   4  40
ATOM     40  O   LIG    1       -4.047  -0.838  -0.944  0.00  0.00    -0.343 OA
BRANCH  40  41
ATOM     41  C   LIG    1       -5.064  -0.514  -0.104  0.00  0.00    +0.254 C 
ATOM     42  O   LIG    1       -5.587  -1.655   0.501  0.00  0.00    -0.346 OA
ATOM     43  C   LIG    1       -6.827  -1.417   1.109  0.00  0.00    +0.150 C 
ATOM     44  C   LIG    1       -7.153  -2.618   1.958  0.00  0.00    +0.041 C 
ATOM     45  C   LIG    1       -7.896  -1.330   0.018  0.00  0.00    +0.178 C 
ATOM     46  C   LIG    1       -7.206  -0.885  -1.271  0.00  0.00    +0.151 C 
ATOM     47  C   LIG    1       -6.143   0.137  -0.924  0.00  0.00    +0.095 C 
BRANCH  46  48
ATOM     48  O   LIG    1       -8.077  -0.319  -2.175  0.00  0.00    -0.389 OA
ATOM     49  H   LIG    1       -7.667  -0.320  -3.072  0.00  0.00    +0.210 HD
ENDBRANCH  46  48
BRANCH  45  50
ATOM     50  O   LIG    1       -8.768  -0.317   0.358  0.00  0.00    -0.343 OA
BRANCH  50  51
ATOM     51  C   LIG    1      -10.094  -0.742   0.484  0.00  0.00    +0.254 C 
ATOM     52  C   LIG    1      -10.634  -0.324   1.808  0.00  0.00    +0.095 C 
ATOM     53  C   LIG    1      -11.303   1.045   1.692  0.00  0.00    +0.150 C 
ATOM     54  C   LIG    1      -12.446   0.904   0.699  0.00  0.00    +0.172 C 
ATOM     55  C   LIG    1      -12.223  -0.353  -0.134  0.00  0.00    +0.149 C 
ATOM     56  C   LIG    1      -13.066  -0.388  -1.374  0.00  0.00    +0.041 C 
ATOM     57  O   LIG    1      -10.877  -0.244  -0.565  0.00  0.00    -0.346 OA
BRANCH  53  58
ATOM     58  O   LIG    1      -11.720   1.434   2.941  0.00  0.00    -0.389 OA
ATOM     59  H   LIG    1      -12.096   2.363   2.854  0.00  0.00    +0.210 HD
ENDBRANCH  53  58
BRANCH  54  60
ATOM     60  O   LIG    1      -13.629   0.765   1.398  0.00  0.00    -0.387 OA
ATOM     61  H   LIG    1      -14.188   1.587   1.329  0.00  0.00    +0.210 HD
ENDBRANCH  54  60
ENDBRANCH  50  51
ENDBRANCH  45  50
ENDBRANCH  40  41
ENDBRANCH   4  40
TORSDOF 13
