REMARK  Name = molecules/LKYQLAWMNBFNJT-UHFFFAOYSA-N.pdb
REMARK                            x       y       z     vdW  Elec       q    Type
REMARK                         _______ _______ _______ _____ _____    ______ ____
ROOT
ATOM      1  C   LIG    1        2.111  -0.165  -0.217  0.00  0.00    +0.095 C 
ATOM      2  C   LIG    1        0.750  -0.850  -0.444  0.00  0.00    +0.038 C 
ATOM      3  C   LIG    1        0.034  -0.134  -1.591  0.00  0.00    +0.086 C 
ATOM      4  N   LIG    1       -0.448   1.170  -1.152  0.00  0.00    -0.302 NA
ATOM      5  C   LIG    1        0.473   1.606  -0.088  0.00  0.00    +0.086 C 
ATOM      6  C   LIG    1        1.887   1.275  -0.604  0.00  0.00    +0.038 C 
ENDROOT
BRANCH   1   7
ATOM      7  C   LIG    1        3.099  -0.896  -0.996  0.00  0.00    -0.031 A 
ATOM      8  C   LIG    1        3.497  -2.134  -0.460  0.00  0.00    +0.005 A 
ATOM      9  C   LIG    1        4.430  -2.897  -1.126  0.00  0.00    +0.000 A 
ATOM     10  C   LIG    1        4.984  -2.471  -2.313  0.00  0.00    +0.000 A 
ATOM     11  C   LIG    1        4.574  -1.254  -2.814  0.00  0.00    +0.000 A 
ATOM     12  C   LIG    1        3.643  -0.464  -2.174  0.00  0.00    +0.005 A 
ENDBRANCH   1   7
BRANCH   1  13
ATOM     13  C   LIG    1        2.483  -0.206   1.216  0.00  0.00    +0.318 C 
ATOM     14  O   LIG    1        1.700  -0.662   2.070  0.00  0.00    -0.250 OA
BRANCH  13  15
ATOM     15  O   LIG    1        3.708   0.266   1.601  0.00  0.00    -0.464 OA
BRANCH  15  16
ATOM     16  C   LIG    1        4.216   0.303   2.899  0.00  0.00    +0.229 C 
ATOM     17  C   LIG    1        3.339   1.165   3.772  0.00  0.00    +0.048 C 
ENDBRANCH  15  16
ENDBRANCH  13  15
ENDBRANCH   1  13
BRANCH   4  18
ATOM     18  C   LIG    1       -1.743   1.035  -0.498  0.00  0.00    +0.089 C 
BRANCH  18  19
ATOM     19  C   LIG    1       -2.839   0.713  -1.455  0.00  0.00    +0.050 C 
BRANCH  19  20
ATOM     20  C   LIG    1       -4.117   0.554  -0.703  0.00  0.00    -0.046 A 
ATOM     21  C   LIG    1       -4.498  -0.695  -0.220  0.00  0.00    +0.005 A 
ATOM     22  C   LIG    1       -5.673  -0.888   0.467  0.00  0.00    +0.023 A 
ATOM     23  C   LIG    1       -6.549   0.157   0.720  0.00  0.00    +0.025 A 
ATOM     24  C   LIG    1       -6.172   1.398   0.243  0.00  0.00    +0.023 A 
ATOM     25  C   LIG    1       -4.992   1.589  -0.449  0.00  0.00    +0.005 A 
BRANCH  23  26
ATOM     26  N   LIG    1       -7.760  -0.056   1.428  0.00  0.00    -0.358 N 
ATOM     27  H   LIG    1       -7.775  -0.672   2.264  0.00  0.00    +0.142 HD
ATOM     28  H   LIG    1       -8.654   0.386   1.139  0.00  0.00    +0.142 HD
ENDBRANCH  23  26
ENDBRANCH  19  20
ENDBRANCH  18  19
ENDBRANCH   4  18
TORSDOF 8
