REMARK  Name = molecules/LLPOLZWFYMWNKH-CMKMFDCUSA-N.pdb
REMARK                            x       y       z     vdW  Elec       q    Type
REMARK                         _______ _______ _______ _____ _____    ______ ____
ROOT
ATOM      1  O   LIG    1        1.200   3.663   0.061  0.00  0.00    -0.293 OA
ATOM      2  C   LIG    1        0.297   2.833   0.107  0.00  0.00    +0.174 C 
ATOM      3  C   LIG    1        0.382   1.795   1.148  0.00  0.00    +0.250 C 
ATOM      4  O   LIG    1        1.741   1.333   1.316  0.00  0.00    -0.476 OA
ATOM      5  C   LIG    1        1.957   0.291   0.427  0.00  0.00    +0.167 A 
ATOM      6  C   LIG    1        0.748  -0.218   0.088  0.00  0.00    +0.012 A 
ATOM      7  C   LIG    1        0.519  -1.255  -0.765  0.00  0.00    -0.038 A 
ATOM      8  C   LIG    1       -0.862  -1.676  -1.025  0.00  0.00    +0.054 C 
ATOM      9  C   LIG    1       -1.906  -0.726  -0.559  0.00  0.00    +0.065 C 
ATOM     10  N   LIG    1       -2.585  -1.290   0.587  0.00  0.00    -0.302 NA
ATOM     11  C   LIG    1       -2.277  -0.608   1.810  0.00  0.00    +0.085 C 
ATOM     12  C   LIG    1       -0.825  -0.256   1.966  0.00  0.00    +0.031 C 
ATOM     13  C   LIG    1       -4.016  -1.331   0.428  0.00  0.00    +0.105 C 
ATOM     14  C   LIG    1       -1.434   0.652  -0.206  0.00  0.00    +0.021 C 
ATOM     15  C   LIG    1       -1.054   1.500  -1.384  0.00  0.00    +0.014 C 
ATOM     16  C   LIG    1        1.630  -1.841  -1.337  0.00  0.00    +0.008 A 
ATOM     17  C   LIG    1        2.906  -1.371  -1.035  0.00  0.00    +0.050 A 
ATOM     18  C   LIG    1        3.063  -0.316  -0.161  0.00  0.00    +0.162 A 
ATOM     19  C   LIG    1       -0.322   0.526   0.797  0.00  0.00    +0.049 C 
ATOM     20  C   LIG    1       -0.819   2.902  -0.860  0.00  0.00    +0.078 C 
ENDROOT
BRANCH  18  21
ATOM     21  O   LIG    1        4.316   0.158   0.146  0.00  0.00    -0.491 OA
ATOM     22  C   LIG    1        5.513  -0.344  -0.361  0.00  0.00    +0.277 C 
ENDBRANCH  18  21
TORSDOF 1
