REMARK  Name = molecules/LNEPOXFFQSENCJ-UHFFFAOYSA-N.pdb
REMARK                            x       y       z     vdW  Elec       q    Type
REMARK                         _______ _______ _______ _____ _____    ______ ____
ROOT
ATOM      1  C   LIG    1       -3.361  -0.983  -0.791  0.00  0.00    +0.093 C 
ATOM      2  C   LIG    1       -3.086  -1.834   0.445  0.00  0.00    +0.055 C 
ATOM      3  C   LIG    1       -1.855  -1.288   1.125  0.00  0.00    +0.087 C 
ATOM      4  N   LIG    1       -0.676  -1.741   0.354  0.00  0.00    -0.302 NA
ATOM      5  C   LIG    1       -1.052  -1.741  -1.071  0.00  0.00    +0.087 C 
ATOM      6  C   LIG    1       -1.999  -0.576  -1.293  0.00  0.00    +0.055 C 
ENDROOT
BRANCH   1   7
ATOM      7  C   LIG    1       -4.227   0.175  -0.456  0.00  0.00    -0.016 A 
ATOM      8  C   LIG    1       -4.563   0.568   0.808  0.00  0.00    +0.008 A 
ATOM      9  C   LIG    1       -5.405   1.645   1.044  0.00  0.00    +0.020 A 
ATOM     10  C   LIG    1       -5.940   2.371  -0.001  0.00  0.00    +0.041 A 
ATOM     11 CL   LIG    1       -6.985   3.726   0.257  0.00  0.00    -0.084 Cl
ATOM     12  C   LIG    1       -5.608   1.992  -1.289  0.00  0.00    +0.020 A 
ATOM     13  C   LIG    1       -4.765   0.906  -1.494  0.00  0.00    +0.008 A 
ENDBRANCH   1   7
BRANCH   1  14
ATOM     14  O   LIG    1       -3.995  -1.721  -1.759  0.00  0.00    -0.384 OA
ATOM     15  H   LIG    1       -3.667  -1.534  -2.684  0.00  0.00    +0.211 HD
ENDBRANCH   1  14
BRANCH   4  16
ATOM     16  C   LIG    1        0.371  -0.729   0.474  0.00  0.00    +0.085 C 
BRANCH  16  17
ATOM     17  C   LIG    1        1.732  -1.413   0.325  0.00  0.00    +0.023 C 
BRANCH  17  18
ATOM     18  C   LIG    1        2.762  -0.314   0.457  0.00  0.00    +0.081 C 
BRANCH  18  19
ATOM     19  C   LIG    1        4.154  -0.781   0.450  0.00  0.00    +0.163 C 
ATOM     20  O   LIG    1        4.444  -2.025   0.445  0.00  0.00    -0.292 OA
BRANCH  19  21
ATOM     21  C   LIG    1        5.209   0.193   0.442  0.00  0.00    +0.018 A 
ATOM     22  C   LIG    1        6.531  -0.190   0.463  0.00  0.00    +0.014 A 
ATOM     23  C   LIG    1        7.515   0.764   0.439  0.00  0.00    +0.039 A 
ATOM     24  C   LIG    1        7.239   2.107   0.393  0.00  0.00    +0.123 A 
ATOM     25  F   LIG    1        8.199   3.073   0.376  0.00  0.00    -0.205 F 
ATOM     26  C   LIG    1        5.888   2.524   0.371  0.00  0.00    +0.039 A 
ATOM     27  C   LIG    1        4.944   1.548   0.397  0.00  0.00    +0.014 A 
ENDBRANCH  19  21
ENDBRANCH  18  19
ENDBRANCH  17  18
ENDBRANCH  16  17
ENDBRANCH   4  16
TORSDOF 7
