REMARK  Name = molecules/LNHWXBUNXOXMRL-VWLOTQADSA-N.pdb
REMARK                            x       y       z     vdW  Elec       q    Type
REMARK                         _______ _______ _______ _____ _____    ______ ____
ROOT
ATOM      1  O   LIG    1        2.172   3.591  -0.127  0.00  0.00    -0.267 OA
ATOM      2  C   LIG    1        2.374   2.345  -0.062  0.00  0.00    +0.259 A 
ATOM      3  C   LIG    1        3.666   1.947   0.244  0.00  0.00    +0.061 A 
ATOM      4  C   LIG    1        4.737   2.939   0.468  0.00  0.00    +0.273 C 
ATOM      5  O   LIG    1        5.865   2.407   1.116  0.00  0.00    -0.457 OA
ATOM      6  C   LIG    1        6.266   1.103   1.023  0.00  0.00    +0.344 C 
ATOM      7  O   LIG    1        7.460   0.794   1.228  0.00  0.00    -0.247 OA
ATOM      8  C   LIG    1        5.291   0.069   0.682  0.00  0.00    +0.188 C 
ATOM      9  C   LIG    1        3.961   0.610   0.333  0.00  0.00    +0.008 A 
ATOM     10  C   LIG    1        2.942  -0.299   0.108  0.00  0.00    +0.035 A 
ATOM     11  C   LIG    1        1.659   0.162  -0.197  0.00  0.00    +0.071 A 
ATOM     12  C   LIG    1        0.426  -0.564  -0.475  0.00  0.00    +0.093 A 
ATOM     13  N   LIG    1        0.215  -1.869  -0.538  0.00  0.00    -0.245 NA
ATOM     14  C   LIG    1       -0.979  -2.352  -0.843  0.00  0.00    +0.072 A 
ATOM     15  C   LIG    1       -1.112  -3.720  -0.914  0.00  0.00    +0.028 A 
ATOM     16  C   LIG    1       -2.307  -4.293  -1.248  0.00  0.00    +0.002 A 
ATOM     17  C   LIG    1       -3.360  -3.451  -1.510  0.00  0.00    +0.001 A 
ATOM     18  C   LIG    1       -3.213  -2.076  -1.435  0.00  0.00    +0.010 A 
ATOM     19  C   LIG    1       -2.041  -1.472  -1.102  0.00  0.00    +0.004 A 
ATOM     20  C   LIG    1       -1.897  -0.109  -1.051  0.00  0.00    -0.030 A 
ATOM     21  C   LIG    1       -0.603   0.340  -0.724  0.00  0.00    +0.004 A 
ATOM     22  C   LIG    1       -0.036   1.683  -0.587  0.00  0.00    +0.163 C 
ATOM     23  N   LIG    1        1.388   1.468  -0.278  0.00  0.00    -0.302 N 
ENDROOT
BRANCH   8  24
ATOM     24  O   LIG    1        5.080  -0.741   1.830  0.00  0.00    -0.373 OA
ATOM     25  H   LIG    1        4.230  -0.500   2.271  0.00  0.00    +0.211 HD
ENDBRANCH   8  24
BRANCH   8  26
ATOM     26  C   LIG    1        5.740  -0.861  -0.423  0.00  0.00    +0.048 C 
ATOM     27  C   LIG    1        7.114  -1.428  -0.061  0.00  0.00    +0.007 C 
ENDBRANCH   8  26
BRANCH  20  28
ATOM     28  C   LIG    1       -3.001   0.834  -1.308  0.00  0.00    +0.051 C 
BRANCH  28  29
ATOM     29  C   LIG    1       -3.499   1.553  -0.095  0.00  0.00    +0.086 C 
BRANCH  29  30
ATOM     30  N   LIG    1       -4.087   0.926   0.973  0.00  0.00    -0.313 NA
ATOM     31  H   LIG    1       -3.607   0.983   1.899  0.00  0.00    +0.122 HD
BRANCH  30  32
ATOM     32  C   LIG    1       -5.403   0.485   1.062  0.00  0.00    +0.047 C 
ATOM     33  C   LIG    1       -6.408   1.653   1.038  0.00  0.00    +0.023 C 
ATOM     34  C   LIG    1       -5.890  -0.545   0.106  0.00  0.00    +0.023 C 
ENDBRANCH  30  32
ENDBRANCH  29  30
ENDBRANCH  28  29
ENDBRANCH  20  28
TORSDOF 6
