REMARK  Name = molecules/LNNWVNGFPYWNQE-GMIGKAJZSA-N.pdb
REMARK                            x       y       z     vdW  Elec       q    Type
REMARK                         _______ _______ _______ _____ _____    ______ ____
ROOT
ATOM      1  C   LIG    1       -2.849  -1.948   0.337  0.00  0.00    +0.159 A 
ATOM      2  C   LIG    1       -2.195  -2.792   1.221  0.00  0.00    +0.049 A 
ATOM      3  C   LIG    1       -0.862  -2.602   1.521  0.00  0.00    +0.008 A 
ATOM      4  C   LIG    1       -0.162  -1.556   0.933  0.00  0.00    -0.038 A 
ATOM      5  C   LIG    1        1.248  -1.281   1.207  0.00  0.00    +0.054 C 
ATOM      6  C   LIG    1        1.727  -0.034   0.552  0.00  0.00    +0.065 C 
ATOM      7  C   LIG    1        0.704   1.013   0.266  0.00  0.00    +0.021 C 
ATOM      8  C   LIG    1        0.068   1.630   1.479  0.00  0.00    +0.006 C 
ATOM      9  C   LIG    1       -0.893   2.695   0.972  0.00  0.00    +0.004 C 
ATOM     10  C   LIG    1       -2.024   1.947   0.266  0.00  0.00    +0.045 C 
ATOM     11  C   LIG    1       -1.529   1.194  -0.928  0.00  0.00    +0.185 C 
ATOM     12  O   LIG    1       -2.474   0.122  -1.162  0.00  0.00    -0.484 OA
ATOM     13  C   LIG    1       -0.298   0.386  -0.657  0.00  0.00    +0.042 C 
ATOM     14  C   LIG    1        0.386  -0.076  -1.887  0.00  0.00    +0.031 C 
ATOM     15  C   LIG    1        1.851  -0.187  -1.861  0.00  0.00    +0.085 C 
ATOM     16  N   LIG    1        2.487  -0.350  -0.609  0.00  0.00    -0.302 NA
ATOM     17  C   LIG    1        3.851   0.112  -0.565  0.00  0.00    +0.105 C 
ATOM     18  C   LIG    1       -0.858  -0.769   0.079  0.00  0.00    +0.011 A 
ATOM     19  C   LIG    1       -2.183  -0.900  -0.264  0.00  0.00    +0.166 A 
ENDROOT
BRANCH   1  20
ATOM     20  O   LIG    1       -4.186  -2.138   0.036  0.00  0.00    -0.503 OA
ATOM     21  H   LIG    1       -4.715  -1.575  -0.585  0.00  0.00    +0.292 HD
ENDBRANCH   1  20
TORSDOF 1
