REMARK  Name = molecules/LORDFXWUHHSAQU-JOCHJYFZSA-N.pdb
REMARK                            x       y       z     vdW  Elec       q    Type
REMARK                         _______ _______ _______ _____ _____    ______ ____
ROOT
ATOM      1  O   LIG    1       -0.155   0.584   0.705  0.00  0.00    -0.459 OA
ENDROOT
BRANCH   1   2
ATOM      2  C   LIG    1        0.557  -0.547   0.619  0.00  0.00    +0.339 C 
ATOM      3  O   LIG    1        0.007  -1.647   0.729  0.00  0.00    -0.245 OA
BRANCH   2   4
ATOM      4  C   LIG    1        2.005  -0.477   0.392  0.00  0.00    +0.066 A 
ATOM      5  C   LIG    1        2.788  -1.606   0.298  0.00  0.00    +0.064 A 
ATOM      6  C   LIG    1        4.150  -1.559   0.087  0.00  0.00    +0.166 A 
ATOM      7  C   LIG    1        4.784  -0.336  -0.040  0.00  0.00    +0.204 A 
ATOM      8  C   LIG    1        4.015   0.802   0.051  0.00  0.00    +0.166 A 
ATOM      9  C   LIG    1        2.647   0.756   0.264  0.00  0.00    +0.064 A 
BRANCH   6  10
ATOM     10  O   LIG    1        4.900  -2.717  -0.001  0.00  0.00    -0.491 OA
ATOM     11  C   LIG    1        4.372  -4.003   0.109  0.00  0.00    +0.277 C 
ENDBRANCH   6  10
BRANCH   8  12
ATOM     12  O   LIG    1        4.660   2.023  -0.077  0.00  0.00    -0.491 OA
ATOM     13  C   LIG    1        3.899   3.201   0.011  0.00  0.00    +0.277 C 
ENDBRANCH   8  12
BRANCH   7  14
ATOM     14  O   LIG    1        6.145  -0.202  -0.253  0.00  0.00    -0.488 OA
ATOM     15  C   LIG    1        6.975  -0.109   0.906  0.00  0.00    +0.277 C 
ENDBRANCH   7  14
ENDBRANCH   2   4
ENDBRANCH   1   2
BRANCH   1  16
ATOM     16  C   LIG    1       -1.466   0.902   0.903  0.00  0.00    +0.259 C 
BRANCH  16  17
ATOM     17  C   LIG    1       -2.417   0.390  -0.148  0.00  0.00    +0.081 C 
BRANCH  17  18
ATOM     18  C   LIG    1       -3.816   0.857   0.157  0.00  0.00    -0.024 A 
ATOM     19  C   LIG    1       -4.109   1.631   1.264  0.00  0.00    +0.005 A 
ATOM     20  C   LIG    1       -5.405   2.036   1.500  0.00  0.00    +0.000 A 
ATOM     21  C   LIG    1       -6.408   1.671   0.636  0.00  0.00    +0.000 A 
ATOM     22  C   LIG    1       -6.102   0.897  -0.466  0.00  0.00    +0.000 A 
ATOM     23  C   LIG    1       -4.797   0.476  -0.725  0.00  0.00    +0.005 A 
ENDBRANCH  17  18
BRANCH  17  24
ATOM     24  N   LIG    1       -2.440  -1.017  -0.115  0.00  0.00    -0.296 NA
ATOM     25  C   LIG    1       -3.039  -1.510   1.110  0.00  0.00    +0.105 C 
ATOM     26  C   LIG    1       -2.777  -1.758  -1.254  0.00  0.00    +0.105 C 
ENDBRANCH  17  24
BRANCH  17  27
ATOM     27  C   LIG    1       -2.090   0.993  -1.483  0.00  0.00    +0.027 C 
ATOM     28  C   LIG    1       -0.731   0.719  -2.012  0.00  0.00    +0.006 C 
ENDBRANCH  17  27
ENDBRANCH  16  17
ENDBRANCH   1  16
TORSDOF 10
