REMARK  Name = molecules/LOUPRKONTZGTKE-WZBLMQSHSA-N.pdb
REMARK                            x       y       z     vdW  Elec       q    Type
REMARK                         _______ _______ _______ _____ _____    ______ ____
ROOT
ATOM      1  C   LIG    1        0.215  -1.137  -0.467  0.00  0.00    +0.162 C 
ENDROOT
BRANCH   1   2
ATOM      2  C   LIG    1        1.256  -1.761   0.310  0.00  0.00    -0.007 A 
ATOM      3  C   LIG    1        1.138  -2.942   0.958  0.00  0.00    +0.026 A 
ATOM      4  C   LIG    1        2.275  -3.533   1.531  0.00  0.00    +0.112 A 
ATOM      5  N   LIG    1        3.497  -2.995   1.480  0.00  0.00    -0.255 NA
ATOM      6  C   LIG    1        3.657  -1.806   0.843  0.00  0.00    +0.072 A 
ATOM      7  C   LIG    1        4.855  -1.119   0.833  0.00  0.00    +0.032 A 
ATOM      8  C   LIG    1        4.976   0.143   0.277  0.00  0.00    +0.048 A 
ATOM      9  C   LIG    1        3.890   0.743  -0.286  0.00  0.00    +0.121 A 
ATOM     10  C   LIG    1        2.682   0.034  -0.273  0.00  0.00    +0.056 A 
ATOM     11  C   LIG    1        2.569  -1.213   0.276  0.00  0.00    +0.010 A 
BRANCH   9  12
ATOM     12  O   LIG    1        3.853   1.962  -0.862  0.00  0.00    -0.495 OA
ATOM     13  C   LIG    1        4.838   2.913  -1.039  0.00  0.00    +0.277 C 
ENDBRANCH   9  12
ENDBRANCH   1   2
BRANCH   1  14
ATOM     14  C   LIG    1       -0.924  -0.470   0.195  0.00  0.00    +0.090 C 
ATOM     15  C   LIG    1       -2.189  -1.147   0.492  0.00  0.00    +0.026 C 
ATOM     16  C   LIG    1       -3.436  -0.329   0.057  0.00  0.00    -0.000 C 
ATOM     17  C   LIG    1       -3.376   1.115   0.377  0.00  0.00    +0.028 C 
ATOM     18  C   LIG    1       -1.939   1.586   0.317  0.00  0.00    +0.092 C 
ATOM     19  C   LIG    1       -3.346  -0.410  -1.485  0.00  0.00    +0.019 C 
ATOM     20  C   LIG    1       -2.063   0.390  -1.783  0.00  0.00    +0.085 C 
ATOM     21  N   LIG    1       -1.318   0.704  -0.641  0.00  0.00    -0.296 NA
BRANCH  17  22
ATOM     22  C   LIG    1       -4.157   1.623   1.489  0.00  0.00    -0.030 C 
ATOM     23  C   LIG    1       -5.034   2.611   1.316  0.00  0.00    +0.004 C 
ENDBRANCH  17  22
ENDBRANCH   1  14
BRANCH   1  24
ATOM     24  O   LIG    1       -0.206  -1.884  -1.629  0.00  0.00    -0.386 OA
ATOM     25  H   LIG    1       -0.631  -2.711  -1.372  0.00  0.00    +0.210 HD
ENDBRANCH   1  24
TORSDOF 5
