REMARK  Name = molecules/LOUPRKONTZGTKE-LHHVKLHASA-N.pdb
REMARK                            x       y       z     vdW  Elec       q    Type
REMARK                         _______ _______ _______ _____ _____    ______ ____
ROOT
ATOM      1  C   LIG    1       -0.235  -0.231  -0.469  0.00  0.00    +0.162 C 
ENDROOT
BRANCH   1   2
ATOM      2  C   LIG    1       -1.183  -1.070   0.259  0.00  0.00    -0.007 A 
ATOM      3  C   LIG    1       -0.860  -2.300   0.805  0.00  0.00    +0.026 A 
ATOM      4  C   LIG    1       -1.782  -3.066   1.486  0.00  0.00    +0.112 A 
ATOM      5  N   LIG    1       -3.059  -2.603   1.632  0.00  0.00    -0.255 NA
ATOM      6  C   LIG    1       -3.386  -1.407   1.106  0.00  0.00    +0.072 A 
ATOM      7  C   LIG    1       -4.685  -0.976   1.276  0.00  0.00    +0.032 A 
ATOM      8  C   LIG    1       -5.046   0.244   0.748  0.00  0.00    +0.048 A 
ATOM      9  C   LIG    1       -4.155   1.039   0.061  0.00  0.00    +0.121 A 
ATOM     10  C   LIG    1       -2.858   0.615  -0.112  0.00  0.00    +0.056 A 
ATOM     11  C   LIG    1       -2.477  -0.607   0.411  0.00  0.00    +0.010 A 
BRANCH   9  12
ATOM     12  O   LIG    1       -4.518   2.270  -0.473  0.00  0.00    -0.495 OA
ATOM     13  C   LIG    1       -5.824   2.752  -0.328  0.00  0.00    +0.277 C 
ENDBRANCH   9  12
ENDBRANCH   1   2
BRANCH   1  14
ATOM     14  C   LIG    1        1.156  -0.781  -0.573  0.00  0.00    +0.090 C 
ATOM     15  N   LIG    1        1.837  -0.923   0.677  0.00  0.00    -0.296 NA
ATOM     16  C   LIG    1        2.384   0.335   1.165  0.00  0.00    +0.092 C 
ATOM     17  C   LIG    1        3.619   0.691   0.366  0.00  0.00    +0.028 C 
ATOM     18  C   LIG    1        3.413   0.115  -1.028  0.00  0.00    -0.000 C 
ATOM     19  C   LIG    1        3.668  -1.392  -0.890  0.00  0.00    +0.019 C 
ATOM     20  C   LIG    1        3.003  -1.788   0.433  0.00  0.00    +0.085 C 
ATOM     21  C   LIG    1        1.947   0.253  -1.389  0.00  0.00    +0.026 C 
BRANCH  17  22
ATOM     22  C   LIG    1        3.905   2.131   0.345  0.00  0.00    -0.030 C 
ATOM     23  C   LIG    1        5.037   2.601   0.840  0.00  0.00    +0.004 C 
ENDBRANCH  17  22
ENDBRANCH   1  14
BRANCH   1  24
ATOM     24  O   LIG    1       -0.682  -0.190  -1.816  0.00  0.00    -0.386 OA
ATOM     25  H   LIG    1       -1.269  -0.962  -2.018  0.00  0.00    +0.210 HD
ENDBRANCH   1  24
TORSDOF 5
