REMARK  Name = molecules/LPLVUJXQOOQHMX-QWBHMCJMSA-N.pdb
REMARK                            x       y       z     vdW  Elec       q    Type
REMARK                         _______ _______ _______ _____ _____    ______ ____
ROOT
ATOM      1  C   LIG    1       -3.111   1.276   2.031  0.00  0.00    +0.013 C 
ATOM      2  C   LIG    1       -2.824   0.929   0.594  0.00  0.00    -0.013 C 
ATOM      3  C   LIG    1       -1.935  -0.245   0.385  0.00  0.00    +0.073 C 
ATOM      4  C   LIG    1       -2.492  -1.421   1.073  0.00  0.00    +0.160 C 
ATOM      5  O   LIG    1       -1.835  -2.390   1.530  0.00  0.00    -0.292 OA
ATOM      6  C   LIG    1       -3.943  -1.492   1.252  0.00  0.00    +0.046 C 
ATOM      7  C   LIG    1       -4.773  -0.582   0.750  0.00  0.00    -0.056 C 
ATOM      8  C   LIG    1       -6.252  -0.775   0.982  0.00  0.00    +0.023 C 
ATOM      9  C   LIG    1       -7.003   0.476   1.192  0.00  0.00    -0.025 C 
ATOM     10  C   LIG    1       -7.539   0.603   2.639  0.00  0.00    +0.012 C 
ATOM     11  C   LIG    1       -6.180   1.724   0.985  0.00  0.00    +0.008 C 
ATOM     12  C   LIG    1       -5.155   1.630  -0.101  0.00  0.00    +0.012 C 
ATOM     13  C   LIG    1       -8.254   0.616   0.357  0.00  0.00    +0.008 C 
ATOM     14  C   LIG    1       -8.968  -0.743   0.268  0.00  0.00    +0.018 C 
ATOM     15  C   LIG    1       -8.071  -1.546  -0.640  0.00  0.00    +0.065 C 
ATOM     16  C   LIG    1       -8.047  -0.843  -1.970  0.00  0.00    +0.023 C 
ATOM     17  C   LIG    1       -6.764  -1.751  -0.006  0.00  0.00    +0.026 C 
ATOM     18  C   LIG    1       -0.456  -0.041   0.596  0.00  0.00    -0.018 C 
ATOM     19  C   LIG    1       -0.055  -0.103   2.008  0.00  0.00    +0.012 C 
ATOM     20  C   LIG    1       -0.090   1.216  -0.151  0.00  0.00    +0.004 C 
ATOM     21  C   LIG    1       -0.881   2.398   0.387  0.00  0.00    +0.005 C 
ATOM     22  C   LIG    1        1.345   1.501  -0.358  0.00  0.00    -0.005 C 
ATOM     23  C   LIG    1        1.990   2.142   0.856  0.00  0.00    +0.014 C 
ATOM     24  C   LIG    1        2.204   0.338  -0.740  0.00  0.00    +0.127 C 
ATOM     25  C   LIG    1        1.733  -0.983  -0.235  0.00  0.00    +0.033 C 
ATOM     26  C   LIG    1        1.490   2.527  -1.485  0.00  0.00    +0.014 C 
ATOM     27  C   LIG    1        0.262  -1.139  -0.158  0.00  0.00    +0.010 C 
ATOM     28  C   LIG    1       -4.182   0.528  -0.010  0.00  0.00    -0.004 C 
ATOM     29  C   LIG    1       -3.913  -0.018  -1.421  0.00  0.00    +0.016 C 
ATOM     30  C   LIG    1       -2.315   2.198  -0.058  0.00  0.00    +0.008 C 
ENDROOT
BRANCH  15  31
ATOM     31  C   LIG    1       -8.735  -2.874  -0.892  0.00  0.00    +0.311 C 
ATOM     32  O   LIG    1       -9.050  -3.257  -2.046  0.00  0.00    -0.250 OA
BRANCH  31  33
ATOM     33  O   LIG    1       -9.028  -3.740   0.159  0.00  0.00    -0.480 OA
ATOM     34  H   LIG    1       -9.663  -3.487   0.894  0.00  0.00    +0.295 HD
ENDBRANCH  31  33
ENDBRANCH  15  31
BRANCH  24  35
ATOM     35  O   LIG    1        3.544   0.607  -0.491  0.00  0.00    -0.345 OA
BRANCH  35  36
ATOM     36  C   LIG    1        4.314   0.640  -1.622  0.00  0.00    +0.283 C 
ATOM     37  C   LIG    1        5.375  -0.439  -1.517  0.00  0.00    +0.208 C 
ATOM     38  C   LIG    1        5.809  -0.717  -2.939  0.00  0.00    +0.180 C 
ATOM     39  C   LIG    1        5.643   0.545  -3.727  0.00  0.00    +0.185 C 
ATOM     40  C   LIG    1        5.758   1.808  -2.941  0.00  0.00    +0.260 C 
ATOM     41  O   LIG    1        4.995   1.841  -1.780  0.00  0.00    -0.331 OA
BRANCH  38  42
ATOM     42  O   LIG    1        4.889  -1.648  -3.462  0.00  0.00    -0.386 OA
ATOM     43  H   LIG    1        5.095  -2.545  -3.061  0.00  0.00    +0.210 HD
ENDBRANCH  38  42
BRANCH  40  44
ATOM     44  C   LIG    1        5.391   2.939  -3.836  0.00  0.00    +0.337 C 
ATOM     45  O   LIG    1        4.500   3.734  -3.463  0.00  0.00    -0.248 OA
BRANCH  44  46
ATOM     46  O   LIG    1        5.995   3.146  -5.062  0.00  0.00    -0.479 OA
ATOM     47  H   LIG    1        5.607   2.671  -5.894  0.00  0.00    +0.295 HD
ENDBRANCH  44  46
ENDBRANCH  40  44
BRANCH  39  48
ATOM     48  O   LIG    1        6.677   0.566  -4.692  0.00  0.00    -0.386 OA
ATOM     49  H   LIG    1        6.835  -0.374  -4.951  0.00  0.00    +0.210 HD
ENDBRANCH  39  48
BRANCH  37  50
ATOM     50  O   LIG    1        6.400   0.087  -0.749  0.00  0.00    -0.338 OA
BRANCH  50  51
ATOM     51  C   LIG    1        6.703  -0.611   0.394  0.00  0.00    +0.283 C 
ATOM     52  O   LIG    1        6.643   0.244   1.489  0.00  0.00    -0.332 OA
ATOM     53  C   LIG    1        6.648  -0.453   2.689  0.00  0.00    +0.260 C 
ATOM     54  C   LIG    1        7.535  -1.673   2.640  0.00  0.00    +0.185 C 
ATOM     55  C   LIG    1        8.588  -1.598   1.592  0.00  0.00    +0.179 C 
ATOM     56  C   LIG    1        8.123  -1.105   0.269  0.00  0.00    +0.201 C 
BRANCH  53  57
ATOM     57  C   LIG    1        7.004   0.456   3.802  0.00  0.00    +0.337 C 
ATOM     58  O   LIG    1        7.245   1.660   3.558  0.00  0.00    -0.248 OA
BRANCH  57  59
ATOM     59  O   LIG    1        7.083   0.026   5.120  0.00  0.00    -0.479 OA
ATOM     60  H   LIG    1        7.543   0.560   5.818  0.00  0.00    +0.295 HD
ENDBRANCH  57  59
ENDBRANCH  53  57
BRANCH  54  61
ATOM     61  O   LIG    1        6.798  -2.855   2.619  0.00  0.00    -0.386 OA
ATOM     62  H   LIG    1        7.341  -3.568   3.081  0.00  0.00    +0.210 HD
ENDBRANCH  54  61
BRANCH  55  63
ATOM     63  O   LIG    1        9.704  -0.863   2.043  0.00  0.00    -0.386 OA
ATOM     64  H   LIG    1        9.431   0.051   2.346  0.00  0.00    +0.210 HD
ENDBRANCH  55  63
BRANCH  56  65
ATOM     65  O   LIG    1        8.217  -2.080  -0.731  0.00  0.00    -0.384 OA
ATOM     66  H   LIG    1        9.139  -2.057  -1.089  0.00  0.00    +0.210 HD
ENDBRANCH  56  65
ENDBRANCH  50  51
ENDBRANCH  37  50
ENDBRANCH  35  36
ENDBRANCH  24  35
TORSDOF 15
