REMARK  Name = molecules/LPMXVESGRSUGHW-HBYQJFLCSA-N.pdb
REMARK                            x       y       z     vdW  Elec       q    Type
REMARK                         _______ _______ _______ _____ _____    ______ ____
ROOT
ATOM      1  C   LIG    1       -0.120  -0.955   0.798  0.00  0.00    +0.054 C 
ATOM      2  C   LIG    1        0.767   0.271   0.845  0.00  0.00    +0.079 C 
ATOM      3  C   LIG    1        0.012   1.577   0.667  0.00  0.00    +0.036 C 
ATOM      4  C   LIG    1       -1.177   1.620   1.526  0.00  0.00    +0.009 C 
ATOM      5  C   LIG    1       -2.103   0.526   1.189  0.00  0.00    +0.028 C 
ATOM      6  C   LIG    1       -3.329   1.095   0.541  0.00  0.00    +0.075 C 
ATOM      7  C   LIG    1       -4.308   0.100   0.011  0.00  0.00    +0.006 C 
ATOM      8  C   LIG    1       -5.422  -0.118   1.028  0.00  0.00    +0.015 C 
ATOM      9  C   LIG    1       -3.745  -1.229  -0.334  0.00  0.00    +0.041 C 
ATOM     10  C   LIG    1       -2.554  -1.658   0.513  0.00  0.00    +0.119 C 
ATOM     11  C   LIG    1       -4.881   0.694  -1.259  0.00  0.00    +0.027 C 
ATOM     12  C   LIG    1       -4.426   2.137  -1.283  0.00  0.00    +0.011 C 
ATOM     13  C   LIG    1       -3.051   2.081  -0.569  0.00  0.00    +0.036 C 
ATOM     14  C   LIG    1        1.736   0.352  -0.344  0.00  0.00    +0.067 C 
ATOM     15  C   LIG    1        2.763  -0.729  -0.310  0.00  0.00    +0.127 C 
ATOM     16  C   LIG    1        2.094  -1.933   0.264  0.00  0.00    +0.063 C 
ATOM     17  C   LIG    1       -1.515  -0.614   0.382  0.00  0.00    +0.037 C 
ATOM     18  C   LIG    1        0.584  -1.965  -0.022  0.00  0.00    +0.128 C 
ENDROOT
BRANCH  11  19
ATOM     19  C   LIG    1       -6.348   0.662  -1.349  0.00  0.00    -0.022 C 
ATOM     20  C   LIG    1       -7.157   1.687  -1.408  0.00  0.00    +0.094 C 
ATOM     21  C   LIG    1       -8.535   1.218  -1.487  0.00  0.00    +0.332 C 
ATOM     22  O   LIG    1       -8.513  -0.163  -1.471  0.00  0.00    -0.457 OA
ATOM     23  O   LIG    1       -9.591   1.920  -1.558  0.00  0.00    -0.246 OA
ATOM     24  C   LIG    1       -7.176  -0.569  -1.428  0.00  0.00    +0.264 C 
ENDBRANCH  11  19
BRANCH   2  25
ATOM     25  O   LIG    1        1.438   0.378   2.056  0.00  0.00    -0.388 OA
ATOM     26  H   LIG    1        2.397   0.247   2.025  0.00  0.00    +0.210 HD
ENDBRANCH   2  25
BRANCH   6  27
ATOM     27  O   LIG    1       -3.992   1.815   1.573  0.00  0.00    -0.388 OA
ATOM     28  H   LIG    1       -3.394   2.035   2.310  0.00  0.00    +0.210 HD
ENDBRANCH   6  27
BRANCH  10  29
ATOM     29  O   LIG    1       -2.285  -2.935   0.124  0.00  0.00    -0.391 OA
ATOM     30  H   LIG    1       -3.075  -3.405  -0.222  0.00  0.00    +0.210 HD
ENDBRANCH  10  29
BRANCH  18  31
ATOM     31  O   LIG    1        0.264  -3.287   0.244  0.00  0.00    -0.391 OA
ATOM     32  H   LIG    1        0.517  -3.837  -0.519  0.00  0.00    +0.210 HD
ENDBRANCH  18  31
BRANCH   1  33
ATOM     33  C   LIG    1       -0.192  -1.480   2.230  0.00  0.00    +0.168 C 
BRANCH  33  34
ATOM     34  O   LIG    1       -0.977  -2.606   2.361  0.00  0.00    -0.394 OA
ATOM     35  H   LIG    1       -1.034  -2.809   3.317  0.00  0.00    +0.209 HD
ENDBRANCH  33  34
ENDBRANCH   1  33
BRANCH  15  36
ATOM     36  O   LIG    1        3.905  -0.353   0.356  0.00  0.00    -0.345 OA
BRANCH  36  37
ATOM     37  C   LIG    1        5.046  -0.314  -0.445  0.00  0.00    +0.282 C 
ATOM     38  O   LIG    1        5.963  -1.176   0.101  0.00  0.00    -0.343 OA
ATOM     39  C   LIG    1        7.227  -1.101  -0.431  0.00  0.00    +0.149 C 
ATOM     40  C   LIG    1        7.886   0.244  -0.257  0.00  0.00    +0.174 C 
ATOM     41  C   LIG    1        6.845   1.155   0.406  0.00  0.00    +0.179 C 
ATOM     42  C   LIG    1        7.295  -1.551  -1.866  0.00  0.00    +0.041 C 
ATOM     43  C   LIG    1        5.626   1.100  -0.491  0.00  0.00    +0.201 C 
BRANCH  40  44
ATOM     44  O   LIG    1        9.063   0.204   0.450  0.00  0.00    -0.387 OA
ATOM     45  H   LIG    1        9.221   1.109   0.822  0.00  0.00    +0.210 HD
ENDBRANCH  40  44
BRANCH  41  46
ATOM     46  O   LIG    1        7.329   2.447   0.389  0.00  0.00    -0.386 OA
ATOM     47  H   LIG    1        6.660   3.130   0.587  0.00  0.00    +0.210 HD
ENDBRANCH  41  46
BRANCH  43  48
ATOM     48  O   LIG    1        6.048   1.437  -1.776  0.00  0.00    -0.384 OA
ATOM     49  H   LIG    1        5.468   2.202  -2.066  0.00  0.00    +0.210 HD
ENDBRANCH  43  48
ENDBRANCH  36  37
ENDBRANCH  15  36
TORSDOF 12
