REMARK  Name = molecules/LQJARUQXWJSDFL-UHFFFAOYSA-N.pdb
REMARK                            x       y       z     vdW  Elec       q    Type
REMARK                         _______ _______ _______ _____ _____    ______ ____
ROOT
ATOM      1  C   LIG    1       -0.825  -0.083  -0.011  0.00  0.00    +0.034 A 
ATOM      2  C   LIG    1        0.114   0.604   0.789  0.00  0.00    +0.027 A 
ATOM      3  C   LIG    1        1.432   0.707   0.394  0.00  0.00    +0.047 A 
ATOM      4  C   LIG    1        1.877   0.153  -0.775  0.00  0.00    +0.121 A 
ATOM      5  C   LIG    1        0.960  -0.510  -1.542  0.00  0.00    +0.047 A 
ATOM      6  C   LIG    1       -0.379  -0.628  -1.164  0.00  0.00    +0.027 A 
ENDROOT
BRANCH   1   7
ATOM      7  N   LIG    1       -2.167  -0.174   0.416  0.00  0.00    -0.284 N 
ATOM      8  H   LIG    1       -2.408   0.296   1.347  0.00  0.00    +0.155 HD
ATOM      9  C   LIG    1       -3.207  -0.817  -0.261  0.00  0.00    +0.231 C 
ATOM     10  O   LIG    1       -3.109  -1.413  -1.351  0.00  0.00    -0.274 OA
BRANCH   9  11
ATOM     11  C   LIG    1       -4.588  -0.808   0.359  0.00  0.00    +0.175 C 
BRANCH  11  12
ATOM     12  N   LIG    1       -4.538  -0.093   1.593  0.00  0.00    -0.322 NA
ATOM     13  H   LIG    1       -5.317  -0.313   2.240  0.00  0.00    +0.119 HD
ATOM     14  H   LIG    1       -4.485   0.932   1.485  0.00  0.00    +0.119 HD
ENDBRANCH  11  12
ENDBRANCH   9  11
ENDBRANCH   1   7
BRANCH   4  15
ATOM     15  O   LIG    1        3.173   0.249  -1.172  0.00  0.00    -0.492 OA
BRANCH  15  16
ATOM     16  C   LIG    1        4.236   0.874  -0.526  0.00  0.00    +0.225 C 
ATOM     17  C   LIG    1        4.444   0.226   0.821  0.00  0.00    +0.048 C 
ENDBRANCH  15  16
ENDBRANCH   4  15
TORSDOF 5
