REMARK  Name = molecules/LRSFXIJGHRPOQQ-VZRQQIPSSA-N.pdb
REMARK                            x       y       z     vdW  Elec       q    Type
REMARK                         _______ _______ _______ _____ _____    ______ ____
ROOT
ATOM      1  C   LIG    1       -1.798   0.622  -2.219  0.00  0.00    +0.015 C 
ATOM      2  C   LIG    1       -2.317  -0.582  -1.513  0.00  0.00    +0.008 C 
ATOM      3  C   LIG    1       -2.389  -0.405  -0.049  0.00  0.00    +0.011 C 
ATOM      4  C   LIG    1       -1.043  -0.469   0.606  0.00  0.00    +0.009 C 
ATOM      5  C   LIG    1       -0.218  -1.621   0.142  0.00  0.00    +0.023 C 
ATOM      6  C   LIG    1        1.131  -1.629   0.705  0.00  0.00    -0.041 A 
ATOM      7  C   LIG    1        1.390  -1.179   1.999  0.00  0.00    +0.008 A 
ATOM      8  C   LIG    1        2.647  -1.208   2.560  0.00  0.00    +0.046 A 
ATOM      9  C   LIG    1        3.744  -1.699   1.850  0.00  0.00    +0.132 A 
ATOM     10  C   LIG    1        3.499  -2.143   0.572  0.00  0.00    +0.050 A 
ATOM     11  C   LIG    1        2.215  -2.111   0.001  0.00  0.00    -0.040 A 
ATOM     12  C   LIG    1        2.121  -2.608  -1.403  0.00  0.00    +0.036 C 
ATOM     13  C   LIG    1        0.689  -2.940  -1.700  0.00  0.00    +0.009 C 
ATOM     14  C   LIG    1       -0.158  -1.722  -1.381  0.00  0.00    +0.000 C 
ATOM     15  C   LIG    1       -1.557  -1.859  -1.838  0.00  0.00    +0.002 C 
ATOM     16  C   LIG    1       -1.792  -1.990  -3.304  0.00  0.00    +0.008 C 
ATOM     17  C   LIG    1       -3.258  -1.561  -3.464  0.00  0.00    +0.045 C 
ATOM     18  C   LIG    1       -3.658  -0.985  -2.127  0.00  0.00    +0.183 C 
ENDROOT
BRANCH  18  19
ATOM     19  O   LIG    1       -4.446   0.164  -2.307  0.00  0.00    -0.461 OA
BRANCH  19  20
ATOM     20  C   LIG    1       -5.685   0.319  -1.714  0.00  0.00    +0.312 C 
ATOM     21  O   LIG    1       -6.073  -0.661  -0.980  0.00  0.00    -0.250 OA
BRANCH  20  22
ATOM     22  C   LIG    1       -6.562   1.516  -1.869  0.00  0.00    +0.155 C 
BRANCH  22  23
ATOM     23  C   LIG    1       -7.777   1.341  -1.061  0.00  0.00    -0.037 A 
ATOM     24  C   LIG    1       -7.790   1.724   0.250  0.00  0.00    +0.006 A 
ATOM     25  C   LIG    1       -8.920   1.565   1.033  0.00  0.00    +0.023 A 
ATOM     26  C   LIG    1      -10.073   1.010   0.500  0.00  0.00    +0.030 A 
ATOM     27  C   LIG    1      -10.059   0.625  -0.823  0.00  0.00    +0.023 A 
ATOM     28  C   LIG    1       -8.909   0.790  -1.607  0.00  0.00    +0.006 A 
BRANCH  26  29
ATOM     29  N   LIG    1      -11.245   0.829   1.250  0.00  0.00    -0.328 N 
BRANCH  29  30
ATOM     30  C   LIG    1      -11.405  -0.360   2.079  0.00  0.00    +0.121 C 
BRANCH  30  31
ATOM     31  C   LIG    1      -12.491  -1.235   1.481  0.00  0.00    +0.127 C 
ATOM     32 CL   LIG    1      -12.746  -2.700   2.441  0.00  0.00    -0.124 Cl
ENDBRANCH  30  31
ENDBRANCH  29  30
BRANCH  29  33
ATOM     33  C   LIG    1      -12.301   1.792   1.211  0.00  0.00    +0.121 C 
BRANCH  33  34
ATOM     34  C   LIG    1      -12.058   2.960   0.318  0.00  0.00    +0.127 C 
ATOM     35 CL   LIG    1      -10.648   3.929   0.741  0.00  0.00    -0.124 Cl
ENDBRANCH  33  34
ENDBRANCH  29  33
ENDBRANCH  26  29
ENDBRANCH  22  23
ENDBRANCH  20  22
ENDBRANCH  19  20
ENDBRANCH  18  19
BRANCH   9  36
ATOM     36  O   LIG    1        4.972  -1.705   2.477  0.00  0.00    -0.426 OA
BRANCH  36  37
ATOM     37  C   LIG    1        6.080  -1.042   1.991  0.00  0.00    +0.317 C 
ATOM     38  O   LIG    1        5.956  -0.409   0.916  0.00  0.00    -0.250 OA
BRANCH  37  39
ATOM     39  C   LIG    1        7.316  -1.145   2.792  0.00  0.00    +0.156 C 
BRANCH  39  40
ATOM     40  C   LIG    1        8.496  -0.506   2.203  0.00  0.00    -0.037 A 
ATOM     41  C   LIG    1        8.793   0.831   2.257  0.00  0.00    +0.006 A 
ATOM     42  C   LIG    1        9.944   1.333   1.688  0.00  0.00    +0.023 A 
ATOM     43  C   LIG    1       10.864   0.543   1.034  0.00  0.00    +0.030 A 
ATOM     44  C   LIG    1       10.572  -0.814   0.973  0.00  0.00    +0.023 A 
ATOM     45  C   LIG    1        9.425  -1.328   1.538  0.00  0.00    +0.006 A 
BRANCH  43  46
ATOM     46  N   LIG    1       12.044   1.081   0.453  0.00  0.00    -0.328 N 
BRANCH  46  47
ATOM     47  C   LIG    1       12.101   1.351  -0.948  0.00  0.00    +0.121 C 
BRANCH  47  48
ATOM     48  C   LIG    1       10.849   0.959  -1.701  0.00  0.00    +0.127 C 
ATOM     49 CL   LIG    1       11.039   1.330  -3.421  0.00  0.00    -0.124 Cl
ENDBRANCH  47  48
ENDBRANCH  46  47
BRANCH  46  50
ATOM     50  C   LIG    1       13.198   1.377   1.278  0.00  0.00    +0.121 C 
BRANCH  50  51
ATOM     51  C   LIG    1       13.345   2.892   1.329  0.00  0.00    +0.127 C 
ATOM     52 CL   LIG    1       14.774   3.264   2.357  0.00  0.00    -0.124 Cl
ENDBRANCH  50  51
ENDBRANCH  46  50
ENDBRANCH  43  46
ENDBRANCH  39  40
ENDBRANCH  37  39
ENDBRANCH  36  37
ENDBRANCH   9  36
TORSDOF 18
