REMARK  Name = molecules/LSNWBKACGXCGAJ-CYBMUJFWSA-N.pdb
REMARK                            x       y       z     vdW  Elec       q    Type
REMARK                         _______ _______ _______ _____ _____    ______ ____
ROOT
ATOM      1  C   LIG    1       -0.142  -1.241   0.897  0.00  0.00    +0.166 C 
ATOM      2  C   LIG    1       -1.073  -0.273   0.898  0.00  0.00    +0.186 C 
ATOM      3  N   LIG    1       -2.232  -0.433   0.045  0.00  0.00    -0.159 NA
ATOM      4  C   LIG    1       -3.595  -0.268   0.502  0.00  0.00    +0.133 C 
ATOM      5  S   LIG    1       -1.923  -0.994  -1.552  0.00  0.00    +0.062 S 
ATOM      6  C   LIG    1       -0.830  -2.361  -1.249  0.00  0.00    +0.112 A 
ATOM      7  C   LIG    1       -0.772  -3.376  -2.128  0.00  0.00    +0.029 A 
ATOM      8  C   LIG    1        0.133  -4.438  -1.982  0.00  0.00    +0.002 A 
ATOM      9  C   LIG    1        0.954  -4.370  -0.880  0.00  0.00    +0.000 A 
ATOM     10  C   LIG    1        0.875  -3.326   0.004  0.00  0.00    +0.008 A 
ATOM     11  O   LIG    1       -3.152  -1.434  -2.253  0.00  0.00    -0.153 OA
ATOM     12  O   LIG    1       -1.245   0.068  -2.352  0.00  0.00    -0.153 OA
ATOM     13  C   LIG    1       -0.030  -2.262  -0.140  0.00  0.00    +0.016 A 
ENDROOT
BRANCH   2  14
ATOM     14  C   LIG    1       -1.139   0.750   1.912  0.00  0.00    +0.246 C 
ATOM     15  O   LIG    1       -0.377   0.531   2.962  0.00  0.00    -0.273 OA
ATOM     16  N   LIG    1       -1.886   1.892   1.969  0.00  0.00    -0.269 N 
ATOM     17  H   LIG    1       -1.790   2.468   2.891  0.00  0.00    +0.156 HD
BRANCH  16  18
ATOM     18  C   LIG    1       -2.617   2.607   1.003  0.00  0.00    +0.125 A 
ATOM     19  C   LIG    1       -3.471   3.668   1.340  0.00  0.00    +0.044 A 
ATOM     20  C   LIG    1       -4.105   4.419   0.375  0.00  0.00    +0.005 A 
ATOM     21  C   LIG    1       -3.917   4.146  -0.962  0.00  0.00    +0.020 A 
ATOM     22  C   LIG    1       -3.069   3.094  -1.272  0.00  0.00    +0.113 A 
ATOM     23  N   LIG    1       -2.476   2.393  -0.311  0.00  0.00    -0.240 NA
ENDBRANCH  16  18
ENDBRANCH   2  14
BRANCH   1  24
ATOM     24  O   LIG    1        0.771  -1.255   1.918  0.00  0.00    -0.324 OA
BRANCH  24  25
ATOM     25  C   LIG    1        2.047  -0.679   1.925  0.00  0.00    +0.312 C 
ATOM     26  C   LIG    1        2.666  -1.029   3.289  0.00  0.00    +0.085 C 
BRANCH  25  27
ATOM     27  O   LIG    1        2.948  -1.128   0.969  0.00  0.00    -0.404 OA
BRANCH  27  28
ATOM     28  C   LIG    1        3.604  -0.209   0.169  0.00  0.00    +0.512 C 
ATOM     29  O   LIG    1        3.365   1.036   0.327  0.00  0.00    -0.203 OA
BRANCH  28  30
ATOM     30  O   LIG    1        4.515  -0.531  -0.810  0.00  0.00    -0.434 OA
BRANCH  30  31
ATOM     31  C   LIG    1        5.171   0.414  -1.613  0.00  0.00    +0.232 C 
ATOM     32  C   LIG    1        4.236   1.255  -2.428  0.00  0.00    +0.048 C 
ENDBRANCH  30  31
ENDBRANCH  28  30
ENDBRANCH  27  28
ENDBRANCH  25  27
ENDBRANCH  24  25
ENDBRANCH   1  24
TORSDOF 8
