REMARK  Name = molecules/LTINZAODLRIQIX-OLEGMKQCSA-N.pdb
REMARK                            x       y       z     vdW  Elec       q    Type
REMARK                         _______ _______ _______ _____ _____    ______ ____
ROOT
ATOM      1  C   LIG    1       -0.483   1.452  -0.429  0.00  0.00    +0.124 C 
ATOM      2  N   LIG    1        0.741   0.938   0.138  0.00  0.00    -0.249 N 
ATOM      3  C   LIG    1        1.384   0.011   0.975  0.00  0.00    +0.244 C 
ATOM      4  O   LIG    1        1.034  -0.888   1.807  0.00  0.00    -0.273 OA
ATOM      5  C   LIG    1        2.713   0.454   0.544  0.00  0.00    +0.191 C 
ATOM      6  C   LIG    1        2.002   1.544  -0.206  0.00  0.00    +0.169 C 
ATOM      7  S   LIG    1        2.141   1.512  -1.980  0.00  0.00    -0.131 S 
ATOM      8  C   LIG    1        0.526   1.454  -2.715  0.00  0.00    +0.106 C 
ATOM      9  C   LIG    1       -0.571   1.705  -1.717  0.00  0.00    -0.006 C 
ENDROOT
BRANCH   5  10
ATOM     10  N   LIG    1        3.413  -0.535  -0.274  0.00  0.00    -0.296 N 
ATOM     11  C   LIG    1        4.731  -0.904   0.005  0.00  0.00    +0.268 C 
ATOM     12  O   LIG    1        5.231  -0.292   1.023  0.00  0.00    -0.268 OA
ATOM     13  H   LIG    1        2.874  -0.932  -1.060  0.00  0.00    +0.150 HD
BRANCH  11  14
ATOM     14  C   LIG    1        5.571  -1.845  -0.671  0.00  0.00    +0.190 C 
ATOM     15  N   LIG    1        5.130  -2.487  -1.683  0.00  0.00    -0.078 NA
BRANCH  14  16
ATOM     16  C   LIG    1        6.990  -2.103  -0.220  0.00  0.00    +0.107 A 
ATOM     17  C   LIG    1        7.560  -1.474   0.840  0.00  0.00    +0.078 A 
ATOM     18  S   LIG    1        9.149  -2.179   0.844  0.00  0.00    -0.060 S 
ATOM     19  C   LIG    1        8.954  -3.208  -0.498  0.00  0.00    +0.156 A 
ATOM     20  N   LIG    1        7.717  -2.968  -0.871  0.00  0.00    -0.223 NA
BRANCH  19  21
ATOM     21  N   LIG    1        9.904  -4.129  -1.091  0.00  0.00    -0.338 N 
ATOM     22  H   LIG    1       10.396  -4.817  -0.502  0.00  0.00    +0.144 HD
ATOM     23  H   LIG    1       10.048  -4.051  -2.106  0.00  0.00    +0.144 HD
ENDBRANCH  19  21
ENDBRANCH  14  16
BRANCH  15  24
ATOM     24  O   LIG    1        3.905  -2.377  -2.216  0.00  0.00    -0.396 OA
ATOM     25  C   LIG    1        3.182  -3.569  -2.521  0.00  0.00    +0.313 C 
ENDBRANCH  15  24
ENDBRANCH  11  14
ENDBRANCH   5  10
BRANCH   1  26
ATOM     26  C   LIG    1       -1.560   1.638   0.542  0.00  0.00    +0.357 C 
ATOM     27  O   LIG    1       -1.345   1.325   1.762  0.00  0.00    -0.243 OA
BRANCH  26  28
ATOM     28  O   LIG    1       -2.798   2.118   0.288  0.00  0.00    -0.420 OA
BRANCH  28  29
ATOM     29  C   LIG    1       -3.790   2.274   1.267  0.00  0.00    +0.371 C 
ATOM     30  C   LIG    1       -4.149   3.730   1.371  0.00  0.00    +0.101 C 
BRANCH  29  31
ATOM     31  O   LIG    1       -4.945   1.488   0.947  0.00  0.00    -0.394 OA
BRANCH  31  32
ATOM     32  C   LIG    1       -5.340   0.455   1.809  0.00  0.00    +0.513 C 
ATOM     33  O   LIG    1       -4.640   0.272   2.837  0.00  0.00    -0.203 OA
BRANCH  32  34
ATOM     34  O   LIG    1       -6.435  -0.353   1.587  0.00  0.00    -0.431 OA
BRANCH  34  35
ATOM     35  C   LIG    1       -6.785  -1.377   2.487  0.00  0.00    +0.174 C 
ATOM     36  C   LIG    1       -8.125  -1.133   3.142  0.00  0.00    +0.052 C 
ATOM     37  C   LIG    1       -6.745  -2.739   1.866  0.00  0.00    +0.052 C 
ENDBRANCH  34  35
ENDBRANCH  32  34
ENDBRANCH  31  32
ENDBRANCH  29  31
ENDBRANCH  28  29
ENDBRANCH  26  28
ENDBRANCH   1  26
BRANCH   9  38
ATOM     38  C   LIG    1       -1.843   2.234  -2.314  0.00  0.00    +0.193 C 
BRANCH  38  39
ATOM     39  O   LIG    1       -1.615   3.483  -2.913  0.00  0.00    -0.379 OA
ATOM     40  C   LIG    1       -1.152   4.408  -1.976  0.00  0.00    +0.194 C 
ENDBRANCH  38  39
ENDBRANCH   9  38
TORSDOF 14
