REMARK  Name = molecules/LTMHDMANZUZIPE-PUGKRICDSA-N.pdb
REMARK                            x       y       z     vdW  Elec       q    Type
REMARK                         _______ _______ _______ _____ _____    ______ ____
ROOT
ATOM      1  C   LIG    1       -0.508  -1.216   0.134  0.00  0.00    +0.253 C 
ATOM      2  C   LIG    1       -1.581  -0.232   0.582  0.00  0.00    +0.095 C 
ATOM      3  C   LIG    1       -2.233   0.270  -0.712  0.00  0.00    +0.151 C 
ATOM      4  C   LIG    1       -3.131  -0.865  -1.168  0.00  0.00    +0.178 C 
ATOM      5  C   LIG    1       -2.327  -2.139  -0.975  0.00  0.00    +0.150 C 
ATOM      6  C   LIG    1       -2.632  -3.093  -2.109  0.00  0.00    +0.041 C 
ATOM      7  O   LIG    1       -0.968  -1.843  -1.016  0.00  0.00    -0.346 OA
ENDROOT
BRANCH   3   8
ATOM      8  O   LIG    1       -2.922   1.448  -0.503  0.00  0.00    -0.389 OA
ATOM      9  H   LIG    1       -2.901   2.068  -1.273  0.00  0.00    +0.210 HD
ENDBRANCH   3   8
BRANCH   1  10
ATOM     10  O   LIG    1        0.585  -0.423  -0.265  0.00  0.00    -0.348 OA
BRANCH  10  17
ATOM     11  C   LIG    1        7.817   0.151   1.008  0.00  0.00    +0.077 C 
ATOM     12  C   LIG    1        6.400   0.603   1.036  0.00  0.00    +0.025 C 
ATOM     13  C   LIG    1        5.787   0.139   2.345  0.00  0.00    +0.007 C 
ATOM     14  C   LIG    1        4.361  -0.282   2.210  0.00  0.00    +0.004 C 
ATOM     15  C   LIG    1        3.639   0.653   1.255  0.00  0.00    -0.002 C 
ATOM     16  C   LIG    1        2.156   0.419   1.234  0.00  0.00    +0.035 C 
ATOM     17  C   LIG    1        1.750  -0.793   0.447  0.00  0.00    +0.122 C 
ATOM     18  C   LIG    1        2.756  -1.224  -0.567  0.00  0.00    +0.032 C 
ATOM     19  C   LIG    1        3.410   0.010  -1.151  0.00  0.00    +0.010 C 
ATOM     20  C   LIG    1        4.267   0.692  -0.105  0.00  0.00    -0.026 C 
ATOM     21  C   LIG    1        4.505   2.112  -0.574  0.00  0.00    +0.012 C 
ATOM     22  C   LIG    1        5.638   0.001  -0.089  0.00  0.00    +0.003 C 
ATOM     23  C   LIG    1        6.295   0.071  -1.417  0.00  0.00    +0.036 C 
ATOM     24  C   LIG    1        7.703   0.448  -1.484  0.00  0.00    +0.124 C 
ATOM     25  C   LIG    1        7.996  -1.347   0.935  0.00  0.00    +0.036 C 
ATOM     26  C   LIG    1        9.473  -1.438   0.533  0.00  0.00    +0.011 C 
ATOM     27  C   LIG    1        9.762  -0.193  -0.263  0.00  0.00    +0.030 C 
ATOM     28  C   LIG    1        8.489   0.610  -0.226  0.00  0.00    +0.029 C 
ATOM     29  C   LIG    1        8.816   2.097  -0.027  0.00  0.00    +0.017 C 
BRANCH  27  30
ATOM     30  C   LIG    1       10.979   0.502   0.148  0.00  0.00    -0.022 C 
ATOM     31  C   LIG    1       11.412   1.098   1.415  0.00  0.00    +0.264 C 
ATOM     32  O   LIG    1       12.699   1.645   1.253  0.00  0.00    -0.457 OA
ATOM     33  C   LIG    1       13.086   1.418  -0.044  0.00  0.00    +0.332 C 
ATOM     34  O   LIG    1       14.188   1.758  -0.591  0.00  0.00    -0.246 OA
ATOM     35  C   LIG    1       12.005   0.712  -0.697  0.00  0.00    +0.094 C 
ENDBRANCH  27  30
BRANCH  11  36
ATOM     36  O   LIG    1        8.435   0.639   2.144  0.00  0.00    -0.388 OA
ATOM     37  H   LIG    1        7.876   1.202   2.703  0.00  0.00    +0.210 HD
ENDBRANCH  11  36
BRANCH  24  38
ATOM     38  O   LIG    1        7.904   1.607  -2.256  0.00  0.00    -0.391 OA
ATOM     39  H   LIG    1        7.038   1.866  -2.640  0.00  0.00    +0.210 HD
ENDBRANCH  24  38
ENDBRANCH  10  17
ENDBRANCH   1  10
BRANCH   4  40
ATOM     40  O   LIG    1       -4.267  -0.817  -0.422  0.00  0.00    -0.343 OA
BRANCH  40  41
ATOM     41  C   LIG    1       -5.440  -0.611  -1.121  0.00  0.00    +0.254 C 
ATOM     42  O   LIG    1       -6.050   0.608  -0.891  0.00  0.00    -0.346 OA
ATOM     43  C   LIG    1       -6.700   0.561   0.329  0.00  0.00    +0.150 C 
ATOM     44  C   LIG    1       -5.759   0.170   1.443  0.00  0.00    +0.041 C 
ATOM     45  C   LIG    1       -7.884  -0.399   0.300  0.00  0.00    +0.178 C 
ATOM     46  C   LIG    1       -7.437  -1.785  -0.106  0.00  0.00    +0.151 C 
ATOM     47  C   LIG    1       -6.366  -1.779  -1.141  0.00  0.00    +0.095 C 
BRANCH  46  48
ATOM     48  O   LIG    1       -8.553  -2.467  -0.588  0.00  0.00    -0.389 OA
ATOM     49  H   LIG    1       -8.592  -2.442  -1.580  0.00  0.00    +0.210 HD
ENDBRANCH  46  48
BRANCH  45  50
ATOM     50  O   LIG    1       -8.927   0.083  -0.453  0.00  0.00    -0.343 OA
BRANCH  50  51
ATOM     51  C   LIG    1      -10.085   0.341   0.271  0.00  0.00    +0.254 C 
ATOM     52  C   LIG    1      -10.471   1.772  -0.019  0.00  0.00    +0.095 C 
ATOM     53  C   LIG    1      -11.816   2.031   0.566  0.00  0.00    +0.150 C 
ATOM     54  C   LIG    1      -12.394   0.849   1.283  0.00  0.00    +0.172 C 
ATOM     55  C   LIG    1      -12.245  -0.438   0.512  0.00  0.00    +0.149 C 
ATOM     56  C   LIG    1      -13.429  -0.723  -0.387  0.00  0.00    +0.041 C 
ATOM     57  O   LIG    1      -11.080  -0.481  -0.238  0.00  0.00    -0.346 OA
BRANCH  53  58
ATOM     58  O   LIG    1      -11.686   3.089   1.492  0.00  0.00    -0.389 OA
ATOM     59  H   LIG    1      -11.914   2.832   2.400  0.00  0.00    +0.210 HD
ENDBRANCH  53  58
BRANCH  54  60
ATOM     60  O   LIG    1      -11.866   0.754   2.583  0.00  0.00    -0.387 OA
ATOM     61  H   LIG    1      -12.139  -0.136   2.915  0.00  0.00    +0.210 HD
ENDBRANCH  54  60
ENDBRANCH  50  51
ENDBRANCH  45  50
ENDBRANCH  40  41
ENDBRANCH   4  40
TORSDOF 13
