REMARK  Name = molecules/LTXREWYXXSTFRX-QGZVFWFLSA-N.pdb
REMARK                            x       y       z     vdW  Elec       q    Type
REMARK                         _______ _______ _______ _____ _____    ______ ____
ROOT
ATOM      1  N   LIG    1        1.595   1.067  -1.834  0.00  0.00    -0.252 N 
ATOM      2  C   LIG    1        0.542   1.362  -1.052  0.00  0.00    +0.283 A 
ATOM      3  O   LIG    1        0.562   2.381  -0.331  0.00  0.00    -0.265 OA
ATOM      4  C   LIG    1       -0.566   0.548  -1.036  0.00  0.00    +0.154 A 
ATOM      5  N   LIG    1       -1.748   0.609  -0.355  0.00  0.00    -0.295 N 
ATOM      6  C   LIG    1       -2.434  -0.470  -0.758  0.00  0.00    +0.202 A 
ATOM      7  N   LIG    1       -1.695  -1.182  -1.666  0.00  0.00    -0.196 NA
ATOM      8  C   LIG    1       -0.541  -0.562  -1.845  0.00  0.00    +0.170 A 
ATOM      9  N   LIG    1        0.514  -0.867  -2.636  0.00  0.00    -0.279 N 
ATOM     10  C   LIG    1        0.558  -2.029  -3.497  0.00  0.00    +0.155 C 
ATOM     11  C   LIG    1        1.567  -0.031  -2.606  0.00  0.00    +0.334 A 
ATOM     12  O   LIG    1        2.579  -0.279  -3.334  0.00  0.00    -0.246 OA
ENDROOT
BRANCH   6  13
ATOM     13  N   LIG    1       -3.756  -0.812  -0.325  0.00  0.00    -0.299 N 
ATOM     14  C   LIG    1       -4.028  -2.176   0.080  0.00  0.00    +0.108 C 
ATOM     15  C   LIG    1       -4.965  -2.795  -0.929  0.00  0.00    +0.020 C 
ATOM     16  C   LIG    1       -5.543  -1.673  -1.789  0.00  0.00    +0.021 C 
ATOM     17  C   LIG    1       -6.074  -0.553  -0.933  0.00  0.00    +0.068 C 
ATOM     18  C   LIG    1       -4.855   0.132  -0.292  0.00  0.00    +0.126 C 
BRANCH  17  19
ATOM     19  N   LIG    1       -7.020  -1.004   0.067  0.00  0.00    -0.326 NA
ATOM     20  H   LIG    1       -7.835  -0.324   0.108  0.00  0.00    +0.119 HD
ATOM     21  H   LIG    1       -7.426  -1.913  -0.259  0.00  0.00    +0.119 HD
ENDBRANCH  17  19
ENDBRANCH   6  13
BRANCH   1  22
ATOM     22  C   LIG    1        2.741   1.985  -1.783  0.00  0.00    +0.206 C 
BRANCH  22  31
ATOM     23  C   LIG    1        4.175   1.701   2.817  0.00  0.00    +0.028 A 
ATOM     24  C   LIG    1        5.030   1.232   3.792  0.00  0.00    +0.002 A 
ATOM     25  C   LIG    1        6.086   0.400   3.462  0.00  0.00    +0.001 A 
ATOM     26  C   LIG    1        6.237   0.071   2.143  0.00  0.00    +0.012 A 
ATOM     27  C   LIG    1        5.381   0.538   1.148  0.00  0.00    +0.021 A 
ATOM     28  C   LIG    1        5.541   0.199  -0.170  0.00  0.00    +0.049 A 
ATOM     29  C   LIG    1        6.649  -0.686  -0.600  0.00  0.00    +0.066 C 
ATOM     30  N   LIG    1        4.680   0.677  -1.091  0.00  0.00    -0.235 NA
ATOM     31  C   LIG    1        3.678   1.477  -0.715  0.00  0.00    +0.150 A 
ATOM     32  N   LIG    1        3.462   1.850   0.556  0.00  0.00    -0.230 NA
ATOM     33  C   LIG    1        4.332   1.366   1.489  0.00  0.00    +0.075 A 
ENDBRANCH  22  31
ENDBRANCH   1  22
BRANCH   5  34
ATOM     34  C   LIG    1       -2.094   1.659   0.586  0.00  0.00    +0.214 C 
BRANCH  34  35
ATOM     35  C   LIG    1       -1.641   1.327   1.962  0.00  0.00    -0.081 C 
ATOM     36  C   LIG    1       -1.266   1.077   3.080  0.00  0.00    -0.104 C 
ATOM     37  C   LIG    1       -0.787   0.788   4.434  0.00  0.00    +0.106 C 
ENDBRANCH  34  35
ENDBRANCH   5  34
TORSDOF 6
