REMARK  Name = molecules/LUBHDINQXIHVLS-UHFFFAOYSA-N.pdb
REMARK                            x       y       z     vdW  Elec       q    Type
REMARK                         _______ _______ _______ _____ _____    ______ ____
ROOT
ATOM      1  C   LIG    1        0.947  -0.635  -0.489  0.00  0.00    +0.011 A 
ATOM      2  C   LIG    1       -0.397  -0.365  -0.286  0.00  0.00    -0.008 A 
ATOM      3  C   LIG    1       -1.368  -1.319  -0.137  0.00  0.00    -0.002 A 
ATOM      4  C   LIG    1       -2.706  -1.068   0.064  0.00  0.00    +0.104 A 
ATOM      5  C   LIG    1       -3.094   0.281   0.117  0.00  0.00    +0.132 A 
ATOM      6  C   LIG    1       -2.145   1.271  -0.027  0.00  0.00    +0.047 A 
ATOM      7  C   LIG    1       -0.970  -2.660  -0.194  0.00  0.00    +0.009 A 
ATOM      8  C   LIG    1        0.362  -2.950  -0.395  0.00  0.00    +0.001 A 
ATOM      9  C   LIG    1       -0.810   0.968  -0.227  0.00  0.00    +0.013 A 
ATOM     10  C   LIG    1        1.327  -1.964  -0.543  0.00  0.00    +0.011 A 
ENDROOT
BRANCH   4  11
ATOM     11  C   LIG    1       -3.719  -2.149   0.225  0.00  0.00    +0.421 C 
ATOM     12  F   LIG    1       -3.476  -2.961   1.303  0.00  0.00    -0.166 F 
ATOM     13  F   LIG    1       -4.958  -1.576   0.404  0.00  0.00    -0.166 F 
ATOM     14  F   LIG    1       -3.811  -2.915  -0.937  0.00  0.00    -0.166 F 
ENDBRANCH   4  11
BRANCH   1  15
ATOM     15  C   LIG    1        1.901   0.454  -0.637  0.00  0.00    +0.083 C 
ATOM     16  S   LIG    1        1.882   1.429  -1.954  0.00  0.00    -0.035 S 
BRANCH  15  17
ATOM     17  N   LIG    1        2.872   0.696   0.352  0.00  0.00    -0.316 N 
ATOM     18  C   LIG    1        2.889  -0.176   1.518  0.00  0.00    +0.130 C 
BRANCH  17  19
ATOM     19  C   LIG    1        3.848   1.768   0.255  0.00  0.00    +0.225 C 
BRANCH  19  20
ATOM     20  C   LIG    1        4.805   1.482  -0.844  0.00  0.00    +0.322 C 
ATOM     21  O   LIG    1        4.632   0.450  -1.531  0.00  0.00    -0.249 OA
BRANCH  20  22
ATOM     22  O   LIG    1        5.874   2.337  -1.111  0.00  0.00    -0.480 OA
ATOM     23  H   LIG    1        5.838   3.054  -1.828  0.00  0.00    +0.295 HD
ENDBRANCH  20  22
ENDBRANCH  19  20
ENDBRANCH  17  19
ENDBRANCH  15  17
ENDBRANCH   1  15
BRANCH   5  24
ATOM     24  O   LIG    1       -4.438   0.504   0.317  0.00  0.00    -0.495 OA
ATOM     25  C   LIG    1       -4.979   1.775   0.393  0.00  0.00    +0.277 C 
ENDBRANCH   5  24
TORSDOF 7
