REMARK  Name = molecules/LUMAEVHDZXIGEP-BDJLRTHQSA-N.pdb
REMARK                            x       y       z     vdW  Elec       q    Type
REMARK                         _______ _______ _______ _____ _____    ______ ____
ROOT
ATOM      1  N   LIG    1        0.328  -1.050  -0.288  0.00  0.00    -0.310 NA
ATOM      2  H   LIG    1        0.278  -2.000   0.141  0.00  0.00    +0.122 HD
ENDROOT
BRANCH   1   4
ATOM      3  C   LIG    1       -1.588  -0.837   1.027  0.00  0.00    +0.024 C 
ATOM      4  C   LIG    1       -0.863  -0.325  -0.271  0.00  0.00    +0.055 C 
BRANCH   4   5
ATOM      5  C   LIG    1       -1.759  -0.753  -1.451  0.00  0.00    +0.053 C 
BRANCH   5   6
ATOM      6  C   LIG    1       -3.120  -0.224  -1.262  0.00  0.00    -0.042 A 
ATOM      7  C   LIG    1       -4.032  -1.054  -0.602  0.00  0.00    +0.053 A 
ATOM      8  C   LIG    1       -5.313  -0.600  -0.384  0.00  0.00    +0.166 A 
ATOM      9  O   LIG    1       -6.437  -1.185   0.237  0.00  0.00    -0.453 OA
ATOM     10  C   LIG    1       -7.285  -0.114   0.669  0.00  0.00    +0.466 C 
ATOM     11  O   LIG    1       -7.072   0.790  -0.427  0.00  0.00    -0.453 OA
ATOM     12  C   LIG    1       -5.723   0.642  -0.795  0.00  0.00    +0.166 A 
ATOM     13  C   LIG    1       -4.820   1.467  -1.447  0.00  0.00    +0.050 A 
ATOM     14  C   LIG    1       -3.523   1.004  -1.667  0.00  0.00    +0.007 A 
ENDBRANCH   5   6
ENDBRANCH   4   5
ENDBRANCH   1   4
BRANCH   1  15
ATOM     15  C   LIG    1        1.607  -0.519  -0.443  0.00  0.00    +0.117 C 
BRANCH  15  16
ATOM     16  C   LIG    1        2.093   0.410   0.613  0.00  0.00    +0.158 C 
BRANCH  16  17
ATOM     17  C   LIG    1        3.614   0.490   0.497  0.00  0.00    -0.014 A 
ATOM     18  C   LIG    1        4.193   1.199   1.540  0.00  0.00    +0.010 A 
ATOM     19  C   LIG    1        5.587   1.226   1.574  0.00  0.00    +0.049 A 
ATOM     20  C   LIG    1        6.318   0.564   0.598  0.00  0.00    +0.158 A 
ATOM     21  C   LIG    1        5.704  -0.126  -0.420  0.00  0.00    +0.159 A 
ATOM     22  C   LIG    1        4.325  -0.159  -0.464  0.00  0.00    +0.055 A 
BRANCH  20  23
ATOM     23  O   LIG    1        7.701   0.561   0.606  0.00  0.00    -0.503 OA
ATOM     24  H   LIG    1        8.170   1.073   1.364  0.00  0.00    +0.292 HD
ENDBRANCH  20  23
BRANCH  21  25
ATOM     25  O   LIG    1        6.448  -0.796  -1.406  0.00  0.00    -0.503 OA
ATOM     26  H   LIG    1        7.453  -0.773  -1.376  0.00  0.00    +0.292 HD
ENDBRANCH  21  25
ENDBRANCH  16  17
BRANCH  16  27
ATOM     27  O   LIG    1        1.954  -0.117   1.913  0.00  0.00    -0.386 OA
ATOM     28  H   LIG    1        2.150  -1.067   1.852  0.00  0.00    +0.210 HD
ENDBRANCH  16  27
ENDBRANCH  15  16
ENDBRANCH   1  15
TORSDOF 9
