REMARK  Name = molecules/LUMKNAVTFCDUIE-VHXPQNKSSA-N.pdb
REMARK                            x       y       z     vdW  Elec       q    Type
REMARK                         _______ _______ _______ _____ _____    ______ ____
ROOT
ATOM      1  C   LIG    1       -1.182  -0.713   0.191  0.00  0.00    -0.007 C 
ATOM      2  C   LIG    1       -2.143   0.240   0.290  0.00  0.00    -0.031 C 
ENDROOT
BRANCH   1   6
ATOM      3  C   LIG    1        2.802   0.452  -0.755  0.00  0.00    +0.121 A 
ATOM      4  C   LIG    1        2.547  -0.444   0.285  0.00  0.00    +0.046 A 
ATOM      5  C   LIG    1        1.270  -0.810   0.593  0.00  0.00    +0.012 A 
ATOM      6  C   LIG    1        0.182  -0.315  -0.105  0.00  0.00    -0.017 A 
ATOM      7  C   LIG    1        0.468   0.573  -1.131  0.00  0.00    +0.012 A 
ATOM      8  C   LIG    1        1.740   0.960  -1.465  0.00  0.00    +0.046 A 
BRANCH   3   9
ATOM      9  O   LIG    1        4.081   0.823  -1.067  0.00  0.00    -0.490 OA
BRANCH   9  10
ATOM     10  C   LIG    1        5.196   0.344  -0.377  0.00  0.00    +0.256 C 
BRANCH  10  11
ATOM     11  C   LIG    1        6.470   0.941  -0.967  0.00  0.00    +0.196 C 
BRANCH  11  12
ATOM     12  O   LIG    1        7.554   0.446  -0.258  0.00  0.00    -0.392 OA
ATOM     13  H   LIG    1        7.603   0.915   0.635  0.00  0.00    +0.210 HD
ENDBRANCH  11  12
ENDBRANCH  10  11
ENDBRANCH   9  10
ENDBRANCH   3   9
ENDBRANCH   1   6
BRANCH   1  14
ATOM     14  C   LIG    1       -1.534  -2.114   0.372  0.00  0.00    -0.017 A 
ATOM     15  C   LIG    1       -1.455  -2.670   1.651  0.00  0.00    +0.008 A 
ATOM     16  C   LIG    1       -1.785  -3.976   1.873  0.00  0.00    +0.001 A 
ATOM     17  C   LIG    1       -2.208  -4.798   0.851  0.00  0.00    +0.000 A 
ATOM     18  C   LIG    1       -2.291  -4.259  -0.418  0.00  0.00    +0.001 A 
ATOM     19  C   LIG    1       -1.954  -2.938  -0.626  0.00  0.00    +0.008 A 
ENDBRANCH   1  14
BRANCH   2  20
ATOM     20  C   LIG    1       -1.786   1.648   0.177  0.00  0.00    -0.021 A 
ATOM     21  C   LIG    1       -0.746   2.177   0.959  0.00  0.00    +0.008 A 
ATOM     22  C   LIG    1       -0.367   3.478   0.958  0.00  0.00    +0.001 A 
ATOM     23  C   LIG    1       -1.041   4.345   0.140  0.00  0.00    +0.000 A 
ATOM     24  C   LIG    1       -2.068   3.871  -0.645  0.00  0.00    +0.001 A 
ATOM     25  C   LIG    1       -2.436   2.535  -0.627  0.00  0.00    +0.008 A 
ENDBRANCH   2  20
BRANCH   2  26
ATOM     26  C   LIG    1       -3.476  -0.291   0.589  0.00  0.00    +0.052 C 
BRANCH  26  27
ATOM     27  C   LIG    1       -4.556   0.011  -0.405  0.00  0.00    +0.113 C 
ATOM     28 CL   LIG    1       -4.218  -0.540  -2.042  0.00  0.00    -0.125 Cl
ENDBRANCH  26  27
ENDBRANCH   2  26
TORSDOF 9
