REMARK  Name = molecules/LURMIKVZJSMXQE-UHFFFAOYSA-N.pdb
REMARK                            x       y       z     vdW  Elec       q    Type
REMARK                         _______ _______ _______ _____ _____    ______ ____
ROOT
ATOM      1  N   LIG    1        1.067   0.165  -0.545  0.00  0.00    -0.312 N 
ATOM      2  C   LIG    1        1.581   1.426  -0.137  0.00  0.00    +0.045 A 
ATOM      3  C   LIG    1        2.851   1.632   0.348  0.00  0.00    +0.034 A 
ATOM      4  C   LIG    1        3.303   2.883   0.748  0.00  0.00    +0.017 A 
ATOM      5  C   LIG    1        2.509   4.003   0.687  0.00  0.00    +0.001 A 
ATOM      6  C   LIG    1        1.235   3.824   0.207  0.00  0.00    +0.002 A 
ATOM      7  S   LIG    1        3.958   0.240   0.488  0.00  0.00    -0.089 S 
ATOM      8  C   LIG    1        3.073  -1.178  -0.073  0.00  0.00    +0.020 C 
ATOM      9  C   LIG    1        3.732  -2.361  -0.057  0.00  0.00    +0.013 C 
ATOM     10  C   LIG    1        3.150  -3.546  -0.482  0.00  0.00    +0.001 C 
ATOM     11  C   LIG    1        1.858  -3.442  -0.923  0.00  0.00    -0.002 C 
ATOM     12  C   LIG    1        1.152  -2.241  -0.952  0.00  0.00    +0.007 C 
ATOM     13  C   LIG    1        0.794   2.576  -0.189  0.00  0.00    +0.024 A 
ATOM     14  C   LIG    1        1.779  -1.067  -0.512  0.00  0.00    +0.115 C 
ENDROOT
BRANCH   1  15
ATOM     15  C   LIG    1       -0.321   0.106  -1.011  0.00  0.00    +0.122 C 
BRANCH  15  16
ATOM     16  C   LIG    1       -1.139  -0.262   0.178  0.00  0.00    +0.103 C 
BRANCH  16  17
ATOM     17  N   LIG    1       -2.546  -0.458   0.013  0.00  0.00    -0.301 NA
BRANCH  17  19
ATOM     18  C   LIG    1       -3.440   1.096  -1.718  0.00  0.00    +0.020 C 
ATOM     19  C   LIG    1       -3.347   0.671  -0.309  0.00  0.00    +0.081 C 
ENDBRANCH  17  19
BRANCH  17  20
ATOM     20  C   LIG    1       -2.959  -0.856   1.421  0.00  0.00    +0.081 C 
ATOM     21  C   LIG    1       -2.186  -2.043   1.871  0.00  0.00    +0.020 C 
ENDBRANCH  17  20
ENDBRANCH  16  17
ENDBRANCH  15  16
ENDBRANCH   1  15
TORSDOF 5
