REMARK  Name = molecules/LUZRJRNZXALNLM-JGRZULCMSA-N.pdb
REMARK                            x       y       z     vdW  Elec       q    Type
REMARK                         _______ _______ _______ _____ _____    ______ ____
ROOT
ATOM      1  C   LIG    1        2.492  -0.060  -0.920  0.00  0.00    +0.269 C 
ATOM      2  N   LIG    1        3.122   0.646   0.179  0.00  0.00    -0.233 N 
ATOM      3  C   LIG    1        2.045   1.173   0.945  0.00  0.00    +0.271 C 
ATOM      4  O   LIG    1        2.103   1.610   2.107  0.00  0.00    -0.270 OA
ATOM      5  C   LIG    1        0.850   1.085   0.059  0.00  0.00    +0.215 C 
ATOM      6  C   LIG    1        0.297   2.473  -0.092  0.00  0.00    +0.074 C 
ATOM      7  C   LIG    1        4.584   0.702   0.313  0.00  0.00    +0.171 C 
ATOM      8  C   LIG    1        5.112  -0.492  -0.348  0.00  0.00    +0.237 C 
ATOM      9  O   LIG    1        5.892  -1.298   0.188  0.00  0.00    -0.274 OA
ATOM     10  N   LIG    1        4.669  -0.706  -1.710  0.00  0.00    -0.290 N 
ATOM     11  C   LIG    1        5.279  -1.426  -2.826  0.00  0.00    +0.108 C 
ATOM     12  C   LIG    1        4.114  -1.796  -3.711  0.00  0.00    +0.021 C 
ATOM     13  C   LIG    1        2.881  -1.177  -3.086  0.00  0.00    +0.031 C 
ATOM     14  O   LIG    1        1.355   0.700  -1.181  0.00  0.00    -0.299 OA
ATOM     15  C   LIG    1        3.404  -0.140  -2.125  0.00  0.00    +0.156 C 
ENDROOT
BRANCH   5  16
ATOM     16  N   LIG    1       -0.112   0.132   0.545  0.00  0.00    -0.280 N 
ATOM     17  H   LIG    1        0.090  -0.384   1.417  0.00  0.00    +0.152 HD
ATOM     18  C   LIG    1       -1.318  -0.083  -0.178  0.00  0.00    +0.220 C 
ATOM     19  O   LIG    1       -1.560   0.556  -1.250  0.00  0.00    -0.275 OA
BRANCH  18  20
ATOM     20  C   LIG    1       -2.348  -1.050   0.268  0.00  0.00    +0.090 C 
ATOM     21  C   LIG    1       -2.780  -0.809   1.693  0.00  0.00    +0.097 C 
ATOM     22  N   LIG    1       -3.688   0.287   1.783  0.00  0.00    -0.301 NA
ATOM     23  C   LIG    1       -3.869   0.841   3.077  0.00  0.00    +0.105 C 
ATOM     24  C   LIG    1       -4.848   0.184   0.980  0.00  0.00    +0.068 C 
ATOM     25  C   LIG    1       -6.151   0.184   1.754  0.00  0.00    +0.056 C 
ATOM     26  C   LIG    1       -7.257   0.313   0.741  0.00  0.00    -0.021 A 
ATOM     27  C   LIG    1       -8.531   0.852   0.745  0.00  0.00    +0.087 A 
ATOM     28  N   LIG    1       -9.089   0.687  -0.484  0.00  0.00    -0.360 N 
ATOM     29  H   LIG    1      -10.023   0.974  -0.810  0.00  0.00    +0.165 HD
ATOM     30  C   LIG    1       -8.186   0.050  -1.271  0.00  0.00    +0.047 A 
ATOM     31  C   LIG    1       -8.121  -0.400  -2.572  0.00  0.00    +0.026 A 
ATOM     32  C   LIG    1       -6.976  -1.037  -3.045  0.00  0.00    +0.002 A 
ATOM     33  C   LIG    1       -5.864  -1.249  -2.252  0.00  0.00    +0.004 A 
ATOM     34  C   LIG    1       -5.931  -0.796  -0.947  0.00  0.00    -0.033 A 
ATOM     35  C   LIG    1       -7.065  -0.175  -0.509  0.00  0.00    +0.006 A 
ATOM     36  C   LIG    1       -4.793  -0.975   0.007  0.00  0.00    +0.038 C 
ATOM     37  C   LIG    1       -3.487  -1.036  -0.704  0.00  0.00    +0.023 C 
ENDBRANCH  18  20
ENDBRANCH   5  16
BRANCH   1  38
ATOM     38  O   LIG    1        2.076  -1.338  -0.562  0.00  0.00    -0.348 OA
ATOM     39  H   LIG    1        2.449  -1.542   0.339  0.00  0.00    +0.214 HD
ENDBRANCH   1  38
BRANCH   7  40
ATOM     40  C   LIG    1        5.003   0.974   1.702  0.00  0.00    +0.067 C 
BRANCH  40  41
ATOM     41  C   LIG    1        6.472   1.027   1.822  0.00  0.00    -0.045 A 
ATOM     42  C   LIG    1        7.218  -0.019   2.315  0.00  0.00    +0.004 A 
ATOM     43  C   LIG    1        8.609   0.075   2.449  0.00  0.00    +0.000 A 
ATOM     44  C   LIG    1        9.239   1.241   2.079  0.00  0.00    +0.000 A 
ATOM     45  C   LIG    1        8.531   2.307   1.584  0.00  0.00    +0.000 A 
ATOM     46  C   LIG    1        7.167   2.179   1.465  0.00  0.00    +0.004 A 
ENDBRANCH  40  41
ENDBRANCH   7  40
TORSDOF 5
