REMARK  Name = molecules/LVEXHFZHOIWIIP-OAHLLOKOSA-N.pdb
REMARK                            x       y       z     vdW  Elec       q    Type
REMARK                         _______ _______ _______ _____ _____    ______ ____
ROOT
ATOM      1  C   LIG    1        1.167   0.479   0.784  0.00  0.00    +0.158 C 
ENDROOT
BRANCH   1   4
ATOM      2  C   LIG    1        4.774   1.044  -0.265  0.00  0.00    +0.108 A 
ATOM      3  C   LIG    1        3.533   1.155   0.338  0.00  0.00    +0.035 A 
ATOM      4  C   LIG    1        2.469   0.323   0.036  0.00  0.00    -0.016 A 
ATOM      5  C   LIG    1        2.608  -0.667  -0.896  0.00  0.00    +0.006 A 
ATOM      6  C   LIG    1        3.845  -0.797  -1.514  0.00  0.00    +0.005 A 
ATOM      7  C   LIG    1        4.895   0.044  -1.197  0.00  0.00    -0.024 A 
ATOM      8  C   LIG    1        6.218  -0.140  -1.886  0.00  0.00    +0.046 C 
BRANCH   2   9
ATOM      9  S   LIG    1        6.067   2.115   0.195  0.00  0.00    +0.056 S 
ATOM     10  O   LIG    1        5.547   3.180   1.143  0.00  0.00    -0.153 OA
ATOM     11  O   LIG    1        6.577   2.846  -1.019  0.00  0.00    -0.153 OA
BRANCH   9  12
ATOM     12  N   LIG    1        7.385   1.341   0.941  0.00  0.00    -0.204 NA
ATOM     13  H   LIG    1        7.191   0.793   1.778  0.00  0.00    +0.144 HD
ATOM     14  H   LIG    1        8.195   1.126   0.370  0.00  0.00    +0.144 HD
ENDBRANCH   9  12
ENDBRANCH   2   9
ENDBRANCH   1   4
BRANCH   1  15
ATOM     15  O   LIG    1        1.529   0.541   2.151  0.00  0.00    -0.386 OA
ATOM     16  H   LIG    1        1.632   1.486   2.395  0.00  0.00    +0.210 HD
ENDBRANCH   1  15
BRANCH   1  17
ATOM     17  C   LIG    1        0.346  -0.771   0.566  0.00  0.00    +0.117 C 
BRANCH  17  18
ATOM     18  N   LIG    1       -0.788  -0.804   1.444  0.00  0.00    -0.310 NA
ATOM     19  H   LIG    1       -1.319   0.090   1.321  0.00  0.00    +0.122 HD
BRANCH  18  20
ATOM     20  C   LIG    1       -1.595  -1.950   1.234  0.00  0.00    +0.122 C 
BRANCH  20  21
ATOM     21  C   LIG    1       -2.426  -1.924  -0.052  0.00  0.00    +0.244 C 
BRANCH  21  22
ATOM     22  O   LIG    1       -3.280  -0.947  -0.144  0.00  0.00    -0.487 OA
BRANCH  22  23
ATOM     23  C   LIG    1       -4.116   0.018  -0.235  0.00  0.00    +0.162 A 
ATOM     24  C   LIG    1       -3.748   1.381  -0.263  0.00  0.00    +0.049 A 
ATOM     25  C   LIG    1       -4.709   2.353  -0.358  0.00  0.00    +0.004 A 
ATOM     26  C   LIG    1       -6.052   2.070  -0.430  0.00  0.00    +0.004 A 
ATOM     27  C   LIG    1       -6.438   0.748  -0.406  0.00  0.00    +0.049 A 
ATOM     28  C   LIG    1       -5.499  -0.253  -0.311  0.00  0.00    +0.161 A 
BRANCH  28  29
ATOM     29  O   LIG    1       -5.854  -1.588  -0.284  0.00  0.00    -0.491 OA
ATOM     30  C   LIG    1       -7.139  -2.118  -0.331  0.00  0.00    +0.277 C 
ENDBRANCH  28  29
ENDBRANCH  22  23
ENDBRANCH  21  22
ENDBRANCH  20  21
ENDBRANCH  18  20
ENDBRANCH  17  18
ENDBRANCH   1  17
TORSDOF 11
