REMARK  Name = molecules/LVHOURKCKUYIGK-RGUJTQARSA-N.pdb
REMARK                            x       y       z     vdW  Elec       q    Type
REMARK                         _______ _______ _______ _____ _____    ______ ____
ROOT
ATOM      1  C   LIG    1        1.313  -0.616  -2.255  0.00  0.00    +0.015 C 
ATOM      2  C   LIG    1        1.879  -0.364  -0.899  0.00  0.00    +0.011 C 
ATOM      3  C   LIG    1        1.627  -1.471   0.073  0.00  0.00    +0.011 C 
ATOM      4  C   LIG    1        0.141  -1.649   0.219  0.00  0.00    +0.005 C 
ATOM      5  C   LIG    1       -0.605  -0.395   0.502  0.00  0.00    +0.002 C 
ATOM      6  C   LIG    1       -2.077  -0.611   0.229  0.00  0.00    -0.007 C 
ATOM      7  C   LIG    1       -2.622  -1.634   1.236  0.00  0.00    +0.019 C 
ATOM      8  C   LIG    1       -4.062  -1.871   0.918  0.00  0.00    +0.080 C 
ATOM      9  C   LIG    1       -4.817  -0.594   0.916  0.00  0.00    +0.156 C 
ATOM     10  O   LIG    1       -6.072  -0.638   1.130  0.00  0.00    -0.293 OA
ATOM     11  C   LIG    1       -4.121   0.653   0.674  0.00  0.00    +0.046 C 
ATOM     12  C   LIG    1       -2.822   0.665   0.348  0.00  0.00    -0.057 C 
ATOM     13  C   LIG    1       -2.218   2.010   0.116  0.00  0.00    +0.013 C 
ATOM     14  C   LIG    1       -2.990   3.059   0.857  0.00  0.00    +0.012 C 
ATOM     15  C   LIG    1       -0.759   2.011   0.506  0.00  0.00    +0.011 C 
ATOM     16  C   LIG    1       -2.292  -1.246  -1.138  0.00  0.00    +0.016 C 
ATOM     17  C   LIG    1       -0.151   0.809  -0.236  0.00  0.00    -0.003 C 
ATOM     18  C   LIG    1        1.331   0.903  -0.252  0.00  0.00    +0.002 C 
ATOM     19  C   LIG    1        1.911   1.968  -1.100  0.00  0.00    +0.008 C 
ATOM     20  C   LIG    1        3.365   1.501  -1.255  0.00  0.00    +0.049 C 
ATOM     21  C   LIG    1        3.337  -0.001  -1.042  0.00  0.00    +0.132 C 
ENDROOT
BRANCH  21  22
ATOM     22  C   LIG    1        4.060  -0.421   0.135  0.00  0.00    -0.067 C 
ATOM     23  C   LIG    1        4.679  -0.781   1.107  0.00  0.00    -0.103 C 
ATOM     24  C   LIG    1        5.454  -1.234   2.282  0.00  0.00    +0.106 C 
ENDBRANCH  21  22
BRANCH  21  25
ATOM     25  O   LIG    1        3.900  -0.583  -2.195  0.00  0.00    -0.376 OA
ATOM     26  H   LIG    1        4.506  -1.334  -1.959  0.00  0.00    +0.211 HD
ENDBRANCH  21  25
TORSDOF 2
