REMARK  Name = molecules/LWJROJCJINYWOX-UHFFFAOYSA-L.pdb
REMARK                            x       y       z     vdW  Elec       q    Type
REMARK                         _______ _______ _______ _____ _____    ______ ____
ROOT
ATOM      1 HG   LIG    1       -0.005   0.036   0.000  0.00  0.00    +0.000 Hg
ATOM      2 CL   LIG    1        2.369  -0.018   0.000  0.00  0.00    +0.000 Cl
ATOM      3 CL   LIG    1       -2.365  -0.018   0.000  0.00  0.00    +0.000 Cl
ENDROOT
TORSDOF 0
