REMARK  Name = molecules/LWPXJPFOEPMIRG-UHFFFAOYSA-N.pdb
REMARK                            x       y       z     vdW  Elec       q    Type
REMARK                         _______ _______ _______ _____ _____    ______ ____
ROOT
ATOM      1  C   LIG    1       -1.192   0.084  -0.660  0.00  0.00    +0.178 C 
ENDROOT
BRANCH   1   2
ATOM      2  C   LIG    1       -2.086   1.149  -0.126  0.00  0.00    +0.001 A 
ATOM      3  C   LIG    1       -2.199   1.407   1.235  0.00  0.00    +0.008 A 
ATOM      4  C   LIG    1       -3.016   2.396   1.730  0.00  0.00    +0.000 A 
ATOM      5  C   LIG    1       -3.756   3.167   0.847  0.00  0.00    +0.000 A 
ATOM      6  C   LIG    1       -3.646   2.912  -0.507  0.00  0.00    +0.000 A 
ATOM      7  C   LIG    1       -2.815   1.906  -1.007  0.00  0.00    +0.008 A 
ENDBRANCH   1   2
BRANCH   1   8
ATOM      8  C   LIG    1       -1.925  -1.192  -0.640  0.00  0.00    +0.001 A 
ATOM      9  C   LIG    1       -1.621  -2.260   0.173  0.00  0.00    +0.008 A 
ATOM     10  C   LIG    1       -2.369  -3.423   0.116  0.00  0.00    +0.000 A 
ATOM     11  C   LIG    1       -3.438  -3.553  -0.748  0.00  0.00    +0.000 A 
ATOM     12  C   LIG    1       -3.748  -2.497  -1.561  0.00  0.00    +0.000 A 
ATOM     13  C   LIG    1       -2.994  -1.341  -1.496  0.00  0.00    +0.008 A 
ENDBRANCH   1   8
BRANCH   1  14
ATOM     14  C   LIG    1        0.045   0.020   0.168  0.00  0.00    -0.057 C 
ATOM     15  C   LIG    1        1.035  -0.003   0.856  0.00  0.00    -0.083 C 
BRANCH  15  16
ATOM     16  C   LIG    1        2.200   0.002   1.700  0.00  0.00    +0.174 C 
BRANCH  16  17
ATOM     17  N   LIG    1        3.402   0.035   1.025  0.00  0.00    -0.292 NA
ATOM     18  C   LIG    1        3.799   1.221   0.327  0.00  0.00    +0.085 C 
ATOM     19  C   LIG    1        5.262   0.862   0.024  0.00  0.00    +0.017 C 
ATOM     20  C   LIG    1        5.331  -0.661   0.073  0.00  0.00    +0.017 C 
ATOM     21  C   LIG    1        3.858  -1.085   0.271  0.00  0.00    +0.085 C 
ENDBRANCH  16  17
ENDBRANCH  15  16
ENDBRANCH   1  14
BRANCH   1  22
ATOM     22  O   LIG    1       -0.842   0.448  -1.954  0.00  0.00    -0.369 OA
ATOM     23  H   LIG    1       -0.233   1.235  -1.876  0.00  0.00    +0.212 HD
ENDBRANCH   1  22
TORSDOF 6
