REMARK  Name = molecules/LWQQLNNNIPYSNX-UROSTWAQSA-N.pdb
REMARK                            x       y       z     vdW  Elec       q    Type
REMARK                         _______ _______ _______ _____ _____    ______ ____
ROOT
ATOM      1  C   LIG    1        0.791   0.987   1.829  0.00  0.00    +0.012 C 
ATOM      2  C   LIG    1        0.903   1.238   0.342  0.00  0.00    -0.022 C 
ATOM      3  C   LIG    1        0.810   2.658  -0.032  0.00  0.00    +0.008 C 
ATOM      4  C   LIG    1       -0.503   3.293   0.191  0.00  0.00    +0.005 C 
ATOM      5  C   LIG    1       -1.717   2.476   0.292  0.00  0.00    +0.031 C 
ATOM      6  C   LIG    1       -1.539   1.049  -0.035  0.00  0.00    -0.066 C 
ATOM      7  C   LIG    1       -2.620   0.270   0.045  0.00  0.00    -0.000 C 
ATOM      8  C   LIG    1        2.030   0.447  -0.242  0.00  0.00    +0.002 C 
ATOM      9  C   LIG    1        1.512  -0.983  -0.026  0.00  0.00    +0.005 C 
ATOM     10  C   LIG    1        0.009  -0.896   0.003  0.00  0.00    +0.009 C 
ATOM     11  C   LIG    1       -0.252   0.530  -0.401  0.00  0.00    +0.021 C 
ENDROOT
BRANCH   7  12
ATOM     12  C   LIG    1       -3.915   0.803   0.414  0.00  0.00    +0.004 C 
ATOM     13  C   LIG    1       -4.985   0.078   0.552  0.00  0.00    -0.040 C 
ATOM     14  C   LIG    1       -6.305   0.662   0.877  0.00  0.00    +0.067 C 
ATOM     15  C   LIG    1       -7.375  -0.376   0.614  0.00  0.00    +0.122 C 
ATOM     16  C   LIG    1       -7.127  -1.184  -0.640  0.00  0.00    +0.067 C 
ATOM     17  C   LIG    1       -5.873  -2.036  -0.524  0.00  0.00    +0.147 C 
ATOM     18  C   LIG    1       -4.863  -1.347   0.338  0.00  0.00    -0.023 C 
ATOM     19  C   LIG    1       -3.905  -1.984   0.939  0.00  0.00    +0.015 C 
BRANCH  15  20
ATOM     20  O   LIG    1       -8.590   0.291   0.471  0.00  0.00    -0.391 OA
ATOM     21  H   LIG    1       -8.631   0.995   1.180  0.00  0.00    +0.210 HD
ENDBRANCH  15  20
BRANCH  17  22
ATOM     22  O   LIG    1       -6.237  -3.235   0.065  0.00  0.00    -0.387 OA
ATOM     23  H   LIG    1       -7.179  -3.459  -0.127  0.00  0.00    +0.210 HD
ENDBRANCH  17  22
ENDBRANCH   7  12
BRANCH   8  24
ATOM     24  C   LIG    1        3.384   0.632   0.337  0.00  0.00    +0.012 C 
ATOM     25  C   LIG    1        3.839   2.050   0.077  0.00  0.00    +0.012 C 
BRANCH  24  26
ATOM     26  C   LIG    1        4.398  -0.242  -0.318  0.00  0.00    -0.025 C 
ATOM     27  C   LIG    1        5.065  -1.092   0.429  0.00  0.00    +0.000 C 
BRANCH  27  28
ATOM     28  C   LIG    1        6.100  -2.017  -0.102  0.00  0.00    +0.140 C 
BRANCH  28  29
ATOM     29  C   LIG    1        6.662  -1.581  -1.412  0.00  0.00    +0.022 C 
ATOM     30  C   LIG    1        8.202  -1.511  -1.505  0.00  0.00    +0.007 C 
ATOM     31  C   LIG    1        7.350  -0.305  -1.602  0.00  0.00    +0.007 C 
ENDBRANCH  28  29
BRANCH  28  32
ATOM     32  O   LIG    1        5.557  -3.287  -0.128  0.00  0.00    -0.387 OA
ATOM     33  H   LIG    1        5.112  -3.420   0.760  0.00  0.00    +0.210 HD
ENDBRANCH  28  32
ENDBRANCH  27  28
ENDBRANCH  24  26
ENDBRANCH   8  24
TORSDOF 8
