REMARK  Name = molecules/LXMSZDCAJNLERA-ZHYRCANASA-N.pdb
REMARK                            x       y       z     vdW  Elec       q    Type
REMARK                         _______ _______ _______ _____ _____    ______ ____
ROOT
ATOM      1  C   LIG    1        1.562   1.024  -1.808  0.00  0.00    +0.015 C 
ATOM      2  C   LIG    1        1.760   0.102  -0.651  0.00  0.00    +0.011 C 
ATOM      3  C   LIG    1        0.831   0.420   0.523  0.00  0.00    +0.003 C 
ATOM      4  C   LIG    1        1.392   1.659   1.065  0.00  0.00    +0.008 C 
ATOM      5  C   LIG    1        2.894   1.308   1.099  0.00  0.00    +0.049 C 
ATOM      6  C   LIG    1       -0.536   0.367   0.017  0.00  0.00    +0.010 C 
ATOM      7  C   LIG    1       -1.632   0.919   0.856  0.00  0.00    +0.062 C 
ATOM      8  C   LIG    1       -2.160  -0.114   1.830  0.00  0.00    +0.046 C 
ATOM      9  C   LIG    1       -2.874  -1.124   1.007  0.00  0.00    -0.059 C 
ATOM     10  C   LIG    1       -3.983  -1.695   1.407  0.00  0.00    +0.046 C 
ATOM     11  C   LIG    1       -4.599  -2.672   0.525  0.00  0.00    +0.156 C 
ATOM     12  O   LIG    1       -5.824  -2.890   0.635  0.00  0.00    -0.293 OA
ATOM     13  C   LIG    1       -3.812  -3.411  -0.492  0.00  0.00    +0.080 C 
ATOM     14  C   LIG    1       -2.372  -2.956  -0.538  0.00  0.00    +0.019 C 
ATOM     15  C   LIG    1       -2.243  -1.456  -0.322  0.00  0.00    -0.007 C 
ATOM     16  C   LIG    1       -2.925  -0.781  -1.468  0.00  0.00    +0.016 C 
ATOM     17  C   LIG    1       -0.813  -1.129  -0.207  0.00  0.00    +0.003 C 
ATOM     18  C   LIG    1        0.071  -1.577  -1.317  0.00  0.00    +0.005 C 
ATOM     19  C   LIG    1        3.105   0.365  -0.049  0.00  0.00    +0.120 C 
ATOM     20  C   LIG    1        3.839  -0.888   0.345  0.00  0.00    +0.060 C 
ATOM     21  C   LIG    1        5.263  -0.403   0.486  0.00  0.00    +0.124 C 
ATOM     22  C   LIG    1        5.291   0.716  -0.498  0.00  0.00    +0.308 C 
ATOM     23  O   LIG    1        6.369   1.301  -0.823  0.00  0.00    -0.251 OA
ATOM     24  O   LIG    1        4.005   0.974  -0.954  0.00  0.00    -0.457 OA
ATOM     25  C   LIG    1        1.525  -1.341  -0.992  0.00  0.00    +0.011 C 
ENDROOT
BRANCH   7  26
ATOM     26  S   LIG    1       -1.348   2.512   1.597  0.00  0.00    -0.084 S 
BRANCH  26  27
ATOM     27  C   LIG    1       -1.258   3.826   0.386  0.00  0.00    +0.187 C 
ATOM     28  C   LIG    1       -1.023   5.235   0.746  0.00  0.00    +0.099 C 
ATOM     29  O   LIG    1       -1.401   3.517  -0.784  0.00  0.00    -0.286 OA
ENDBRANCH  26  27
ENDBRANCH   7  26
TORSDOF 2
