REMARK  Name = molecules/LZCOQTDXKCNBEE-IKIFYQGPSA-N.pdb
REMARK                            x       y       z     vdW  Elec       q    Type
REMARK                         _______ _______ _______ _____ _____    ______ ____
ROOT
ATOM      1  O   LIG    1        0.098  -0.227   0.064  0.00  0.00    -0.461 OA
ENDROOT
BRANCH   1   9
ATOM      2  C   LIG    1       -3.867   1.211  -1.301  0.00  0.00    -0.091 C 
ATOM      3  N   LIG    1       -3.745   0.311  -0.184  0.00  0.00    +0.384 N 
ATOM      4  C   LIG    1       -2.785   0.817   0.805  0.00  0.00    -0.030 C 
ATOM      5  C   LIG    1       -2.449  -0.405   1.609  0.00  0.00    +0.133 C 
ATOM      6  O   LIG    1       -3.533  -1.235   1.872  0.00  0.00    -0.372 OA
ATOM      7  C   LIG    1       -2.816  -1.589   0.747  0.00  0.00    +0.133 C 
ATOM      8  C   LIG    1       -1.633   1.365   0.038  0.00  0.00    +0.032 C 
ATOM      9  C   LIG    1       -0.920   0.305  -0.756  0.00  0.00    +0.174 C 
ATOM     10  C   LIG    1       -1.832  -0.745  -1.315  0.00  0.00    +0.032 C 
ATOM     11  C   LIG    1       -5.011   0.066   0.420  0.00  0.00    -0.091 C 
ATOM     12  C   LIG    1       -3.104  -0.924  -0.577  0.00  0.00    -0.030 C 
ENDBRANCH   1   9
BRANCH   1  13
ATOM     13  C   LIG    1        1.417  -0.075  -0.253  0.00  0.00    +0.317 C 
ATOM     14  O   LIG    1        1.730   0.555  -1.302  0.00  0.00    -0.250 OA
BRANCH  13  15
ATOM     15  C   LIG    1        2.534  -0.615   0.575  0.00  0.00    +0.153 C 
BRANCH  15  16
ATOM     16  C   LIG    1        3.841  -0.304  -0.001  0.00  0.00    -0.032 A 
ATOM     17  C   LIG    1        4.284   0.983  -0.225  0.00  0.00    +0.004 A 
ATOM     18  C   LIG    1        5.520   1.259  -0.770  0.00  0.00    +0.000 A 
ATOM     19  C   LIG    1        6.348   0.210  -1.103  0.00  0.00    +0.000 A 
ATOM     20  C   LIG    1        5.940  -1.100  -0.893  0.00  0.00    +0.000 A 
ATOM     21  C   LIG    1        4.694  -1.333  -0.345  0.00  0.00    +0.004 A 
ENDBRANCH  15  16
BRANCH  15  22
ATOM     22  C   LIG    1        2.413  -0.003   1.972  0.00  0.00    +0.175 C 
BRANCH  22  23
ATOM     23  O   LIG    1        1.190  -0.356   2.514  0.00  0.00    -0.394 OA
ATOM     24  H   LIG    1        1.190  -1.312   2.777  0.00  0.00    +0.209 HD
ENDBRANCH  22  23
ENDBRANCH  15  22
ENDBRANCH  13  15
ENDBRANCH   1  13
TORSDOF 6
