REMARK  Name = molecules/LZNWYQJJBLGYLT-UHFFFAOYSA-N.pdb
REMARK                            x       y       z     vdW  Elec       q    Type
REMARK                         _______ _______ _______ _____ _____    ______ ____
ROOT
ATOM      1  C   LIG    1       -0.676   1.249  -2.392  0.00  0.00    +0.158 C 
ATOM      2  N   LIG    1       -1.445   0.580  -1.347  0.00  0.00    -0.197 N 
ATOM      3  C   LIG    1       -0.799   0.153  -0.154  0.00  0.00    +0.155 C 
ATOM      4  C   LIG    1       -1.464  -0.175   0.928  0.00  0.00    +0.160 C 
ATOM      5  C   LIG    1       -2.911  -0.167   1.009  0.00  0.00    +0.082 A 
ATOM      6  S   LIG    1       -3.933  -0.425   2.401  0.00  0.00    -0.092 S 
ATOM      7  C   LIG    1       -5.453  -0.121   1.692  0.00  0.00    +0.048 A 
ATOM      8  C   LIG    1       -5.109   0.166   0.402  0.00  0.00    +0.037 A 
ATOM      9  C   LIG    1       -3.823   0.140   0.061  0.00  0.00    +0.126 A 
ATOM     10  S   LIG    1       -3.136   0.356  -1.557  0.00  0.00    +0.076 S 
ATOM     11  O   LIG    1       -3.765   1.526  -2.250  0.00  0.00    -0.150 OA
ATOM     12  O   LIG    1       -3.423  -0.939  -2.292  0.00  0.00    -0.150 OA
ENDROOT
BRANCH   3  13
ATOM     13  C   LIG    1        0.683   0.076  -0.200  0.00  0.00    +0.268 C 
ATOM     14  N   LIG    1        1.526  -0.326   0.849  0.00  0.00    -0.265 N 
ATOM     15  H   LIG    1        1.107  -0.611   1.782  0.00  0.00    +0.157 HD
ATOM     16  O   LIG    1        1.224   0.407  -1.294  0.00  0.00    -0.268 OA
BRANCH  14  17
ATOM     17  C   LIG    1        2.958  -0.396   0.787  0.00  0.00    +0.125 A 
ATOM     18  N   LIG    1        3.614  -0.814   1.920  0.00  0.00    -0.240 NA
ATOM     19  C   LIG    1        4.942  -0.906   1.946  0.00  0.00    +0.113 A 
ATOM     20  C   LIG    1        5.728  -0.594   0.862  0.00  0.00    +0.020 A 
ATOM     21  C   LIG    1        5.089  -0.176  -0.274  0.00  0.00    +0.005 A 
ATOM     22  C   LIG    1        3.687  -0.075  -0.311  0.00  0.00    +0.044 A 
ENDBRANCH  14  17
ENDBRANCH   3  13
BRANCH   4  23
ATOM     23  O   LIG    1       -0.793  -0.580   2.099  0.00  0.00    -0.504 OA
ATOM     24  H   LIG    1       -1.016  -1.429   2.569  0.00  0.00    +0.292 HD
ENDBRANCH   4  23
TORSDOF 3
