REMARK  Name = molecules/LZPZPHGJDAGEJZ-AKAIJSEGSA-N.pdb
REMARK                            x       y       z     vdW  Elec       q    Type
REMARK                         _______ _______ _______ _____ _____    ______ ____
ROOT
ATOM      1  C   LIG    1        0.488  -0.494   3.366  0.00  0.00    +0.149 A 
ATOM      2  C   LIG    1       -0.788  -0.491   2.853  0.00  0.00    +0.147 A 
ATOM      3  N   LIG    1       -2.012  -0.350   3.380  0.00  0.00    -0.231 NA
ATOM      4  C   LIG    1       -2.905  -0.435   2.378  0.00  0.00    +0.203 A 
ATOM      5  N   LIG    1       -2.267  -0.630   1.211  0.00  0.00    -0.285 N 
ATOM      6  C   LIG    1       -0.953  -0.666   1.496  0.00  0.00    +0.170 A 
ATOM      7  N   LIG    1        0.110  -0.839   0.666  0.00  0.00    -0.191 NA
ATOM      8  C   LIG    1        1.342  -0.840   1.177  0.00  0.00    +0.255 A 
ATOM      9  N   LIG    1        1.499  -0.669   2.502  0.00  0.00    -0.194 NA
ENDROOT
BRANCH   5  10
ATOM     10  C1* LIG    1       -2.881  -0.772  -0.097  0.00  0.00    +0.253 C 
ATOM     11  C2* LIG    1       -4.316  -0.286  -0.076  0.00  0.00    +0.195 C 
ATOM     12  C3* LIG    1       -4.530  -0.042  -1.576  0.00  0.00    +0.178 C 
ATOM     13  C4* LIG    1       -3.159   0.343  -2.018  0.00  0.00    +0.177 C 
ATOM     14  O4* LIG    1       -2.259   0.008  -1.048  0.00  0.00    -0.346 OA
BRANCH  11  15
ATOM     15  O2* LIG    1       -5.186  -1.274   0.381  0.00  0.00    -0.385 OA
ATOM     16  H2* LIG    1       -6.021  -0.821   0.657  0.00  0.00    +0.210 HD
ENDBRANCH  11  15
BRANCH  12  17
ATOM     17  O3* LIG    1       -4.942  -1.284  -2.105  0.00  0.00    -0.386 OA
ATOM     18  H3* LIG    1       -5.915  -1.373  -1.976  0.00  0.00    +0.210 HD
ENDBRANCH  12  17
BRANCH  13  19
ATOM     19  C5* LIG    1       -3.155   1.867  -2.200  0.00  0.00    +0.190 C 
BRANCH  19  20
ATOM     20  O5* LIG    1       -4.062   2.249  -3.183  0.00  0.00    -0.392 OA
ATOM     21  H5* LIG    1       -4.826   2.747  -2.825  0.00  0.00    +0.210 HD
ENDBRANCH  19  20
ENDBRANCH  13  19
ENDBRANCH   5  10
BRANCH   8  22
ATOM     22  N   LIG    1        2.501  -1.021   0.335  0.00  0.00    -0.205 N 
ATOM     23  C   LIG    1        3.572  -0.212   0.213  0.00  0.00    +0.130 A 
ATOM     24  C   LIG    1        4.463  -0.739  -0.696  0.00  0.00    +0.075 A 
ATOM     25  C   LIG    1        3.884  -1.913  -1.127  0.00  0.00    +0.148 A 
ATOM     26  N   LIG    1        2.691  -2.048  -0.476  0.00  0.00    -0.171 NA
BRANCH  24  27
ATOM     27  C   LIG    1        5.738  -0.167  -1.104  0.00  0.00    +0.247 C 
ATOM     28  N   LIG    1        6.185   1.063  -0.553  0.00  0.00    -0.314 N 
ATOM     29  H   LIG    1        5.613   1.582   0.153  0.00  0.00    +0.149 HD
ATOM     30  C   LIG    1        7.447   1.670  -0.930  0.00  0.00    +0.128 C 
ATOM     31  O   LIG    1        6.468  -0.741  -1.945  0.00  0.00    -0.270 OA
ENDBRANCH  24  27
ENDBRANCH   8  22
BRANCH   1  32
ATOM     32  N   LIG    1        0.645  -0.314   4.762  0.00  0.00    -0.341 N 
ATOM     33  H   LIG    1        0.433  -1.081   5.414  0.00  0.00    +0.144 HD
ATOM     34  H   LIG    1        0.979   0.608   5.122  0.00  0.00    +0.144 HD
ENDBRANCH   1  32
TORSDOF 8
