REMARK  Name = molecules/MADRVGBADLFHMO-LBPRGKRZSA-N.pdb
REMARK                            x       y       z     vdW  Elec       q    Type
REMARK                         _______ _______ _______ _____ _____    ______ ____
ROOT
ATOM      1  O   LIG    1       -0.169   0.711  -0.525  0.00  0.00    -0.489 OA
ENDROOT
BRANCH   1   2
ATOM      2  C   LIG    1       -1.194  -0.087  -0.356  0.00  0.00    +0.125 A 
ATOM      3  C   LIG    1       -1.091  -1.444  -0.077  0.00  0.00    +0.046 A 
ATOM      4  C   LIG    1       -2.219  -2.221   0.086  0.00  0.00    +0.004 A 
ATOM      5  C   LIG    1       -3.462  -1.644  -0.032  0.00  0.00    +0.008 A 
ATOM      6  C   LIG    1       -3.581  -0.278  -0.314  0.00  0.00    -0.018 A 
ATOM      7  C   LIG    1       -4.763   0.581  -0.491  0.00  0.00    +0.004 C 
ATOM      8  C   LIG    1       -4.359   1.814  -0.746  0.00  0.00    -0.021 C 
ATOM      9  C   LIG    1       -2.891   1.904  -0.766  0.00  0.00    +0.066 C 
ATOM     10  C   LIG    1       -2.478   0.491  -0.474  0.00  0.00    +0.005 A 
ENDBRANCH   1   2
BRANCH   1  11
ATOM     11  C   LIG    1        1.129   0.862  -0.546  0.00  0.00    +0.261 C 
BRANCH  11  12
ATOM     12  C   LIG    1        1.870   0.619   0.764  0.00  0.00    +0.169 C 
ATOM     13  O   LIG    1        1.796  -0.655   1.250  0.00  0.00    -0.371 OA
ATOM     14  C   LIG    1        2.609  -1.516   0.564  0.00  0.00    +0.175 C 
ATOM     15  C   LIG    1        4.051  -1.104   0.760  0.00  0.00    +0.109 C 
ATOM     16  N   LIG    1        4.268   0.243   0.267  0.00  0.00    -0.311 NA
ATOM     17  H   LIG    1        4.533   0.282  -0.723  0.00  0.00    +0.122 HD
ATOM     18  C   LIG    1        3.259   1.157   0.681  0.00  0.00    +0.116 C 
ENDBRANCH  11  12
ENDBRANCH   1  11
TORSDOF 3
