REMARK  Name = molecules/MASNOZXLGMXCHN-ZLPAWPGGSA-N.pdb
REMARK                            x       y       z     vdW  Elec       q    Type
REMARK                         _______ _______ _______ _____ _____    ______ ____
ROOT
ATOM      1  C   LIG    1       78.171  26.877   0.000  0.00  0.00    +0.063 A 
ATOM      2  C   LIG    1       79.384  27.758   0.000  0.00  0.00    +0.135 A 
ATOM      3  N   LIG    1       80.598  26.877   0.000  0.00  0.00    -0.242 NA
ATOM      4  C   LIG    1       80.134  25.450   0.000  0.00  0.00    +0.221 A 
ATOM      5  N   LIG    1       78.634  25.450   0.000  0.00  0.00    -0.239 NA
ENDROOT
BRANCH   1   6
ATOM      6  C   LIG    1       76.744  27.340   0.000  0.00  0.00    +0.079 C 
BRANCH   6   8
ATOM      7  N   LIG    1       74.854  26.377   0.000  0.00  0.00    -0.139 NA
ATOM      8  C   LIG    1       75.317  27.804   0.000  0.00  0.00    +0.107 C 
ATOM      9  C   LIG    1       73.891  28.267   0.000  0.00  0.00    +0.015 C 
ENDBRANCH   6   8
ENDBRANCH   1   6
TORSDOF 2
REMARK  Name = molecules/MASNOZXLGMXCHN-ZLPAWPGGSA-N.pdb
REMARK                            x       y       z     vdW  Elec       q    Type
REMARK                         _______ _______ _______ _____ _____    ______ ____
ROOT
ATOM      1  N   GLY A  1       73.579  29.735   0.000  0.00  0.00    -0.134 NA
ATOM      2  CA  GLY A  1       72.153  30.198   0.000  0.00  0.00    +0.160 C 
ATOM      3  C   GLY A  1       71.689  28.771   0.000  0.00  0.00    +0.269 C 
ATOM      4  O   GLY A  1       71.225  27.345   0.000  0.00  0.00    -0.295 OA
ENDROOT
TORSDOF 0
REMARK  Name = molecules/MASNOZXLGMXCHN-ZLPAWPGGSA-N.pdb
REMARK                            x       y       z     vdW  Elec       q    Type
REMARK                         _______ _______ _______ _____ _____    ______ ____
ROOT
ATOM      1  N   LIG    1       71.612  32.739   0.000  0.00  0.00    -0.130 NA
ATOM      2  C   LIG    1       72.076  34.166   0.000  0.00  0.00    +0.184 C 
ENDROOT
BRANCH   2   3
ATOM      3  C   LIG    1       70.649  34.629   0.000  0.00  0.00    +0.256 C 
ATOM      4  O   LIG    1       69.421  33.769   0.000  0.00  0.00    -0.272 OA
BRANCH   3   5
ATOM      5  N   LIG    1       70.337  36.097   0.000  0.00  0.00    -0.195 NA
ATOM      6  C   LIG    1       68.911  36.560   0.000  0.00  0.00    +0.127 C 
ENDBRANCH   3   5
ENDBRANCH   2   3
BRANCH   2   7
ATOM      7  C   LIG    1       73.502  33.702   0.000  0.00  0.00    +0.033 C 
BRANCH   7   8
ATOM      8  C   LIG    1       74.929  33.239   0.000  0.00  0.00    +0.105 C 
BRANCH   8   9
ATOM      9  C   LIG    1       76.356  32.775   0.000  0.00  0.00    +0.252 C 
ATOM     10  N   LIG    1       77.470  33.779   0.000  0.00  0.00    -0.088 NA
ATOM     11  O   LIG    1       76.668  31.308   0.000  0.00  0.00    -0.272 OA
ENDBRANCH   8   9
ENDBRANCH   7   8
ENDBRANCH   2   7
TORSDOF 5
REMARK  Name = molecules/MASNOZXLGMXCHN-ZLPAWPGGSA-N.pdb
REMARK                            x       y       z     vdW  Elec       q    Type
REMARK                         _______ _______ _______ _____ _____    ______ ____
ROOT
ATOM      1  N   LIG    1       63.012  34.745   0.000  0.00  0.00    -0.278 NA
ATOM      2  C   LIG    1       62.549  33.319   0.000  0.00  0.00    +0.106 C 
ENDROOT
BRANCH   2   3
ATOM      3  C   LIG    1       63.975  32.855   0.000  0.00  0.00    +0.028 C 
ATOM      4  C   LIG    1       65.402  32.391   0.000  0.00  0.00    -0.016 C 
BRANCH   4   5
ATOM      5  C   LIG    1       65.714  30.924   0.000  0.00  0.00    +0.008 C 
ATOM      6  C   LIG    1       67.140  30.461   0.000  0.00  0.00    +0.000 C 
BRANCH   6   7
ATOM      7  C   LIG    1       68.255  31.464   0.000  0.00  0.00    -0.004 C 
ATOM      8  C   LIG    1       67.943  32.932   0.000  0.00  0.00    -0.022 C 
ATOM      9  C   LIG    1       66.517  33.395   0.000  0.00  0.00    +0.026 C 
ENDBRANCH   6   7
ENDBRANCH   4   5
ENDBRANCH   2   3
BRANCH   1  10
ATOM     10  C   LIG    1       64.479  35.057   0.000  0.00  0.00    +0.139 C 
BRANCH  10  11
ATOM     11  C   LIG    1       64.943  36.483   0.000  0.00  0.00    +0.144 C 
BRANCH  11  12
ATOM     12  C   LIG    1       65.406  37.910   0.000  0.00  0.00    +0.154 C 
ATOM     13  O   LIG    1       63.980  38.374   0.000  0.00  0.00    -0.223 OA
ATOM     14  C   LIG    1       65.870  39.337   0.000  0.00  0.00    +0.050 C 
ENDBRANCH  11  12
BRANCH  11  15
ATOM     15  N   LIG    1       66.370  36.020   0.000  0.00  0.00    -0.219 NA
ATOM     16  C   LIG    1       67.484  37.024   0.000  0.00  0.00    +0.107 C 
ENDBRANCH  11  15
ENDBRANCH  10  11
ENDBRANCH   1  10
TORSDOF 7
REMARK  Name = molecules/MASNOZXLGMXCHN-ZLPAWPGGSA-N.pdb
REMARK                            x       y       z     vdW  Elec       q    Type
REMARK                         _______ _______ _______ _____ _____    ______ ____
ROOT
ATOM      1  N   LIG    1       60.007  32.778   0.000  0.00  0.00    -0.134 NA
ATOM      2  C   LIG    1       58.581  33.242   0.000  0.00  0.00    +0.163 C 
ATOM      3  C   LIG    1       59.044  34.668   0.000  0.00  0.00    +0.170 C 
ATOM      4  O   LIG    1       57.618  35.132   0.000  0.00  0.00    -0.292 OA
ATOM      5  C   LIG    1       59.508  36.095   0.000  0.00  0.00    +0.092 C 
ENDROOT
TORSDOF 0
REMARK  Name = molecules/MASNOZXLGMXCHN-ZLPAWPGGSA-N.pdb
REMARK                            x       y       z     vdW  Elec       q    Type
REMARK                         _______ _______ _______ _____ _____    ______ ____
ROOT
ATOM      1  C   LIG    1       51.755  28.574   0.000  0.00  0.00    +0.088 C 
ATOM      2  N   LIG    1       50.288  28.262   0.000  0.00  0.00    -0.279 NA
ENDROOT
BRANCH   2   3
ATOM      3  C   LIG    1       49.824  26.835   0.000  0.00  0.00    +0.122 C 
ATOM      4  C   LIG    1       48.398  27.299   0.000  0.00  0.00    +0.020 C 
BRANCH   3   5
ATOM      5  C   LIG    1       51.251  26.372   0.000  0.00  0.00    +0.053 C 
BRANCH   5   6
ATOM      6  C   LIG    1       52.678  25.908   0.000  0.00  0.00    -0.042 C 
ATOM      7  C   LIG    1       52.989  24.441   0.000  0.00  0.00    -0.011 C 
BRANCH   7   8
ATOM      8  C   LIG    1       54.416  23.977   0.000  0.00  0.00    +0.097 C 
BRANCH   8   9
ATOM      9  C   LIG    1       55.531  24.981   0.000  0.00  0.00    +0.164 C 
ATOM     10  O   LIG    1       56.957  24.517   0.000  0.00  0.00    -0.292 OA
ATOM     11  C   LIG    1       55.219  26.448   0.000  0.00  0.00    +0.050 C 
ENDBRANCH   8   9
ENDBRANCH   7   8
ENDBRANCH   5   6
ENDBRANCH   3   5
ENDBRANCH   2   3
BRANCH   1  12
ATOM     12  C   LIG    1       52.219  30.000   0.000  0.00  0.00    +0.182 C 
BRANCH  12  13
ATOM     13  C   LIG    1       52.682  31.427   0.000  0.00  0.00    +0.060 C 
ATOM     14  C   LIG    1       53.146  32.853   0.000  0.00  0.00    +0.223 C 
ATOM     15  O   LIG    1       52.142  33.968   0.000  0.00  0.00    -0.284 OA
ENDBRANCH  12  13
BRANCH  12  17
ATOM     16  C   LIG    1       54.760  30.540   0.000  0.00  0.00    +0.082 C 
ATOM     17  N   LIG    1       53.645  29.537   0.000  0.00  0.00    -0.271 NA
BRANCH  16  19
ATOM     18  N   LIG    1       56.650  31.503   0.000  0.00  0.00    -0.130 NA
ATOM     19  CA  LIG    1       56.187  30.077   0.000  0.00  0.00    +0.177 C 
BRANCH  19  20
ATOM     20  C   LIG    1       57.613  29.613   0.000  0.00  0.00    +0.216 C 
ATOM     21  O   LIG    1       59.040  29.150   0.000  0.00  0.00    -0.226 OA
ENDBRANCH  19  20
ENDBRANCH  16  19
ENDBRANCH  12  17
ENDBRANCH   1  12
TORSDOF 10
REMARK  Name = molecules/MASNOZXLGMXCHN-ZLPAWPGGSA-N.pdb
REMARK                            x       y       z     vdW  Elec       q    Type
REMARK                         _______ _______ _______ _____ _____    ______ ____
ROOT
ATOM      1  N   GLY A  1       47.283  26.295   0.000  0.00  0.00    -0.134 NA
ATOM      2  CA  GLY A  1       45.856  26.759   0.000  0.00  0.00    +0.160 C 
ATOM      3  C   GLY A  1       46.320  28.185   0.000  0.00  0.00    +0.269 C 
ATOM      4  O   GLY A  1       46.783  29.612   0.000  0.00  0.00    -0.295 OA
ENDROOT
TORSDOF 0
REMARK  Name = molecules/MASNOZXLGMXCHN-ZLPAWPGGSA-N.pdb
REMARK                            x       y       z     vdW  Elec       q    Type
REMARK                         _______ _______ _______ _____ _____    ______ ____
ROOT
ATOM      1  C   LIG    1       44.889  23.130   0.000  0.00  0.00    +0.013 C 
ENDROOT
BRANCH   1   2
ATOM      2  C   LIG    1       43.462  23.593   0.000  0.00  0.00    +0.085 C 
ATOM      3  C   LIG    1       42.036  24.057   0.000  0.00  0.00    +0.013 C 
BRANCH   2   4
ATOM      4  N   LIG    1       43.926  25.020   0.000  0.00  0.00    -0.223 NA
ATOM      5  C   LIG    1       45.393  25.332   0.000  0.00  0.00    +0.107 C 
ENDBRANCH   2   4
ENDBRANCH   1   2
BRANCH   1   6
ATOM      6  C   LIG    1       46.315  22.666   0.000  0.00  0.00    +0.007 C 
BRANCH   6   7
ATOM      7  C   LIG    1       47.742  22.203   0.000  0.00  0.00    +0.019 C 
BRANCH   7   8
ATOM      8  C   LIG    1       49.169  21.739   0.000  0.00  0.00    +0.124 C 
ATOM      9  N   LIG    1       50.595  21.276   0.000  0.00  0.00    -0.143 NA
ENDBRANCH   7   8
ENDBRANCH   6   7
ENDBRANCH   1   6
TORSDOF 5
REMARK  Name = molecules/MASNOZXLGMXCHN-ZLPAWPGGSA-N.pdb
REMARK                            x       y       z     vdW  Elec       q    Type
REMARK                         _______ _______ _______ _____ _____    ______ ____
ROOT
ATOM      1  C   LIG    1       39.418  27.485   0.000  0.00  0.00    -0.010 C 
ATOM      2  C   LIG    1       39.881  28.911   0.000  0.00  0.00    +0.047 C 
ENDROOT
BRANCH   2   3
ATOM      3  C   LIG    1       41.348  29.223   0.000  0.00  0.00    +0.175 C 
ATOM      4  O   LIG    1       41.812  30.650   0.000  0.00  0.00    -0.288 OA
ATOM      5  C   LIG    1       42.352  28.108   0.000  0.00  0.00    +0.028 C 
ATOM      6  C   LIG    1       41.889  26.682   0.000  0.00  0.00    +0.030 C 
ENDBRANCH   2   3
BRANCH   1   7
ATOM      7  C   LIG    1       40.421  26.370   0.000  0.00  0.00    +0.036 C 
BRANCH   7  10
ATOM      8  N   LIG    1       40.921  23.053   0.000  0.00  0.00    -0.138 NA
ATOM      9  C   LIG    1       39.494  23.517   0.000  0.00  0.00    +0.114 C 
ATOM     10  C   LIG    1       39.958  24.943   0.000  0.00  0.00    +0.005 C 
ENDBRANCH   7  10
ENDBRANCH   1   7
TORSDOF 3
REMARK  Name = molecules/MASNOZXLGMXCHN-ZLPAWPGGSA-N.pdb
REMARK                            x       y       z     vdW  Elec       q    Type
REMARK                         _______ _______ _______ _____ _____    ______ ____
ROOT
ATOM      1  C   LIG    1       37.100  20.352   0.000  0.00  0.00    +0.088 C 
ATOM      2  C   LIG    1       38.527  19.888   0.000  0.00  0.00    -0.007 C 
ENDROOT
BRANCH   2   3
ATOM      3  C   LIG    1       39.953  19.425   0.000  0.00  0.00    +0.007 C 
ATOM      4  C   LIG    1       41.380  18.961   0.000  0.00  0.00    +0.011 C 
ATOM      5  C   LIG    1       39.490  17.998   0.000  0.00  0.00    +0.011 C 
ENDBRANCH   2   3
BRANCH   1   6
ATOM      6  N   LIG    1       37.564  21.778   0.000  0.00  0.00    -0.245 NA
ATOM      7  C   LIG    1       39.031  22.090   0.000  0.00  0.00    +0.135 C 
ENDBRANCH   1   6
TORSDOF 2
REMARK  Name = molecules/MASNOZXLGMXCHN-ZLPAWPGGSA-N.pdb
REMARK                            x       y       z     vdW  Elec       q    Type
REMARK                         _______ _______ _______ _____ _____    ______ ____
ROOT
ATOM      1  N   LIG    1       34.559  19.812   0.000  0.00  0.00    -0.217 NA
ATOM      2  C   LIG    1       35.673  20.815   0.000  0.00  0.00    +0.107 C 
ENDROOT
BRANCH   1   3
ATOM      3  C   LIG    1       33.132  20.275   0.000  0.00  0.00    +0.089 C 
ATOM      4  C   LIG    1       32.669  18.849   0.000  0.00  0.00    +0.020 C 
ENDBRANCH   1   3
TORSDOF 1
REMARK  Name = molecules/MASNOZXLGMXCHN-ZLPAWPGGSA-N.pdb
REMARK                            x       y       z     vdW  Elec       q    Type
REMARK                         _______ _______ _______ _____ _____    ______ ____
ROOT
ATOM      1  N   LIG    1       31.201  18.537   0.000  0.00  0.00    -0.130 NA
ATOM      2  C   LIG    1       30.738  17.110   0.000  0.00  0.00    +0.130 C 
ENDROOT
TORSDOF 0
REMARK  Name = molecules/MASNOZXLGMXCHN-ZLPAWPGGSA-N.pdb
REMARK                            x       y       z     vdW  Elec       q    Type
REMARK                         _______ _______ _______ _____ _____    ______ ____
ROOT
ATOM      1  C   LIG    1       26.306  15.607   0.000  0.00  0.00    +0.084 C 
ATOM      2  N   LIG    1       24.839  15.295   0.000  0.00  0.00    -0.257 NA
ENDROOT
BRANCH   1   4
ATOM      3  N   LIG    1       28.197  16.570   0.000  0.00  0.00    -0.133 NA
ATOM      4  C   LIG    1       26.770  17.033   0.000  0.00  0.00    +0.147 C 
BRANCH   4   5
ATOM      5  C   LIG    1       27.233  18.460   0.000  0.00  0.00    +0.023 C 
BRANCH   5   6
ATOM      6  C   LIG    1       27.697  19.887   0.000  0.00  0.00    +0.046 C 
BRANCH   6   7
ATOM      7  C   LIG    1       28.161  21.313   0.000  0.00  0.00    +0.244 C 
BRANCH   7   8
ATOM      8  N   LIG    1       28.624  22.740   0.000  0.00  0.00    -0.108 NA
BRANCH   8   9
ATOM      9  C   LIG    1       30.091  23.052   0.000  0.00  0.00    +0.457 C 
ATOM     10  N   LIG    1       30.555  24.478   0.000  0.00  0.00    +0.128 NA
BRANCH   9  11
ATOM     11  N   LIG    1       31.095  21.937   0.000  0.00  0.00    -0.284 N 
ATOM     12  H   LIG    1       32.236  22.336   0.000  0.00  0.00    +0.255 HD
ATOM     13  H   LIG    1       31.706  20.739   0.000  0.00  0.00    +0.255 HD
ENDBRANCH   9  11
ENDBRANCH   8   9
ENDBRANCH   7   8
ENDBRANCH   6   7
ENDBRANCH   5   6
ENDBRANCH   4   5
ENDBRANCH   1   4
BRANCH   2  14
ATOM     14  C   LIG    1       24.376  13.868   0.000  0.00  0.00    +0.107 C 
ATOM     15  C   LIG    1       25.802  13.405   0.000  0.00  0.00    -0.004 C 
BRANCH  15  16
ATOM     16  C   LIG    1       27.229  12.941   0.000  0.00  0.00    +0.069 C 
BRANCH  16  17
ATOM     17  C   LIG    1       28.655  12.478   0.000  0.00  0.00    +0.248 C 
BRANCH  17  18
ATOM     18  N   LIG    1       30.082  12.014   0.000  0.00  0.00    -0.108 NA
BRANCH  18  19
ATOM     19  C   LIG    1       31.197  13.018   0.000  0.00  0.00    +0.457 C 
ATOM     20  N   LIG    1       32.623  12.555   0.000  0.00  0.00    +0.128 NA
BRANCH  19  21
ATOM     21  N   LIG    1       30.885  14.485   0.000  0.00  0.00    -0.284 N 
ATOM     22  H   LIG    1       31.878  15.174   0.000  0.00  0.00    +0.255 HD
ATOM     23  H   LIG    1       30.274  15.684   0.000  0.00  0.00    +0.255 HD
ENDBRANCH  19  21
ENDBRANCH  18  19
ENDBRANCH  17  18
ENDBRANCH  16  17
ENDBRANCH  15  16
ENDBRANCH   2  14
TORSDOF 13
REMARK  Name = molecules/MASNOZXLGMXCHN-ZLPAWPGGSA-N.pdb
REMARK                            x       y       z     vdW  Elec       q    Type
REMARK                         _______ _______ _______ _____ _____    ______ ____
ROOT
ATOM      1  N   LIG    1       21.834  13.328   0.000  0.00  0.00    -0.138 NA
ATOM      2  C   LIG    1       20.408  13.792   0.000  0.00  0.00    +0.110 C 
ATOM      3  C   LIG    1       20.871  15.218   0.000  0.00  0.00    +0.028 C 
ENDROOT
TORSDOF 0
REMARK  Name = molecules/MASNOZXLGMXCHN-ZLPAWPGGSA-N.pdb
REMARK                            x       y       z     vdW  Elec       q    Type
REMARK                         _______ _______ _______ _____ _____    ______ ____
ROOT
ATOM      1  C   LIG    1       19.440  10.163   0.000  0.00  0.00    +0.047 C 
ENDROOT
BRANCH   1   4
ATOM      2  N   LIG    1       18.477  12.053   0.000  0.00  0.00    -0.281 NA
ATOM      3  C   LIG    1       19.944  12.365   0.000  0.00  0.00    +0.151 C 
ATOM      4  C   LIG    1       18.014  10.627   0.000  0.00  0.00    +0.083 C 
ENDBRANCH   1   4
BRANCH   1   5
ATOM      5  C   LIG    1       20.867   9.700   0.000  0.00  0.00    +0.109 C 
BRANCH   5   6
ATOM      6  C   LIG    1       22.293   9.236   0.000  0.00  0.00    +0.253 C 
ATOM      7  N   LIG    1       22.605   7.769   0.000  0.00  0.00    -0.088 NA
ATOM      8  O   LIG    1       23.408  10.240   0.000  0.00  0.00    -0.272 OA
ENDBRANCH   5   6
ENDBRANCH   1   5
TORSDOF 3
REMARK  Name = molecules/MASNOZXLGMXCHN-ZLPAWPGGSA-N.pdb
REMARK                            x       y       z     vdW  Elec       q    Type
REMARK                         _______ _______ _______ _____ _____    ______ ____
ROOT
ATOM      1  C   LIG    1       14.509  11.977   0.000  0.00  0.00    +0.051 C 
ATOM      2  C   LIG    1       14.973  13.403   0.000  0.00  0.00    +0.223 C 
ATOM      3  O   LIG    1       13.969  14.518   0.000  0.00  0.00    -0.284 OA
ENDROOT
BRANCH   1   5
ATOM      4  N   LIG    1       15.472  10.086   0.000  0.00  0.00    -0.133 NA
ATOM      5  C   LIG    1       14.046  10.550   0.000  0.00  0.00    +0.143 C 
ENDBRANCH   1   5
TORSDOF 1
REMARK  Name = molecules/MASNOZXLGMXCHN-ZLPAWPGGSA-N.pdb
REMARK                            x       y       z     vdW  Elec       q    Type
REMARK                         _______ _______ _______ _____ _____    ______ ____
ROOT
ATOM      1  C   LIG    1        7.684   7.308   0.000  0.00  0.00    +0.136 C 
ENDROOT
BRANCH   1   2
ATOM      2  C   LIG    1        8.147   8.735   0.000  0.00  0.00    -0.004 C 
ATOM      3  C   LIG    1        8.611  10.162   0.000  0.00  0.00    +0.013 C 
ATOM      4  C   LIG    1        6.720   9.198   0.000  0.00  0.00    +0.013 C 
ENDBRANCH   1   2
BRANCH   1   6
ATOM      5  C   LIG    1       10.225   7.848   0.000  0.00  0.00    +0.078 C 
ATOM      6  N   LIG    1        9.110   6.845   0.000  0.00  0.00    -0.279 NA
BRANCH   5   7
ATOM      7  C   LIG    1       11.651   7.385   0.000  0.00  0.00    +0.132 C 
BRANCH   7   8
ATOM      8  N   LIG    1       12.115   8.812   0.000  0.00  0.00    -0.218 NA
ATOM      9  C   LIG    1       13.582   9.123   0.000  0.00  0.00    +0.107 C 
ENDBRANCH   7   8
BRANCH   7  10
ATOM     10  C   LIG    1       13.078   6.921   0.000  0.00  0.00    +0.053 C 
BRANCH  10  11
ATOM     11  C   LIG    1       14.505   6.458   0.000  0.00  0.00    -0.042 C 
ATOM     12  C   LIG    1       14.816   4.991   0.000  0.00  0.00    -0.014 C 
BRANCH  12  13
ATOM     13  C   LIG    1       16.243   4.527   0.000  0.00  0.00    +0.045 C 
BRANCH  13  14
ATOM     14  C   LIG    1       17.358   5.531   0.000  0.00  0.00    -0.018 C 
ATOM     15  C   LIG    1       17.046   6.998   0.000  0.00  0.00    -0.004 C 
ENDBRANCH  13  14
ENDBRANCH  12  13
ENDBRANCH  10  11
ENDBRANCH   7  10
ENDBRANCH   5   7
ENDBRANCH   1   6
BRANCH   1  16
ATOM     16  C   LIG    1        7.220   5.882   0.000  0.00  0.00    +0.087 C 
BRANCH  16  17
ATOM     17  N   LIG    1        5.753   5.570   0.000  0.00  0.00    -0.302 NA
ATOM     18  H   LIG    1        4.987   6.656   0.000  0.00  0.00    +0.123 HD
BRANCH  17  19
ATOM     19  C   LIG    1        5.289   4.143   0.000  0.00  0.00    +0.066 C 
ATOM     20  C   LIG    1        3.863   4.607   0.000  0.00  0.00    +0.011 C 
BRANCH  19  21
ATOM     21  C   LIG    1        6.716   3.680   0.000  0.00  0.00    +0.020 C 
BRANCH  21  22
ATOM     22  C   LIG    1        8.142   3.216   0.000  0.00  0.00    +0.104 C 
BRANCH  22  23
ATOM     23  C   LIG    1        9.569   2.753   0.000  0.00  0.00    +0.252 C 
ATOM     24  N   LIG    1        9.881   1.286   0.000  0.00  0.00    -0.088 NA
ATOM     25  O   LIG    1       10.684   3.756   0.000  0.00  0.00    -0.272 OA
ENDBRANCH  22  23
ENDBRANCH  21  22
ENDBRANCH  19  21
ENDBRANCH  17  19
ENDBRANCH  16  17
ENDBRANCH   1  16
TORSDOF 14
REMARK  Name = molecules/MASNOZXLGMXCHN-ZLPAWPGGSA-N.pdb
REMARK                            x       y       z     vdW  Elec       q    Type
REMARK                         _______ _______ _______ _____ _____    ______ ____
ROOT
ATOM      1  N   LIG    1        2.748   3.603   0.000  0.00  0.00    +0.000 NA
ENDROOT
TORSDOF 0
REMARK  Name = molecules/MASNOZXLGMXCHN-ZLPAWPGGSA-N.pdb
REMARK                            x       y       z     vdW  Elec       q    Type
REMARK                         _______ _______ _______ _____ _____    ______ ____
ROOT
ATOM      1  C   LIG    1        2.825  -0.365   0.000  0.00  0.00    +0.050 C 
ENDROOT
BRANCH   1   3
ATOM      2  N   LIG    1        1.861   1.525   0.000  0.00  0.00    -0.288 NA
ATOM      3  C   LIG    1        1.398   0.099   0.000  0.00  0.00    +0.078 C 
ATOM      4  C   LIG    1        0.858   2.640   0.000  0.00  0.00    +0.158 C 
ENDBRANCH   1   3
BRANCH   1   5
ATOM      5  C   LIG    1        4.251  -0.828   0.000  0.00  0.00    -0.012 C 
ATOM      6  C   LIG    1        4.715   0.598   0.000  0.00  0.00    +0.007 C 
ATOM      7  C   LIG    1        5.678  -1.292   0.000  0.00  0.00    +0.007 C 
ENDBRANCH   1   5
TORSDOF 2
REMARK  Name = molecules/MASNOZXLGMXCHN-ZLPAWPGGSA-N.pdb
REMARK                            x       y       z     vdW  Elec       q    Type
REMARK                         _______ _______ _______ _____ _____    ______ ____
ROOT
ATOM      1  N   LIG    1       -0.341   2.030   0.000  0.00  0.00    +0.038 NA
ATOM      2  O   LIG    1        0.061   2.668   0.000  0.00  0.00    -0.278 OA
ATOM      3  H   LIG    1        0.644   3.162   0.000  0.00  0.00    +0.240 HD
ENDROOT
TORSDOF 0
REMARK  Name = molecules/MASNOZXLGMXCHN-ZLPAWPGGSA-N.pdb
REMARK                            x       y       z     vdW  Elec       q    Type
REMARK                         _______ _______ _______ _____ _____    ______ ____
ROOT
ATOM      1  C   ACE A  0       -2.735  -1.135   0.000  0.00  0.00    +0.079 C 
ATOM      2  N   LIG    1       -2.423  -2.603   0.000  0.00  0.00    -0.276 NA
ENDROOT
BRANCH   1   4
ATOM      3  N   LIG    1       -3.698   0.755   0.000  0.00  0.00    -0.133 NA
ATOM      4  C   LIG    1       -4.161  -0.672   0.000  0.00  0.00    +0.152 C 
BRANCH   4   5
ATOM      5  C   LIG    1       -5.588  -0.208   0.000  0.00  0.00    +0.127 C 
BRANCH   5   6
ATOM      6  C   LIG    1       -7.014   0.255   0.000  0.00  0.00    +0.254 C 
ATOM      7  N   LIG    1       -7.326   1.722   0.000  0.00  0.00    -0.088 NA
ATOM      8  O   LIG    1       -8.129  -0.749   0.000  0.00  0.00    -0.272 OA
ENDBRANCH   5   6
ENDBRANCH   4   5
ENDBRANCH   1   4
BRANCH   2   9
ATOM      9  CA  LIG    1       -0.996  -3.066   0.000  0.00  0.00    +0.178 C 
BRANCH   9  10
ATOM     10  CB  LIG    1       -1.460  -4.493   0.000  0.00  0.00    +0.181 C 
ATOM     11  OG1 LIG    1       -0.033  -4.956   0.000  0.00  0.00    -0.229 OA
ATOM     12  CG2 LIG    1       -1.923  -5.919   0.000  0.00  0.00    +0.043 C 
ENDBRANCH   9  10
BRANCH   9  13
ATOM     13  C   LIG    1       -0.533  -1.640   0.000  0.00  0.00    +0.202 C 
ATOM     14  O   LIG    1        0.962  -1.509   0.000  0.00  0.00    -0.219 OA
ENDBRANCH   9  13
ENDBRANCH   2   9
TORSDOF 6
REMARK  Name = molecules/MASNOZXLGMXCHN-ZLPAWPGGSA-N.pdb
REMARK                            x       y       z     vdW  Elec       q    Type
REMARK                         _______ _______ _______ _____ _____    ______ ____
ROOT
ATOM      1  O   LIG    1       -1.536  -0.525   0.000  0.00  0.00    -0.003 OA
ATOM      2  O   LIG    1       -1.896   0.108   0.000  0.00  0.00    -0.036 OA
ENDROOT
BRANCH   2   3
ATOM      3  O   LIG    1       -0.987   0.228   0.000  0.00  0.00    -0.218 OA
ATOM      4  H   LIG    1       -1.073   0.902   0.000  0.00  0.00    +0.256 HD
ENDBRANCH   2   3
TORSDOF 1
REMARK  Name = molecules/MASNOZXLGMXCHN-ZLPAWPGGSA-N.pdb
REMARK                            x       y       z     vdW  Elec       q    Type
REMARK                         _______ _______ _______ _____ _____    ______ ____
ROOT
ATOM      1  O   HOH    1       72.776  27.264   0.000  0.00  0.00    -0.410 OA
ATOM      2  H   HOH    0       72.961  27.977   0.000  0.00  0.00    +0.205 HD
ATOM      3  H   HOH    0       73.387  26.065   0.000  0.00  0.00    +0.205 HD
ENDROOT
TORSDOF 0
REMARK  Name = molecules/MASNOZXLGMXCHN-ZLPAWPGGSA-N.pdb
REMARK                            x       y       z     vdW  Elec       q    Type
REMARK                         _______ _______ _______ _____ _____    ______ ____
ROOT
ATOM      1  C   LIG    1       72.616  31.625   0.000  0.00  0.00    +0.000 C 
ENDROOT
TORSDOF 0
REMARK  Name = molecules/MASNOZXLGMXCHN-ZLPAWPGGSA-N.pdb
REMARK                            x       y       z     vdW  Elec       q    Type
REMARK                         _______ _______ _______ _____ _____    ______ ____
ROOT
ATOM      1  O   HOH    1       74.110  31.755   0.000  0.00  0.00    -0.410 OA
ATOM      2  H   HOH    0       73.398  32.206   0.000  0.00  0.00    +0.205 HD
ATOM      3  H   HOH    0       74.694  30.738   0.000  0.00  0.00    +0.205 HD
ENDROOT
TORSDOF 0
REMARK  Name = molecules/MASNOZXLGMXCHN-ZLPAWPGGSA-N.pdb
REMARK                            x       y       z     vdW  Elec       q    Type
REMARK                         _______ _______ _______ _____ _____    ______ ____
ROOT
ATOM      1  O   HOH    1       67.353  38.518   0.000  0.00  0.00    -0.253 OA
ATOM      2  H   HOH    0       66.903  37.806   0.000  0.00  0.00    +0.253 HD
ENDROOT
TORSDOF 0
REMARK  Name = molecules/MASNOZXLGMXCHN-ZLPAWPGGSA-N.pdb
REMARK                            x       y       z     vdW  Elec       q    Type
REMARK                         _______ _______ _______ _____ _____    ______ ____
ROOT
ATOM      1  O   HOH    1       65.483  33.942   0.000  0.00  0.00    -0.410 OA
ATOM      2  H   HOH    0       64.770  34.127   0.000  0.00  0.00    +0.205 HD
ATOM      3  H   HOH    0       66.028  34.813   0.000  0.00  0.00    +0.205 HD
ENDROOT
TORSDOF 0
REMARK  Name = molecules/MASNOZXLGMXCHN-ZLPAWPGGSA-N.pdb
REMARK                            x       y       z     vdW  Elec       q    Type
REMARK                         _______ _______ _______ _____ _____    ______ ____
ROOT
ATOM      1  C   LIG    1       61.122  33.782   0.000  0.00  0.00    +0.000 C 
ENDROOT
TORSDOF 0
REMARK  Name = molecules/MASNOZXLGMXCHN-ZLPAWPGGSA-N.pdb
REMARK                            x       y       z     vdW  Elec       q    Type
REMARK                         _______ _______ _______ _____ _____    ______ ____
ROOT
ATOM      1  O   HOH    1       60.991  35.276   0.000  0.00  0.00    -0.410 OA
ATOM      2  H   HOH    0       62.008  35.860   0.000  0.00  0.00    +0.205 HD
ATOM      3  H   HOH    0       60.541  34.564   0.000  0.00  0.00    +0.205 HD
ENDROOT
TORSDOF 0
REMARK  Name = molecules/MASNOZXLGMXCHN-ZLPAWPGGSA-N.pdb
REMARK                            x       y       z     vdW  Elec       q    Type
REMARK                         _______ _______ _______ _____ _____    ______ ____
ROOT
ATOM      1  C   LIG    1       58.117  31.815   0.000  0.00  0.00    +0.000 C 
ENDROOT
TORSDOF 0
REMARK  Name = molecules/MASNOZXLGMXCHN-ZLPAWPGGSA-N.pdb
REMARK                            x       y       z     vdW  Elec       q    Type
REMARK                         _______ _______ _______ _____ _____    ______ ____
ROOT
ATOM      1  O   HOH    1       59.121  30.701   0.000  0.00  0.00    -0.410 OA
ATOM      2  H   HOH    0       58.408  30.885   0.000  0.00  0.00    +0.205 HD
ATOM      3  H   HOH    0       60.154  30.153   0.000  0.00  0.00    +0.205 HD
ENDROOT
TORSDOF 0
REMARK  Name = molecules/MASNOZXLGMXCHN-ZLPAWPGGSA-N.pdb
REMARK                            x       y       z     vdW  Elec       q    Type
REMARK                         _______ _______ _______ _____ _____    ______ ____
ROOT
ATOM      1  O   LIG    1       54.448  32.008   0.000  0.00  0.00    -0.253 OA
ATOM      2  H   LIG    1       54.178  31.322   0.000  0.00  0.00    +0.253 HD
ENDROOT
BRANCH   1   3
ATOM      3  O   LIG    1       54.613  33.165   0.000  0.00  0.00    -0.253 OA
ATOM      4  H   LIG    1       55.646  32.618   0.000  0.00  0.00    +0.253 HD
ENDBRANCH   1   3
TORSDOF 1
REMARK  Name = molecules/MASNOZXLGMXCHN-ZLPAWPGGSA-N.pdb
REMARK                            x       y       z     vdW  Elec       q    Type
REMARK                         _______ _______ _______ _____ _____    ______ ____
ROOT
ATOM      1  O   HOH    1       52.759  27.459   0.000  0.00  0.00    -0.410 OA
ATOM      2  H   HOH    0       53.304  28.330   0.000  0.00  0.00    +0.205 HD
ATOM      3  H   HOH    0       52.046  27.644   0.000  0.00  0.00    +0.205 HD
ENDROOT
TORSDOF 0
REMARK  Name = molecules/MASNOZXLGMXCHN-ZLPAWPGGSA-N.pdb
REMARK                            x       y       z     vdW  Elec       q    Type
REMARK                         _______ _______ _______ _____ _____    ______ ____
ROOT
ATOM      1  C   LIG    1       53.792  26.912   0.000  0.00  0.00    +0.000 C 
ENDROOT
TORSDOF 0
REMARK  Name = molecules/MASNOZXLGMXCHN-ZLPAWPGGSA-N.pdb
REMARK                            x       y       z     vdW  Elec       q    Type
REMARK                         _______ _______ _______ _____ _____    ______ ____
ROOT
ATOM      1  O   HOH    1       48.086  28.766   0.000  0.00  0.00    -0.410 OA
ATOM      2  H   HOH    0       49.284  29.376   0.000  0.00  0.00    +0.205 HD
ATOM      3  H   HOH    0       47.816  28.081   0.000  0.00  0.00    +0.205 HD
ENDROOT
TORSDOF 0
REMARK  Name = molecules/MASNOZXLGMXCHN-ZLPAWPGGSA-N.pdb
REMARK                            x       y       z     vdW  Elec       q    Type
REMARK                         _______ _______ _______ _____ _____    ______ ____
ROOT
ATOM      1  O   HOH    1       46.525  24.348   0.000  0.00  0.00    -0.410 OA
ATOM      2  H   HOH    0       47.595  24.828   0.000  0.00  0.00    +0.205 HD
ATOM      3  H   HOH    0       45.684  24.402   0.000  0.00  0.00    +0.205 HD
ENDROOT
TORSDOF 0
REMARK  Name = molecules/MASNOZXLGMXCHN-ZLPAWPGGSA-N.pdb
REMARK                            x       y       z     vdW  Elec       q    Type
REMARK                         _______ _______ _______ _____ _____    ______ ____
ROOT
ATOM      1  O   HOH    1       41.724  25.524   0.000  0.00  0.00    -0.410 OA
ATOM      2  H   HOH    0       41.454  24.839   0.000  0.00  0.00    +0.205 HD
ATOM      3  H   HOH    0       42.749  25.453   0.000  0.00  0.00    +0.205 HD
ENDROOT
TORSDOF 0
REMARK  Name = molecules/MASNOZXLGMXCHN-ZLPAWPGGSA-N.pdb
REMARK                            x       y       z     vdW  Elec       q    Type
REMARK                         _______ _______ _______ _____ _____    ______ ____
ROOT
ATOM      1  O   HOH    1       40.163  21.106   0.000  0.00  0.00    -0.410 OA
ATOM      2  H   HOH    0       39.322  21.160   0.000  0.00  0.00    +0.205 HD
ATOM      3  H   HOH    0       41.233  21.586   0.000  0.00  0.00    +0.205 HD
ENDROOT
TORSDOF 0
REMARK  Name = molecules/MASNOZXLGMXCHN-ZLPAWPGGSA-N.pdb
REMARK                            x       y       z     vdW  Elec       q    Type
REMARK                         _______ _______ _______ _____ _____    ______ ____
ROOT
ATOM      1  O   LIG    1       35.362  22.282   0.000  0.00  0.00    -0.253 OA
ATOM      2  H   LIG    1       35.092  21.597   0.000  0.00  0.00    +0.253 HD
ENDROOT
BRANCH   1   3
ATOM      3  O   LIG    1       35.526  23.440   0.000  0.00  0.00    -0.253 OA
ATOM      4  H   LIG    1       36.560  22.893   0.000  0.00  0.00    +0.253 HD
ENDBRANCH   1   3
TORSDOF 1
REMARK  Name = molecules/MASNOZXLGMXCHN-ZLPAWPGGSA-N.pdb
REMARK                            x       y       z     vdW  Elec       q    Type
REMARK                         _______ _______ _______ _____ _____    ______ ____
ROOT
ATOM      1  C   LIG    1       33.596  21.702   0.000  0.00  0.00    +0.039 C 
ATOM      2  C   LIG    1       34.059  23.128   0.000  0.00  0.00    +0.133 C 
ENDROOT
BRANCH   2   3
ATOM      3  O   LIG    1       33.056  24.243   0.000  0.00  0.00    -0.382 OA
ATOM      4  H   LIG    1       32.022  24.790   0.000  0.00  0.00    +0.210 HD
ENDBRANCH   2   3
TORSDOF 1
REMARK  Name = molecules/MASNOZXLGMXCHN-ZLPAWPGGSA-N.pdb
REMARK                            x       y       z     vdW  Elec       q    Type
REMARK                         _______ _______ _______ _____ _____    ______ ____
ROOT
ATOM      1  O   HOH    1       33.672  17.734   0.000  0.00  0.00    -0.410 OA
ATOM      2  H   HOH    0       32.959  17.919   0.000  0.00  0.00    +0.205 HD
ATOM      3  H   HOH    0       34.706  17.187   0.000  0.00  0.00    +0.205 HD
ENDROOT
TORSDOF 0
REMARK  Name = molecules/MASNOZXLGMXCHN-ZLPAWPGGSA-N.pdb
REMARK                            x       y       z     vdW  Elec       q    Type
REMARK                         _______ _______ _______ _____ _____    ______ ____
ROOT
ATOM      1  C   LIG    1       29.311  17.574   0.000  0.00  0.00    +0.000 C 
ENDROOT
TORSDOF 0
REMARK  Name = molecules/MASNOZXLGMXCHN-ZLPAWPGGSA-N.pdb
REMARK                            x       y       z     vdW  Elec       q    Type
REMARK                         _______ _______ _______ _____ _____    ______ ____
ROOT
ATOM      1  C   LIG    1       32.164  16.646   0.000  0.00  0.00    +0.000 C 
ENDROOT
TORSDOF 0
REMARK  Name = molecules/MASNOZXLGMXCHN-ZLPAWPGGSA-N.pdb
REMARK                            x       y       z     vdW  Elec       q    Type
REMARK                         _______ _______ _______ _____ _____    ______ ____
ROOT
ATOM      1  O   HOH    1       33.591  16.183   0.000  0.00  0.00    +0.000 OA
ENDROOT
TORSDOF 0
REMARK  Name = molecules/MASNOZXLGMXCHN-ZLPAWPGGSA-N.pdb
REMARK                            x       y       z     vdW  Elec       q    Type
REMARK                         _______ _______ _______ _____ _____    ______ ____
ROOT
ATOM      1  O   HOH    1       29.181  19.068   0.000  0.00  0.00    -0.410 OA
ATOM      2  H   HOH    0       28.730  18.355   0.000  0.00  0.00    +0.205 HD
ATOM      3  H   HOH    0       30.198  19.651   0.000  0.00  0.00    +0.205 HD
ENDROOT
TORSDOF 0
REMARK  Name = molecules/MASNOZXLGMXCHN-ZLPAWPGGSA-N.pdb
REMARK                            x       y       z     vdW  Elec       q    Type
REMARK                         _______ _______ _______ _____ _____    ______ ____
ROOT
ATOM      1  O   HOH    1       27.439  14.623   0.000  0.00  0.00    -0.410 OA
ATOM      2  H   HOH    0       26.597  14.677   0.000  0.00  0.00    +0.205 HD
ATOM      3  H   HOH    0       28.508  15.103   0.000  0.00  0.00    +0.205 HD
ENDROOT
TORSDOF 0
REMARK  Name = molecules/MASNOZXLGMXCHN-ZLPAWPGGSA-N.pdb
REMARK                            x       y       z     vdW  Elec       q    Type
REMARK                         _______ _______ _______ _____ _____    ______ ____
ROOT
ATOM      1  C   LIG    1       22.949  14.332   0.000  0.00  0.00    +0.000 C 
ENDROOT
TORSDOF 0
REMARK  Name = molecules/MASNOZXLGMXCHN-ZLPAWPGGSA-N.pdb
REMARK                            x       y       z     vdW  Elec       q    Type
REMARK                         _______ _______ _______ _____ _____    ______ ____
ROOT
ATOM      1  O   HOH    1       22.637  15.799   0.000  0.00  0.00    -0.410 OA
ATOM      2  H   HOH    0       22.368  15.114   0.000  0.00  0.00    +0.205 HD
ATOM      3  H   HOH    0       23.835  16.410   0.000  0.00  0.00    +0.205 HD
ENDROOT
TORSDOF 0
REMARK  Name = molecules/MASNOZXLGMXCHN-ZLPAWPGGSA-N.pdb
REMARK                            x       y       z     vdW  Elec       q    Type
REMARK                         _______ _______ _______ _____ _____    ______ ____
ROOT
ATOM      1  O   HOH    1       21.076  11.381   0.000  0.00  0.00    -0.410 OA
ATOM      2  H   HOH    0       20.235  11.435   0.000  0.00  0.00    +0.205 HD
ATOM      3  H   HOH    0       22.146  11.861   0.000  0.00  0.00    +0.205 HD
ENDROOT
TORSDOF 0
REMARK  Name = molecules/MASNOZXLGMXCHN-ZLPAWPGGSA-N.pdb
REMARK                            x       y       z     vdW  Elec       q    Type
REMARK                         _______ _______ _______ _____ _____    ______ ____
ROOT
ATOM      1  C   LIG    1       16.587  11.090   0.000  0.00  0.00    +0.000 C 
ENDROOT
TORSDOF 0
REMARK  Name = molecules/MASNOZXLGMXCHN-ZLPAWPGGSA-N.pdb
REMARK                            x       y       z     vdW  Elec       q    Type
REMARK                         _______ _______ _______ _____ _____    ______ ____
ROOT
ATOM      1  O   LIG    1       16.275  12.557   0.000  0.00  0.00    -0.253 OA
ATOM      2  H   LIG    1       16.006  11.872   0.000  0.00  0.00    +0.253 HD
ENDROOT
BRANCH   1   3
ATOM      3  O   LIG    1       16.440  13.715   0.000  0.00  0.00    -0.253 OA
ATOM      4  H   LIG    1       17.473  13.168   0.000  0.00  0.00    +0.253 HD
ENDBRANCH   1   3
TORSDOF 1
REMARK  Name = molecules/MASNOZXLGMXCHN-ZLPAWPGGSA-N.pdb
REMARK                            x       y       z     vdW  Elec       q    Type
REMARK                         _______ _______ _______ _____ _____    ______ ____
ROOT
ATOM      1  O   HOH    1       14.586   8.009   0.000  0.00  0.00    -0.410 OA
ATOM      2  H   HOH    0       13.873   8.194   0.000  0.00  0.00    +0.205 HD
ATOM      3  H   HOH    0       15.131   8.880   0.000  0.00  0.00    +0.205 HD
ENDROOT
TORSDOF 0
REMARK  Name = molecules/MASNOZXLGMXCHN-ZLPAWPGGSA-N.pdb
REMARK                            x       y       z     vdW  Elec       q    Type
REMARK                         _______ _______ _______ _____ _____    ______ ____
ROOT
ATOM      1  C   LIG    1       15.619   7.462   0.000  0.00  0.00    +0.000 C 
ENDROOT
TORSDOF 0
REMARK  Name = molecules/MASNOZXLGMXCHN-ZLPAWPGGSA-N.pdb
REMARK                            x       y       z     vdW  Elec       q    Type
REMARK                         _______ _______ _______ _____ _____    ______ ____
ROOT
ATOM      1  O   HOH    1       10.094   9.343   0.000  0.00  0.00    -0.410 OA
ATOM      2  H   HOH    0        9.643   8.630   0.000  0.00  0.00    +0.205 HD
ATOM      3  H   HOH    0       11.111   9.926   0.000  0.00  0.00    +0.205 HD
ENDROOT
TORSDOF 0
REMARK  Name = molecules/MASNOZXLGMXCHN-ZLPAWPGGSA-N.pdb
REMARK                            x       y       z     vdW  Elec       q    Type
REMARK                         _______ _______ _______ _____ _____    ______ ____
ROOT
ATOM      1  O   HOH    1        8.352   4.898   0.000  0.00  0.00    -0.410 OA
ATOM      2  H   HOH    0        7.511   4.952   0.000  0.00  0.00    +0.205 HD
ATOM      3  H   HOH    0        9.422   5.378   0.000  0.00  0.00    +0.205 HD
ENDROOT
TORSDOF 0
REMARK  Name = molecules/MASNOZXLGMXCHN-ZLPAWPGGSA-N.pdb
REMARK                            x       y       z     vdW  Elec       q    Type
REMARK                         _______ _______ _______ _____ _____    ______ ____
ROOT
ATOM      1  O   LIG    1        3.551   6.074   0.000  0.00  0.00    -0.386 OA
ATOM      2  C   LIG    1        3.675   7.383   0.000  0.00  0.00    +0.176 C 
ATOM      3  H   LIG    1        3.281   5.389   0.000  0.00  0.00    +0.210 HD
ENDROOT
TORSDOF 0
REMARK  Name = molecules/MASNOZXLGMXCHN-ZLPAWPGGSA-N.pdb
REMARK                            x       y       z     vdW  Elec       q    Type
REMARK                         _______ _______ _______ _____ _____    ______ ____
ROOT
ATOM      1  C   LIG    1        2.248   9.347   0.000  0.00  0.00    +0.105 C 
ATOM      2  N   LIG    1        3.675   8.883   0.000  0.00  0.00    -0.129 NA
ENDROOT
BRANCH   1   3
ATOM      3  C   LIG    1        1.638  10.717   0.000  0.00  0.00    -0.003 C 
ATOM      4  C   LIG    1        0.146  10.874   0.000  0.00  0.00    -0.025 C 
ATOM      5  C   LIG    1       -0.735   9.661   0.000  0.00  0.00    +0.026 C 
ENDBRANCH   1   3
BRANCH   1   6
ATOM      6  C   LIG    1        1.367   8.133   0.000  0.00  0.00    +0.023 C 
BRANCH   6   8
ATOM      7  C   LIG    1        1.785   5.493   0.000  0.00  0.00    +0.000 C 
ATOM      8  C   LIG    1        2.248   6.920   0.000  0.00  0.00    +0.002 C 
ENDBRANCH   6   8
ENDBRANCH   1   6
TORSDOF 3
REMARK  Name = molecules/MASNOZXLGMXCHN-ZLPAWPGGSA-N.pdb
REMARK                            x       y       z     vdW  Elec       q    Type
REMARK                         _______ _______ _______ _____ _____    ______ ____
ROOT
ATOM      1  C   LIG    1       -0.125   8.290   0.000  0.00  0.00    +0.005 C 
ATOM      2  C   LIG    1       -1.380   7.888   0.000  0.00  0.00    -0.005 C 
ENDROOT
TORSDOF 0
REMARK  Name = molecules/MASNOZXLGMXCHN-ZLPAWPGGSA-N.pdb
REMARK                            x       y       z     vdW  Elec       q    Type
REMARK                         _______ _______ _______ _____ _____    ______ ____
ROOT
ATOM      1  C   LIG    1        1.321   4.067   0.000  0.00  0.00    +0.000 C 
ENDROOT
TORSDOF 0
REMARK  Name = molecules/MASNOZXLGMXCHN-ZLPAWPGGSA-N.pdb
REMARK                            x       y       z     vdW  Elec       q    Type
REMARK                         _______ _______ _______ _____ _____    ______ ____
ROOT
ATOM      1  C   LIG    1       -0.029   0.562   0.000  0.00  0.00    +0.000 C 
ENDROOT
TORSDOF 0
REMARK  Name = molecules/MASNOZXLGMXCHN-ZLPAWPGGSA-N.pdb
REMARK                            x       y       z     vdW  Elec       q    Type
REMARK                         _______ _______ _______ _____ _____    ______ ____
ROOT
ATOM      1  O   HOH    1       -1.353  -0.142   0.000  0.00  0.00    +0.000 OA
ENDROOT
TORSDOF 0
REMARK  Name = molecules/MASNOZXLGMXCHN-ZLPAWPGGSA-N.pdb
REMARK                            x       y       z     vdW  Elec       q    Type
REMARK                         _______ _______ _______ _____ _____    ______ ____
ROOT
ATOM      1  C   LIG    1       -2.231   1.067   0.000  0.00  0.00    +0.000 C 
ENDROOT
TORSDOF 0
REMARK  Name = molecules/MASNOZXLGMXCHN-ZLPAWPGGSA-N.pdb
REMARK                            x       y       z     vdW  Elec       q    Type
REMARK                         _______ _______ _______ _____ _____    ______ ____
ROOT
ATOM      1  C   LIG    1       -0.840   5.346   0.000  0.00  0.00    +0.000 C 
ENDROOT
TORSDOF 0
REMARK  Name = molecules/MASNOZXLGMXCHN-ZLPAWPGGSA-N.pdb
REMARK                            x       y       z     vdW  Elec       q    Type
REMARK                         _______ _______ _______ _____ _____    ______ ____
ROOT
ATOM      1  C   LIG    1       -1.304   3.920   0.000  0.00  0.00    +0.000 C 
ATOM      2  C   LIG    1       -1.767   2.493   0.000  0.00  0.00    +0.000 C 
ENDROOT
TORSDOF 0
REMARK  Name = molecules/MASNOZXLGMXCHN-ZLPAWPGGSA-N.pdb
REMARK                            x       y       z     vdW  Elec       q    Type
REMARK                         _______ _______ _______ _____ _____    ______ ____
ROOT
ATOM      1  S   LIG    1       -0.377   6.773   0.000  0.00  0.00    -0.196 S 
ATOM      2  H   LIG    1        0.358   5.957   0.000  0.00  0.00    +0.098 HD
ATOM      3  H   LIG    1       -1.274   7.326   0.000  0.00  0.00    +0.098 HD
ENDROOT
TORSDOF 0
REMARK  Name = molecules/MASNOZXLGMXCHN-ZLPAWPGGSA-N.pdb
REMARK                            x       y       z     vdW  Elec       q    Type
REMARK                         _______ _______ _______ _____ _____    ______ ____
ROOT
ATOM      1  H   UNK    1       75.714  25.148   0.000  0.00  0.00    +0.000 HD
ENDROOT
TORSDOF 0
REMARK  Name = molecules/MASNOZXLGMXCHN-ZLPAWPGGSA-N.pdb
REMARK                            x       y       z     vdW  Elec       q    Type
REMARK                         _______ _______ _______ _____ _____    ______ ____
ROOT
ATOM      1  H   UNK    1       70.145  32.427   0.000  0.00  0.00    +0.000 HD
ENDROOT
TORSDOF 0
REMARK  Name = molecules/MASNOZXLGMXCHN-ZLPAWPGGSA-N.pdb
REMARK                            x       y       z     vdW  Elec       q    Type
REMARK                         _______ _______ _______ _____ _____    ______ ____
ROOT
ATOM      1  H   UNK    1       71.452  37.100   0.000  0.00  0.00    +0.000 HD
ENDROOT
TORSDOF 0
REMARK  Name = molecules/MASNOZXLGMXCHN-ZLPAWPGGSA-N.pdb
REMARK                            x       y       z     vdW  Elec       q    Type
REMARK                         _______ _______ _______ _____ _____    ______ ____
ROOT
ATOM      1  H   UNK    1       60.319  31.311   0.000  0.00  0.00    +0.000 HD
ENDROOT
TORSDOF 0
REMARK  Name = molecules/MASNOZXLGMXCHN-ZLPAWPGGSA-N.pdb
REMARK                            x       y       z     vdW  Elec       q    Type
REMARK                         _______ _______ _______ _____ _____    ______ ____
ROOT
ATOM      1  H   UNK    1       34.871  18.344   0.000  0.00  0.00    +0.000 HD
ENDROOT
TORSDOF 0
REMARK  Name = molecules/MASNOZXLGMXCHN-ZLPAWPGGSA-N.pdb
REMARK                            x       y       z     vdW  Elec       q    Type
REMARK                         _______ _______ _______ _____ _____    ______ ____
ROOT
ATOM      1  H   UNK    1        3.236   2.185   0.000  0.00  0.00    +0.000 HD
ENDROOT
TORSDOF 0
REMARK  Name = molecules/MASNOZXLGMXCHN-ZLPAWPGGSA-N.pdb
REMARK                            x       y       z     vdW  Elec       q    Type
REMARK                         _______ _______ _______ _____ _____    ______ ____
ROOT
ATOM      1  H   UNK    1        3.280   2.014   0.000  0.00  0.00    +0.000 HD
ENDROOT
TORSDOF 0
REMARK  Name = molecules/MASNOZXLGMXCHN-ZLPAWPGGSA-N.pdb
REMARK                            x       y       z     vdW  Elec       q    Type
REMARK                         _______ _______ _______ _____ _____    ______ ____
ROOT
ATOM      1  H   UNK    1       -4.558   1.983   0.000  0.00  0.00    +0.000 HD
ENDROOT
TORSDOF 0
REMARK  Name = molecules/MASNOZXLGMXCHN-ZLPAWPGGSA-N.pdb
REMARK                            x       y       z     vdW  Elec       q    Type
REMARK                         _______ _______ _______ _____ _____    ______ ____
ROOT
ATOM      1  H   UNK    1       -3.652  -3.463   0.000  0.00  0.00    +0.000 HD
ENDROOT
TORSDOF 0
REMARK  Name = molecules/MASNOZXLGMXCHN-ZLPAWPGGSA-N.pdb
REMARK                            x       y       z     vdW  Elec       q    Type
REMARK                         _______ _______ _______ _____ _____    ______ ____
ROOT
ATOM      1  H   UNK    1       82.024  27.340   0.000  0.00  0.00    +0.000 HD
ENDROOT
TORSDOF 0
REMARK  Name = molecules/MASNOZXLGMXCHN-ZLPAWPGGSA-N.pdb
REMARK                            x       y       z     vdW  Elec       q    Type
REMARK                         _______ _______ _______ _____ _____    ______ ____
ROOT
ATOM      1  H   UNK    1       69.758  27.033   0.000  0.00  0.00    +0.000 HD
ENDROOT
TORSDOF 0
REMARK  Name = molecules/MASNOZXLGMXCHN-ZLPAWPGGSA-N.pdb
REMARK                            x       y       z     vdW  Elec       q    Type
REMARK                         _______ _______ _______ _____ _____    ______ ____
ROOT
ATOM      1  H   UNK    1       78.897  33.316   0.000  0.00  0.00    +0.000 HD
ENDROOT
TORSDOF 0
REMARK  Name = molecules/MASNOZXLGMXCHN-ZLPAWPGGSA-N.pdb
REMARK                            x       y       z     vdW  Elec       q    Type
REMARK                         _______ _______ _______ _____ _____    ______ ____
ROOT
ATOM      1  H   UNK    1       77.159  35.246   0.000  0.00  0.00    +0.000 HD
ENDROOT
TORSDOF 0
REMARK  Name = molecules/MASNOZXLGMXCHN-ZLPAWPGGSA-N.pdb
REMARK                            x       y       z     vdW  Elec       q    Type
REMARK                         _______ _______ _______ _____ _____    ______ ____
ROOT
ATOM      1  H   UNK    1       63.492  39.792   0.000  0.00  0.00    +0.000 HD
ENDROOT
TORSDOF 0
REMARK  Name = molecules/MASNOZXLGMXCHN-ZLPAWPGGSA-N.pdb
REMARK                            x       y       z     vdW  Elec       q    Type
REMARK                         _______ _______ _______ _____ _____    ______ ____
ROOT
ATOM      1  H   UNK    1       57.129  36.550   0.000  0.00  0.00    +0.000 HD
ENDROOT
TORSDOF 0
REMARK  Name = molecules/MASNOZXLGMXCHN-ZLPAWPGGSA-N.pdb
REMARK                            x       y       z     vdW  Elec       q    Type
REMARK                         _______ _______ _______ _____ _____    ______ ____
ROOT
ATOM      1  H   UNK    1       52.605  35.395   0.000  0.00  0.00    +0.000 HD
ENDROOT
TORSDOF 0
REMARK  Name = molecules/MASNOZXLGMXCHN-ZLPAWPGGSA-N.pdb
REMARK                            x       y       z     vdW  Elec       q    Type
REMARK                         _______ _______ _______ _____ _____    ______ ____
ROOT
ATOM      1  H   UNK    1       58.072  25.521   0.000  0.00  0.00    +0.000 HD
ENDROOT
TORSDOF 0
REMARK  Name = molecules/MASNOZXLGMXCHN-ZLPAWPGGSA-N.pdb
REMARK                            x       y       z     vdW  Elec       q    Type
REMARK                         _______ _______ _______ _____ _____    ______ ____
ROOT
ATOM      1  H   UNK    1       45.780  30.726   0.000  0.00  0.00    +0.000 HD
ENDROOT
TORSDOF 0
REMARK  Name = molecules/MASNOZXLGMXCHN-ZLPAWPGGSA-N.pdb
REMARK                            x       y       z     vdW  Elec       q    Type
REMARK                         _______ _______ _______ _____ _____    ______ ____
ROOT
ATOM      1  H   UNK    1       50.907  19.809   0.000  0.00  0.00    +0.000 HD
ENDROOT
TORSDOF 0
REMARK  Name = molecules/MASNOZXLGMXCHN-ZLPAWPGGSA-N.pdb
REMARK                            x       y       z     vdW  Elec       q    Type
REMARK                         _______ _______ _______ _____ _____    ______ ____
ROOT
ATOM      1  H   UNK    1       51.710  22.279   0.000  0.00  0.00    +0.000 HD
ENDROOT
TORSDOF 0
REMARK  Name = molecules/MASNOZXLGMXCHN-ZLPAWPGGSA-N.pdb
REMARK                            x       y       z     vdW  Elec       q    Type
REMARK                         _______ _______ _______ _____ _____    ______ ____
ROOT
ATOM      1  H   UNK    1       40.808  31.764   0.000  0.00  0.00    +0.000 HD
ENDROOT
TORSDOF 0
REMARK  Name = molecules/MASNOZXLGMXCHN-ZLPAWPGGSA-N.pdb
REMARK                            x       y       z     vdW  Elec       q    Type
REMARK                         _______ _______ _______ _____ _____    ______ ____
ROOT
ATOM      1  H   UNK    1       33.519  25.670   0.000  0.00  0.00    +0.000 HD
ENDROOT
TORSDOF 0
REMARK  Name = molecules/MASNOZXLGMXCHN-ZLPAWPGGSA-N.pdb
REMARK                            x       y       z     vdW  Elec       q    Type
REMARK                         _______ _______ _______ _____ _____    ______ ____
ROOT
ATOM      1  H   UNK    1       27.620  23.855   0.000  0.00  0.00    +0.000 HD
ENDROOT
TORSDOF 0
REMARK  Name = molecules/MASNOZXLGMXCHN-ZLPAWPGGSA-N.pdb
REMARK                            x       y       z     vdW  Elec       q    Type
REMARK                         _______ _______ _______ _____ _____    ______ ____
ROOT
ATOM      1  H   UNK    1       30.631  20.510   0.000  0.00  0.00    +0.000 HD
ENDROOT
TORSDOF 0
REMARK  Name = molecules/MASNOZXLGMXCHN-ZLPAWPGGSA-N.pdb
REMARK                            x       y       z     vdW  Elec       q    Type
REMARK                         _______ _______ _______ _____ _____    ______ ____
ROOT
ATOM      1  H   UNK    1       30.394  10.547   0.000  0.00  0.00    +0.000 HD
ENDROOT
TORSDOF 0
REMARK  Name = molecules/MASNOZXLGMXCHN-ZLPAWPGGSA-N.pdb
REMARK                            x       y       z     vdW  Elec       q    Type
REMARK                         _______ _______ _______ _____ _____    ______ ____
ROOT
ATOM      1  H   UNK    1       29.458  14.949   0.000  0.00  0.00    +0.000 HD
ENDROOT
TORSDOF 0
REMARK  Name = molecules/MASNOZXLGMXCHN-ZLPAWPGGSA-N.pdb
REMARK                            x       y       z     vdW  Elec       q    Type
REMARK                         _______ _______ _______ _____ _____    ______ ____
ROOT
ATOM      1  H   UNK    1       33.738  13.558   0.000  0.00  0.00    +0.000 HD
ENDROOT
TORSDOF 0
REMARK  Name = molecules/MASNOZXLGMXCHN-ZLPAWPGGSA-N.pdb
REMARK                            x       y       z     vdW  Elec       q    Type
REMARK                         _______ _______ _______ _____ _____    ______ ____
ROOT
ATOM      1  H   UNK    1       24.032   7.305   0.000  0.00  0.00    +0.000 HD
ENDROOT
TORSDOF 0
REMARK  Name = molecules/MASNOZXLGMXCHN-ZLPAWPGGSA-N.pdb
REMARK                            x       y       z     vdW  Elec       q    Type
REMARK                         _______ _______ _______ _____ _____    ______ ____
ROOT
ATOM      1  H   UNK    1       21.491   6.765   0.000  0.00  0.00    +0.000 HD
ENDROOT
TORSDOF 0
REMARK  Name = molecules/MASNOZXLGMXCHN-ZLPAWPGGSA-N.pdb
REMARK                            x       y       z     vdW  Elec       q    Type
REMARK                         _______ _______ _______ _____ _____    ______ ____
ROOT
ATOM      1  H   UNK    1       14.432  15.944   0.000  0.00  0.00    +0.000 HD
ENDROOT
TORSDOF 0
REMARK  Name = molecules/MASNOZXLGMXCHN-ZLPAWPGGSA-N.pdb
REMARK                            x       y       z     vdW  Elec       q    Type
REMARK                         _______ _______ _______ _____ _____    ______ ____
ROOT
ATOM      1  H   UNK    1       11.307   0.822   0.000  0.00  0.00    +0.000 HD
ENDROOT
TORSDOF 0
REMARK  Name = molecules/MASNOZXLGMXCHN-ZLPAWPGGSA-N.pdb
REMARK                            x       y       z     vdW  Elec       q    Type
REMARK                         _______ _______ _______ _____ _____    ______ ____
ROOT
ATOM      1  H   UNK    1        8.766   0.282   0.000  0.00  0.00    +0.000 HD
ENDROOT
TORSDOF 0
REMARK  Name = molecules/MASNOZXLGMXCHN-ZLPAWPGGSA-N.pdb
REMARK                            x       y       z     vdW  Elec       q    Type
REMARK                         _______ _______ _______ _____ _____    ______ ____
ROOT
ATOM      1  H   UNK    1        4.772   9.906   0.000  0.00  0.00    +0.000 HD
ENDROOT
TORSDOF 0
REMARK  Name = molecules/MASNOZXLGMXCHN-ZLPAWPGGSA-N.pdb
REMARK                            x       y       z     vdW  Elec       q    Type
REMARK                         _______ _______ _______ _____ _____    ______ ____
ROOT
ATOM      1  H   UNK    1       -2.267   5.810   0.000  0.00  0.00    +0.000 HD
ENDROOT
TORSDOF 0
REMARK  Name = molecules/MASNOZXLGMXCHN-ZLPAWPGGSA-N.pdb
REMARK                            x       y       z     vdW  Elec       q    Type
REMARK                         _______ _______ _______ _____ _____    ______ ____
ROOT
ATOM      1  H   UNK    1       -2.512   8.872   0.000  0.00  0.00    +0.000 HD
ENDROOT
TORSDOF 0
REMARK  Name = molecules/MASNOZXLGMXCHN-ZLPAWPGGSA-N.pdb
REMARK                            x       y       z     vdW  Elec       q    Type
REMARK                         _______ _______ _______ _____ _____    ______ ____
ROOT
ATOM      1  H   UNK    1       -2.495   6.884   0.000  0.00  0.00    +0.000 HD
ENDROOT
TORSDOF 0
REMARK  Name = molecules/MASNOZXLGMXCHN-ZLPAWPGGSA-N.pdb
REMARK                            x       y       z     vdW  Elec       q    Type
REMARK                         _______ _______ _______ _____ _____    ______ ____
ROOT
ATOM      1  H   UNK    1       -8.753   2.186   0.000  0.00  0.00    +0.000 HD
ENDROOT
TORSDOF 0
REMARK  Name = molecules/MASNOZXLGMXCHN-ZLPAWPGGSA-N.pdb
REMARK                            x       y       z     vdW  Elec       q    Type
REMARK                         _______ _______ _______ _____ _____    ______ ____
ROOT
ATOM      1  H   UNK    1       -6.212   2.726   0.000  0.00  0.00    +0.000 HD
ENDROOT
TORSDOF 0
REMARK  Name = molecules/MASNOZXLGMXCHN-ZLPAWPGGSA-N.pdb
REMARK                            x       y       z     vdW  Elec       q    Type
REMARK                         _______ _______ _______ _____ _____    ______ ____
ROOT
ATOM      1  H   UNK    1        0.455  -6.375   0.000  0.00  0.00    +0.000 HD
ENDROOT
TORSDOF 0
