REMARK  Name = molecules/MBBZMMPHUWSWHV-BDVNFPICSA-N.pdb
REMARK                            x       y       z     vdW  Elec       q    Type
REMARK                         _______ _______ _______ _____ _____    ______ ____
ROOT
ATOM      1  C   LIG    1        0.279   0.315  -0.490  0.00  0.00    +0.175 C 
ENDROOT
BRANCH   1   2
ATOM      2  O   LIG    1        0.865   1.537  -0.793  0.00  0.00    -0.387 OA
ATOM      3  H   LIG    1        0.440   2.275  -0.259  0.00  0.00    +0.210 HD
ENDBRANCH   1   2
BRANCH   1   4
ATOM      4  C   LIG    1        1.071  -0.467   0.477  0.00  0.00    +0.176 C 
BRANCH   4   5
ATOM      5  O   LIG    1        1.318   0.122   1.699  0.00  0.00    -0.387 OA
ATOM      6  H   LIG    1        1.997   0.835   1.648  0.00  0.00    +0.210 HD
ENDBRANCH   4   5
BRANCH   4   7
ATOM      7  C   LIG    1        2.249  -1.133  -0.158  0.00  0.00    +0.171 C 
BRANCH   7   8
ATOM      8  O   LIG    1        2.700  -2.196   0.694  0.00  0.00    -0.387 OA
ATOM      9  H   LIG    1        2.199  -3.000   0.444  0.00  0.00    +0.210 HD
ENDBRANCH   7   8
BRANCH   7  10
ATOM     10  C   LIG    1        3.457  -0.292  -0.370  0.00  0.00    +0.189 C 
BRANCH  10  11
ATOM     11  O   LIG    1        3.243   0.773  -1.203  0.00  0.00    -0.392 OA
ATOM     12  H   LIG    1        3.666   1.621  -0.901  0.00  0.00    +0.210 HD
ENDBRANCH  10  11
ENDBRANCH   7  10
ENDBRANCH   4   7
ENDBRANCH   1   4
BRANCH   1  13
ATOM     13  C   LIG    1       -1.134   0.618  -0.060  0.00  0.00    +0.159 C 
BRANCH  13  14
ATOM     14  O   LIG    1       -1.746   1.251  -1.143  0.00  0.00    -0.388 OA
ATOM     15  H   LIG    1       -1.470   0.755  -1.959  0.00  0.00    +0.210 HD
ENDBRANCH  13  14
BRANCH  13  16
ATOM     16  C   LIG    1       -1.949  -0.566   0.325  0.00  0.00    +0.114 C 
BRANCH  16  17
ATOM     17  N   LIG    1       -3.281  -0.092   0.696  0.00  0.00    -0.316 NA
ATOM     18  H   LIG    1       -3.226   0.630   1.446  0.00  0.00    +0.122 HD
ATOM     19  C   LIG    1       -4.030   0.425  -0.418  0.00  0.00    +0.101 C 
ENDBRANCH  16  17
ENDBRANCH  13  16
ENDBRANCH   1  13
TORSDOF 11
