REMARK  Name = molecules/MBHXKZDTQCSVPM-BDAFLREQSA-N.pdb
REMARK                            x       y       z     vdW  Elec       q    Type
REMARK                         _______ _______ _______ _____ _____    ______ ____
ROOT
ATOM      1  O   LIG    1        1.227  -0.756  -1.045  0.00  0.00    -0.453 OA
ENDROOT
BRANCH   1   2
ATOM      2  C   LIG    1        2.426  -0.484  -0.430  0.00  0.00    +0.214 A 
ATOM      3  C   LIG    1        3.206  -1.570  -0.025  0.00  0.00    +0.238 A 
ATOM      4  C   LIG    1        4.404  -1.347   0.613  0.00  0.00    +0.109 A 
ATOM      5  C   LIG    1        5.243  -2.385   1.049  0.00  0.00    +0.135 A 
ATOM      6  C   LIG    1        6.456  -2.066   1.698  0.00  0.00    +0.092 A 
ATOM      7  C   LIG    1        6.821  -0.771   1.904  0.00  0.00    +0.128 A 
ATOM      8  C   LIG    1        5.954   0.232   1.452  0.00  0.00    +0.092 A 
ATOM      9  C   LIG    1        4.760  -0.033   0.813  0.00  0.00    +0.147 A 
ATOM     10  O   LIG    1        3.983   0.931   0.405  0.00  0.00    -0.451 OA
ATOM     11  O   LIG    1        2.846  -2.750  -0.226  0.00  0.00    -0.283 OA
ATOM     12  C   LIG    1        2.831   0.800  -0.211  0.00  0.00    +0.181 A 
BRANCH  12  13
ATOM     13  C   LIG    1        2.098   2.013  -0.608  0.00  0.00    +0.025 A 
ATOM     14  C   LIG    1        2.500   3.213  -0.087  0.00  0.00    +0.060 A 
ATOM     15  C   LIG    1        1.931   4.424  -0.447  0.00  0.00    +0.159 A 
ATOM     16  C   LIG    1        0.908   4.466  -1.369  0.00  0.00    +0.158 A 
ATOM     17  C   LIG    1        0.492   3.256  -1.903  0.00  0.00    +0.050 A 
ATOM     18  C   LIG    1        1.083   2.053  -1.523  0.00  0.00    +0.015 A 
BRANCH  16  19
ATOM     19  O   LIG    1        0.321   5.672  -1.750  0.00  0.00    -0.503 OA
ATOM     20  H   LIG    1       -0.420   5.633  -2.432  0.00  0.00    +0.292 HD
ENDBRANCH  16  19
BRANCH  15  21
ATOM     21  O   LIG    1        2.373   5.603   0.110  0.00  0.00    -0.503 OA
ATOM     22  H   LIG    1        2.002   6.519  -0.088  0.00  0.00    +0.292 HD
ENDBRANCH  15  21
ENDBRANCH  12  13
BRANCH   5  23
ATOM     23  O   LIG    1        4.924  -3.661   0.871  0.00  0.00    -0.506 OA
ATOM     24  H   LIG    1        4.280  -4.248   0.576  0.00  0.00    +0.292 HD
ENDBRANCH   5  23
BRANCH   7  25
ATOM     25  O   LIG    1        7.956  -0.337   2.517  0.00  0.00    -0.489 OA
BRANCH  25  26
ATOM     26  C   LIG    1        9.031  -0.968   3.070  0.00  0.00    +0.256 C 
BRANCH  26  27
ATOM     27  C   LIG    1        9.890  -1.796   2.167  0.00  0.00    +0.196 C 
BRANCH  27  28
ATOM     28  O   LIG    1       10.449  -0.998   1.135  0.00  0.00    -0.392 OA
ATOM     29  H   LIG    1       11.172  -0.423   1.548  0.00  0.00    +0.210 HD
ENDBRANCH  27  28
ENDBRANCH  26  27
ENDBRANCH  25  26
ENDBRANCH   7  25
ENDBRANCH   1   2
BRANCH   1  30
ATOM     30  C   LIG    1        0.040  -1.133  -0.352  0.00  0.00    +0.340 C 
ATOM     31  C   LIG    1       -0.581  -0.048   0.473  0.00  0.00    +0.214 C 
ATOM     32  C   LIG    1       -1.665  -0.691   1.316  0.00  0.00    +0.180 C 
ATOM     33  C   LIG    1       -2.171  -1.984   0.734  0.00  0.00    +0.177 C 
ATOM     34  C   LIG    1       -2.083  -1.983  -0.772  0.00  0.00    +0.179 C 
ATOM     35  O   LIG    1       -0.788  -1.813  -1.193  0.00  0.00    -0.331 OA
BRANCH  33  36
ATOM     36  O   LIG    1       -1.407  -3.028   1.250  0.00  0.00    -0.386 OA
ATOM     37  H   LIG    1       -1.234  -3.662   0.544  0.00  0.00    +0.210 HD
ENDBRANCH  33  36
BRANCH  32  38
ATOM     38  O   LIG    1       -2.750   0.179   1.409  0.00  0.00    -0.386 OA
ATOM     39  H   LIG    1       -2.488   0.907   2.030  0.00  0.00    +0.210 HD
ENDBRANCH  32  38
BRANCH  31  40
ATOM     40  O   LIG    1        0.348   0.435   1.444  0.00  0.00    -0.383 OA
ATOM     41  H   LIG    1        0.619  -0.383   1.957  0.00  0.00    +0.210 HD
ENDBRANCH  31  40
BRANCH  34  42
ATOM     42  C   LIG    1       -2.966  -0.990  -1.435  0.00  0.00    +0.197 C 
BRANCH  42  43
ATOM     43  O   LIG    1       -4.306  -1.044  -1.033  0.00  0.00    -0.346 OA
BRANCH  43  44
ATOM     44  C   LIG    1       -5.039  -0.010  -1.605  0.00  0.00    +0.282 C 
ATOM     45  O   LIG    1       -5.374   0.899  -0.582  0.00  0.00    -0.343 OA
ATOM     46  C   LIG    1       -6.246   0.237   0.319  0.00  0.00    +0.149 C 
ATOM     47  C   LIG    1       -6.266   0.933   1.639  0.00  0.00    +0.041 C 
ATOM     48  C   LIG    1       -7.578   0.236  -0.399  0.00  0.00    +0.174 C 
ATOM     49  C   LIG    1       -7.467  -0.635  -1.623  0.00  0.00    +0.179 C 
ATOM     50  C   LIG    1       -6.209  -0.400  -2.422  0.00  0.00    +0.201 C 
BRANCH  50  51
ATOM     51  O   LIG    1       -6.483   0.644  -3.342  0.00  0.00    -0.384 OA
ATOM     52  H   LIG    1       -5.910   1.439  -3.131  0.00  0.00    +0.210 HD
ENDBRANCH  50  51
BRANCH  49  53
ATOM     53  O   LIG    1       -8.550  -0.292  -2.443  0.00  0.00    -0.386 OA
ATOM     54  H   LIG    1       -9.324  -0.906  -2.347  0.00  0.00    +0.210 HD
ENDBRANCH  49  53
BRANCH  48  55
ATOM     55  O   LIG    1       -8.585  -0.278   0.402  0.00  0.00    -0.387 OA
ATOM     56  H   LIG    1       -8.878   0.495   0.984  0.00  0.00    +0.210 HD
ENDBRANCH  48  55
ENDBRANCH  43  44
ENDBRANCH  42  43
ENDBRANCH  34  42
ENDBRANCH   1  30
TORSDOF 19
