REMARK  Name = molecules/MBWXNTAXLNYFJB-NKFFZRIASA-N.pdb
REMARK                            x       y       z     vdW  Elec       q    Type
REMARK                         _______ _______ _______ _____ _____    ______ ____
ROOT
ATOM      1  C   LIG    1       -2.997  -1.422   0.290  0.00  0.00    -0.076 C 
ATOM      2  C   LIG    1       -3.947  -0.639   0.776  0.00  0.00    -0.023 C 
ATOM      3  C   LIG    1       -3.107  -2.913   0.484  0.00  0.00    +0.039 C 
ENDROOT
BRANCH   1   4
ATOM      4  C   LIG    1       -1.794  -0.893  -0.454  0.00  0.00    +0.030 C 
BRANCH   4   5
ATOM      5  C   LIG    1       -1.809   0.597  -0.572  0.00  0.00    +0.005 C 
BRANCH   5   6
ATOM      6  C   LIG    1       -0.603   1.053  -1.312  0.00  0.00    +0.003 C 
BRANCH   6   7
ATOM      7  C   LIG    1        0.720   0.675  -0.659  0.00  0.00    -0.014 C 
ATOM      8  C   LIG    1        0.807   1.160   0.753  0.00  0.00    +0.007 C 
BRANCH   7   9
ATOM      9  C   LIG    1        1.833   1.179  -1.507  0.00  0.00    +0.003 C 
BRANCH   9  10
ATOM     10  C   LIG    1        3.228   0.796  -1.180  0.00  0.00    +0.001 C 
BRANCH  10  11
ATOM     11  C   LIG    1        3.765   1.184   0.127  0.00  0.00    +0.003 C 
BRANCH  11  12
ATOM     12  C   LIG    1        5.266   0.743   0.317  0.00  0.00    -0.014 C 
ATOM     13  C   LIG    1        5.601   1.274   1.700  0.00  0.00    +0.007 C 
BRANCH  12  14
ATOM     14  C   LIG    1        6.028   1.417  -0.756  0.00  0.00    +0.003 C 
BRANCH  14  15
ATOM     15  C   LIG    1        7.507   1.398  -0.731  0.00  0.00    +0.001 C 
BRANCH  15  16
ATOM     16  C   LIG    1        8.262   0.149  -0.804  0.00  0.00    +0.003 C 
BRANCH  16  18
ATOM     17  C   LIG    1        8.581  -0.339   1.617  0.00  0.00    +0.007 C 
ATOM     18  C   LIG    1        8.155  -0.874   0.257  0.00  0.00    -0.017 C 
ATOM     19  C   LIG    1        9.233  -1.944  -0.081  0.00  0.00    +0.007 C 
ENDBRANCH  16  18
ENDBRANCH  15  16
ENDBRANCH  14  15
ENDBRANCH  12  14
ENDBRANCH  11  12
ENDBRANCH  10  11
ENDBRANCH   9  10
ENDBRANCH   7   9
ENDBRANCH   6   7
ENDBRANCH   5   6
ENDBRANCH   4   5
ENDBRANCH   1   4
BRANCH   2  20
ATOM     20  C   LIG    1       -5.103  -1.225   1.499  0.00  0.00    +0.066 C 
BRANCH  20  21
ATOM     21  C   LIG    1       -6.404  -0.921   0.892  0.00  0.00    +0.010 C 
ATOM     22  C   LIG    1       -6.773   0.499   0.698  0.00  0.00    +0.191 C 
ATOM     23  O   LIG    1       -5.998   1.425   1.042  0.00  0.00    -0.287 OA
ATOM     24  C   LIG    1       -8.049   0.868   0.099  0.00  0.00    +0.033 A 
ATOM     25  C   LIG    1       -8.436   2.173  -0.102  0.00  0.00    +0.012 A 
ATOM     26  C   LIG    1       -9.660   2.510  -0.675  0.00  0.00    +0.001 A 
ATOM     27  C   LIG    1      -10.519   1.503  -1.057  0.00  0.00    +0.001 A 
ATOM     28  C   LIG    1      -10.139   0.181  -0.859  0.00  0.00    +0.012 A 
ATOM     29  C   LIG    1       -8.922  -0.147  -0.289  0.00  0.00    +0.033 A 
ATOM     30  C   LIG    1       -8.496  -1.510  -0.070  0.00  0.00    +0.190 C 
ATOM     31  O   LIG    1       -9.284  -2.440  -0.420  0.00  0.00    -0.287 OA
ATOM     32  C   LIG    1       -7.215  -1.899   0.532  0.00  0.00    +0.004 C 
ATOM     33  C   LIG    1       -6.921  -3.345   0.690  0.00  0.00    +0.048 C 
ENDBRANCH  20  21
ENDBRANCH   2  20
TORSDOF 14
