REMARK  Name = molecules/MBWXZXUOKTXXBU-UHFFFAOYSA-P.pdb
REMARK                            x       y       z     vdW  Elec       q    Type
REMARK                         _______ _______ _______ _____ _____    ______ ____
ROOT
ATOM      1  C   LIG    1        0.043  -1.562  -2.889  0.00  0.00    +0.002 C 
ENDROOT
BRANCH   1   2
ATOM      2  C   LIG    1        0.803  -1.037  -1.737  0.00  0.00    +0.019 C 
BRANCH   2   3
ATOM      3  C   LIG    1        2.251  -1.512  -1.909  0.00  0.00    +0.107 C 
BRANCH   3   5
ATOM      4  C   LIG    1        4.443  -1.376  -0.798  0.00  0.00    +0.400 C 
ATOM      5  N   LIG    1        3.068  -1.034  -0.811  0.00  0.00    -0.281 N 
ATOM      6  H   LIG    1        2.621  -0.454  -0.062  0.00  0.00    +0.152 HD
ATOM      7  O   LIG    1        4.906  -2.074  -1.728  0.00  0.00    -0.226 OA
BRANCH   4   8
ATOM      8  O   LIG    1        5.319  -0.982   0.190  0.00  0.00    -0.452 OA
BRANCH   8   9
ATOM      9  C   LIG    1        6.691  -1.328   0.195  0.00  0.00    +0.216 C 
BRANCH   9  10
ATOM     10  C   LIG    1        7.428  -0.785   1.366  0.00  0.00    -0.034 C 
BRANCH  10  11
ATOM     11  N   LIG    1        7.423   0.633   1.483  0.00  0.00    +0.377 N 
ATOM     12  C   LIG    1        6.990   1.038   2.808  0.00  0.00    -0.093 C 
ATOM     13  C   LIG    1        8.808   1.101   1.342  0.00  0.00    -0.093 C 
ATOM     14  C   LIG    1        6.618   1.324   0.526  0.00  0.00    -0.093 C 
ENDBRANCH  10  11
ENDBRANCH   9  10
ENDBRANCH   8   9
ENDBRANCH   4   8
ENDBRANCH   3   5
ENDBRANCH   2   3
ENDBRANCH   1   2
BRANCH   1  15
ATOM     15  C   LIG    1       -1.403  -1.300  -2.990  0.00  0.00    +0.002 C 
BRANCH  15  16
ATOM     16  C   LIG    1       -1.915   0.069  -3.115  0.00  0.00    +0.019 C 
BRANCH  16  17
ATOM     17  C   LIG    1       -1.663   1.058  -2.042  0.00  0.00    +0.107 C 
BRANCH  17  18
ATOM     18  N   LIG    1       -2.146   0.669  -0.728  0.00  0.00    -0.281 N 
ATOM     19  H   LIG    1       -1.472   0.575   0.072  0.00  0.00    +0.152 HD
ATOM     20  C   LIG    1       -3.513   0.406  -0.478  0.00  0.00    +0.400 C 
ATOM     21  O   LIG    1       -4.337   0.507  -1.396  0.00  0.00    -0.226 OA
BRANCH  20  22
ATOM     22  O   LIG    1       -3.927   0.042   0.773  0.00  0.00    -0.452 OA
BRANCH  22  23
ATOM     23  C   LIG    1       -5.242  -0.241   1.140  0.00  0.00    +0.216 C 
BRANCH  23  24
ATOM     24  C   LIG    1       -6.168   0.939   0.921  0.00  0.00    -0.034 C 
BRANCH  24  25
ATOM     25  N   LIG    1       -7.522   0.608   1.313  0.00  0.00    +0.377 N 
ATOM     26  C   LIG    1       -7.592   0.139   2.675  0.00  0.00    -0.093 C 
ATOM     27  C   LIG    1       -8.315   1.829   1.230  0.00  0.00    -0.093 C 
ATOM     28  C   LIG    1       -8.124  -0.340   0.394  0.00  0.00    -0.093 C 
ENDBRANCH  24  25
ENDBRANCH  23  24
ENDBRANCH  22  23
ENDBRANCH  20  22
ENDBRANCH  17  18
ENDBRANCH  16  17
ENDBRANCH  15  16
ENDBRANCH   1  15
TORSDOF 15
