REMARK  Name = molecules/MCIACXAZCBVDEE-CUUWFGFTSA-N.pdb
REMARK                            x       y       z     vdW  Elec       q    Type
REMARK                         _______ _______ _______ _____ _____    ______ ____
ROOT
ATOM      1  C   LIG    1       -0.469   0.088   0.275  0.00  0.00    +0.014 A 
ATOM      2  C   LIG    1        0.831  -0.290  -0.035  0.00  0.00    -0.024 A 
ATOM      3  C   LIG    1        1.048  -1.201  -1.030  0.00  0.00    +0.044 A 
ATOM      4 CL   LIG    1        2.653  -1.806  -1.442  0.00  0.00    -0.083 Cl
ATOM      5  C   LIG    1       -0.064  -1.702  -1.694  0.00  0.00    +0.021 A 
ATOM      6  C   LIG    1       -1.349  -1.311  -1.368  0.00  0.00    +0.010 A 
ATOM      7  C   LIG    1       -1.589  -0.392  -0.357  0.00  0.00    +0.014 A 
ENDROOT
BRANCH   7   8
ATOM      8  C   LIG    1       -2.957  -0.091   0.007  0.00  0.00    +0.227 C 
ATOM      9  C   LIG    1       -3.099   0.564   1.362  0.00  0.00    +0.209 C 
ATOM     10  C   LIG    1       -4.521   0.824   1.717  0.00  0.00    +0.180 C 
ATOM     11  C   LIG    1       -5.503   0.411   0.671  0.00  0.00    +0.182 C 
ATOM     12  C   LIG    1       -4.966   0.218  -0.702  0.00  0.00    +0.147 C 
ATOM     13  C   LIG    1       -4.655  -1.295  -0.800  0.00  0.00    +0.203 C 
ATOM     14  O   LIG    1       -3.617  -1.345   0.099  0.00  0.00    -0.340 OA
ATOM     15  O   LIG    1       -3.648   0.670  -0.893  0.00  0.00    -0.329 OA
BRANCH   9  16
ATOM     16  O   LIG    1       -2.493  -0.276   2.273  0.00  0.00    -0.383 OA
ATOM     17  H   LIG    1       -2.118  -1.103   1.870  0.00  0.00    +0.210 HD
ENDBRANCH   9  16
BRANCH  10  18
ATOM     18  O   LIG    1       -4.783   2.139   2.058  0.00  0.00    -0.386 OA
ATOM     19  H   LIG    1       -4.721   2.752   1.308  0.00  0.00    +0.210 HD
ENDBRANCH  10  18
BRANCH  11  20
ATOM     20  O   LIG    1       -6.143  -0.784   1.077  0.00  0.00    -0.386 OA
ATOM     21  H   LIG    1       -7.098  -0.764   1.033  0.00  0.00    +0.210 HD
ENDBRANCH  11  20
BRANCH  12  22
ATOM     22  C   LIG    1       -5.908   0.616  -1.788  0.00  0.00    +0.196 C 
BRANCH  22  23
ATOM     23  O   LIG    1       -7.190   0.083  -1.483  0.00  0.00    -0.392 OA
ATOM     24  H   LIG    1       -7.146  -0.902  -1.672  0.00  0.00    +0.210 HD
ENDBRANCH  22  23
ENDBRANCH  12  22
ENDBRANCH   7   8
BRANCH   2  25
ATOM     25  C   LIG    1        1.910   0.369   0.724  0.00  0.00    +0.071 C 
BRANCH  25  26
ATOM     26  C   LIG    1        3.260   0.305   0.191  0.00  0.00    -0.043 A 
ATOM     27  C   LIG    1        4.278  -0.219   0.990  0.00  0.00    +0.007 A 
ATOM     28  C   LIG    1        5.581  -0.243   0.549  0.00  0.00    +0.046 A 
ATOM     29  C   LIG    1        5.895   0.249  -0.692  0.00  0.00    +0.121 A 
ATOM     30  C   LIG    1        4.916   0.776  -1.517  0.00  0.00    +0.046 A 
ATOM     31  C   LIG    1        3.628   0.788  -1.053  0.00  0.00    +0.007 A 
BRANCH  29  32
ATOM     32  O   LIG    1        7.179   0.245  -1.143  0.00  0.00    -0.492 OA
BRANCH  32  33
ATOM     33  C   LIG    1        8.222  -0.205  -0.279  0.00  0.00    +0.225 C 
ATOM     34  C   LIG    1        8.323   0.741   0.913  0.00  0.00    +0.048 C 
ENDBRANCH  32  33
ENDBRANCH  29  32
ENDBRANCH  25  26
ENDBRANCH   2  25
TORSDOF 10
