REMARK  Name = molecules/MCYHPZGUONZRGO-VKHMYHEASA-N.pdb
REMARK                            x       y       z     vdW  Elec       q    Type
REMARK                         _______ _______ _______ _____ _____    ______ ____
ROOT
ATOM      1  C   LIG    1       -1.012  -0.290  -0.596  0.00  0.00    +0.170 C 
ENDROOT
BRANCH   1   2
ATOM      2  N   LIG    1       -0.999  -1.739  -0.505  0.00  0.00    -0.318 NA
ATOM      3  H   LIG    1       -0.379  -2.093   0.244  0.00  0.00    +0.119 HD
ATOM      4  H   LIG    1       -1.994  -2.034  -0.397  0.00  0.00    +0.119 HD
ENDBRANCH   1   2
BRANCH   1   5
ATOM      5  C   LIG    1        0.373   0.212  -0.554  0.00  0.00    +0.325 C 
ATOM      6  O   LIG    1        0.610   1.448  -0.618  0.00  0.00    -0.249 OA
BRANCH   5   8
ATOM      7  C   LIG    1        2.786  -0.088  -0.408  0.00  0.00    +0.280 C 
ATOM      8  O   LIG    1        1.468  -0.635  -0.443  0.00  0.00    -0.467 OA
ENDBRANCH   5   8
ENDBRANCH   1   5
BRANCH   1   9
ATOM      9  C   LIG    1       -1.846   0.295   0.527  0.00  0.00    +0.095 C 
BRANCH   9  10
ATOM     10  S   LIG    1       -1.853   2.099   0.326  0.00  0.00    -0.176 S 
ATOM     11  H   LIG    1       -0.768   2.667   1.044  0.00  0.00    +0.102 HD
ENDBRANCH   9  10
ENDBRANCH   1   9
TORSDOF 5
