REMARK  Name = molecules/MDJFHRLTPRPZLY-UHFFFAOYSA-N.pdb
REMARK                            x       y       z     vdW  Elec       q    Type
REMARK                         _______ _______ _______ _____ _____    ______ ____
ROOT
ATOM      1  C   LIG    1       -1.034   0.641  -0.287  0.00  0.00    +0.140 C 
ENDROOT
BRANCH   1   2
ATOM      2  N   LIG    1       -2.309   0.479   0.432  0.00  0.00    -0.310 N 
ATOM      3  C   LIG    1       -2.626   1.153   1.559  0.00  0.00    +0.201 A 
ATOM      4  N   LIG    1       -3.853   0.738   1.871  0.00  0.00    -0.242 NA
ATOM      5  C   LIG    1       -4.314  -0.155   0.999  0.00  0.00    +0.164 A 
ATOM      6  C   LIG    1       -3.307  -0.336   0.044  0.00  0.00    +0.215 A 
BRANCH   6   7
ATOM      7  N   LIG    1       -3.364  -1.216  -1.073  0.00  0.00    +0.075 N 
ATOM      8  O   LIG    1       -4.501  -1.948  -1.266  0.00  0.00    -0.125 OA
ATOM      9  O   LIG    1       -2.424  -1.347  -1.864  0.00  0.00    -0.125 OA
ENDBRANCH   6   7
ENDBRANCH   1   2
BRANCH   1  10
ATOM     10  C   LIG    1       -0.032  -0.379   0.190  0.00  0.00    +0.106 C 
BRANCH  10  11
ATOM     11  N   LIG    1        1.227  -0.233  -0.517  0.00  0.00    -0.296 NA
ATOM     12  C   LIG    1        2.119  -1.307  -0.169  0.00  0.00    +0.112 C 
ATOM     13  C   LIG    1        3.545  -0.955  -0.513  0.00  0.00    +0.175 C 
ATOM     14  O   LIG    1        3.894   0.070   0.372  0.00  0.00    -0.377 OA
ATOM     15  C   LIG    1        3.211   1.191  -0.023  0.00  0.00    +0.175 C 
ATOM     16  C   LIG    1        1.759   1.070  -0.258  0.00  0.00    +0.112 C 
ENDBRANCH  10  11
ENDBRANCH   1  10
TORSDOF 4
