REMARK  Name = molecules/MDJRZSNPHZEMJH-MTMZYOSNSA-N.pdb
REMARK                            x       y       z     vdW  Elec       q    Type
REMARK                         _______ _______ _______ _____ _____    ______ ____
ROOT
ATOM      1  C   LIG    1        1.744   0.509  -1.269  0.00  0.00    +0.012 C 
ATOM      2  C   LIG    1        1.410   0.103   0.128  0.00  0.00    -0.019 C 
ATOM      3  C   LIG    1        2.537   0.319   1.089  0.00  0.00    +0.065 C 
ATOM      4  C   LIG    1        2.381   1.751   1.573  0.00  0.00    +0.012 C 
ATOM      5  C   LIG    1        1.075   2.265   0.947  0.00  0.00    +0.005 C 
ATOM      6  C   LIG    1        0.340   0.994   0.763  0.00  0.00    -0.001 C 
ATOM      7  C   LIG    1       -0.922   1.040   0.008  0.00  0.00    +0.000 C 
ATOM      8  C   LIG    1       -1.899   1.904   0.781  0.00  0.00    +0.031 C 
ATOM      9  C   LIG    1       -3.274   1.737   0.303  0.00  0.00    -0.027 C 
ATOM     10  C   LIG    1       -3.668   0.682  -0.362  0.00  0.00    -0.065 C 
ATOM     11  C   LIG    1       -2.792  -0.466  -0.716  0.00  0.00    -0.008 C 
ATOM     12  C   LIG    1       -3.510  -1.716  -0.257  0.00  0.00    +0.014 C 
ATOM     13  C   LIG    1       -4.691  -1.366   0.621  0.00  0.00    +0.032 C 
ATOM     14  C   LIG    1       -5.737  -0.606  -0.175  0.00  0.00    +0.119 C 
ATOM     15  C   LIG    1       -2.719  -0.520  -2.223  0.00  0.00    +0.016 C 
ATOM     16  C   LIG    1       -5.088   0.606  -0.803  0.00  0.00    +0.062 C 
ATOM     17  C   LIG    1       -1.456  -0.399  -0.055  0.00  0.00    +0.003 C 
ATOM     18  C   LIG    1       -0.420  -1.264  -0.689  0.00  0.00    +0.005 C 
ATOM     19  C   LIG    1        0.828  -1.301   0.191  0.00  0.00    +0.008 C 
ENDROOT
BRANCH   3  20
ATOM     20  C   LIG    1        3.869   0.042   0.529  0.00  0.00    +0.174 C 
ATOM     21  O   LIG    1        4.092  -0.332  -0.605  0.00  0.00    -0.293 OA
BRANCH  20  22
ATOM     22  C   LIG    1        5.056   0.229   1.411  0.00  0.00    +0.306 C 
BRANCH  22  23
ATOM     23  O   LIG    1        6.271  -0.068   0.759  0.00  0.00    -0.457 OA
BRANCH  23  24
ATOM     24  C   LIG    1        6.566  -1.306   0.225  0.00  0.00    +0.304 C 
ATOM     25  O   LIG    1        5.706  -2.215   0.325  0.00  0.00    -0.251 OA
ATOM     26  C   LIG    1        7.878  -1.570  -0.461  0.00  0.00    +0.136 C 
ENDBRANCH  23  24
ENDBRANCH  22  23
ENDBRANCH  20  22
ENDBRANCH   3  20
BRANCH  14  27
ATOM     27  O   LIG    1       -6.229  -1.483  -1.160  0.00  0.00    -0.391 OA
ATOM     28  H   LIG    1       -7.053  -1.883  -0.790  0.00  0.00    +0.210 HD
ENDBRANCH  14  27
TORSDOF 5
