REMARK  Name = molecules/MDKGKXOCJGEUJW-VIFPVBQESA-N.pdb
REMARK                            x       y       z     vdW  Elec       q    Type
REMARK                         _______ _______ _______ _____ _____    ______ ____
ROOT
ATOM      1  C   LIG    1        0.830  -0.916   0.022  0.00  0.00    +0.023 A 
ATOM      2  C   LIG    1        0.757   0.320   0.653  0.00  0.00    +0.012 A 
ATOM      3  C   LIG    1       -0.469   0.939   0.805  0.00  0.00    +0.005 A 
ATOM      4  C   LIG    1       -1.652   0.385   0.356  0.00  0.00    -0.034 A 
ATOM      5  C   LIG    1       -1.560  -0.839  -0.265  0.00  0.00    +0.005 A 
ATOM      6  C   LIG    1       -0.342  -1.470  -0.425  0.00  0.00    +0.012 A 
ENDROOT
BRANCH   1   7
ATOM      7  C   LIG    1        2.078  -1.623  -0.180  0.00  0.00    +0.200 C 
ATOM      8  O   LIG    1        2.091  -2.856  -0.388  0.00  0.00    -0.286 OA
BRANCH   7   9
ATOM      9  C   LIG    1        3.390  -0.944  -0.153  0.00  0.00    +0.059 A 
ATOM     10  S   LIG    1        4.903  -1.527   0.394  0.00  0.00    -0.093 S 
ATOM     11  C   LIG    1        5.855  -0.148   0.098  0.00  0.00    +0.046 A 
ATOM     12  C   LIG    1        4.957   0.741  -0.427  0.00  0.00    +0.008 A 
ATOM     13  C   LIG    1        3.687   0.331  -0.556  0.00  0.00    +0.019 A 
ENDBRANCH   7   9
ENDBRANCH   1   7
BRANCH   4  14
ATOM     14  C   LIG    1       -2.964   1.035   0.518  0.00  0.00    +0.124 C 
ATOM     15  C   LIG    1       -3.857   0.084   1.298  0.00  0.00    +0.024 C 
BRANCH  14  16
ATOM     16  C   LIG    1       -3.604   1.202  -0.810  0.00  0.00    +0.312 C 
ATOM     17  O   LIG    1       -3.876   2.385  -1.187  0.00  0.00    -0.250 OA
BRANCH  16  18
ATOM     18  O   LIG    1       -3.930   0.190  -1.667  0.00  0.00    -0.480 OA
ATOM     19  H   LIG    1       -4.618  -0.532  -1.481  0.00  0.00    +0.295 HD
ENDBRANCH  16  18
ENDBRANCH  14  16
ENDBRANCH   4  14
TORSDOF 5
