REMARK  Name = molecules/MDLAAYDRRZXJIF-UHFFFAOYSA-N.pdb
REMARK                            x       y       z     vdW  Elec       q    Type
REMARK                         _______ _______ _______ _____ _____    ______ ____
ROOT
ATOM      1  C   LIG    1        3.297  -0.290  -0.406  0.00  0.00    +0.093 C 
ATOM      2  C   LIG    1        3.064   0.315   0.981  0.00  0.00    +0.055 C 
ATOM      3  C   LIG    1        1.740   1.002   1.060  0.00  0.00    +0.087 C 
ATOM      4  N   LIG    1        0.893   0.504  -0.012  0.00  0.00    -0.302 NA
ATOM      5  C   LIG    1        0.964  -0.909  -0.038  0.00  0.00    +0.087 C 
ATOM      6  C   LIG    1        2.271  -1.306  -0.745  0.00  0.00    +0.055 C 
ENDROOT
BRANCH   1   7
ATOM      7  C   LIG    1        4.685  -0.778  -0.409  0.00  0.00    -0.015 A 
ATOM      8  C   LIG    1        5.707   0.155  -0.203  0.00  0.00    +0.020 A 
ATOM      9  C   LIG    1        7.029  -0.172  -0.172  0.00  0.00    +0.073 A 
ATOM     10  C   LIG    1        7.393  -1.490  -0.351  0.00  0.00    +0.053 A 
ATOM     11 CL   LIG    1        9.104  -1.952  -0.311  0.00  0.00    -0.083 Cl
ATOM     12  C   LIG    1        6.417  -2.430  -0.555  0.00  0.00    +0.021 A 
ATOM     13  C   LIG    1        5.075  -2.073  -0.584  0.00  0.00    +0.008 A 
BRANCH   9  14
ATOM     14  C   LIG    1        8.103   0.829   0.051  0.00  0.00    +0.419 C 
ATOM     15  F   LIG    1        8.801   0.428   1.170  0.00  0.00    -0.166 F 
ATOM     16  F   LIG    1        7.517   2.068   0.232  0.00  0.00    -0.166 F 
ATOM     17  F   LIG    1        9.003   0.891  -0.997  0.00  0.00    -0.166 F 
ENDBRANCH   9  14
ENDBRANCH   1   7
BRANCH   1  18
ATOM     18  O   LIG    1        3.271   0.807  -1.290  0.00  0.00    -0.384 OA
ATOM     19  H   LIG    1        2.805   1.585  -0.924  0.00  0.00    +0.211 HD
ENDBRANCH   1  18
BRANCH   4  20
ATOM     20  C   LIG    1       -0.443   1.062   0.089  0.00  0.00    +0.084 C 
BRANCH  20  21
ATOM     21  C   LIG    1       -1.221   0.831  -1.153  0.00  0.00    +0.016 C 
BRANCH  21  22
ATOM     22  C   LIG    1       -2.601   1.433  -1.025  0.00  0.00    +0.014 C 
BRANCH  22  23
ATOM     23  C   LIG    1       -3.381   0.809   0.079  0.00  0.00    +0.049 C 
BRANCH  23  24
ATOM     24  C   LIG    1       -4.733   1.392   0.238  0.00  0.00    -0.040 A 
ATOM     25  C   LIG    1       -5.334   1.297   1.480  0.00  0.00    +0.007 A 
ATOM     26  C   LIG    1       -6.588   1.837   1.690  0.00  0.00    +0.038 A 
ATOM     27  C   LIG    1       -7.276   2.486   0.667  0.00  0.00    +0.123 A 
ATOM     28  F   LIG    1       -8.508   3.011   0.894  0.00  0.00    -0.205 F 
ATOM     29  C   LIG    1       -6.667   2.575  -0.570  0.00  0.00    +0.038 A 
ATOM     30  C   LIG    1       -5.433   2.037  -0.754  0.00  0.00    +0.007 A 
ENDBRANCH  23  24
BRANCH  23  31
ATOM     31  C   LIG    1       -3.579  -0.636  -0.298  0.00  0.00    -0.040 A 
ATOM     32  C   LIG    1       -3.232  -1.618   0.612  0.00  0.00    +0.007 A 
ATOM     33  C   LIG    1       -3.393  -2.940   0.323  0.00  0.00    +0.038 A 
ATOM     34  C   LIG    1       -3.912  -3.339  -0.902  0.00  0.00    +0.123 A 
ATOM     35  F   LIG    1       -4.068  -4.666  -1.186  0.00  0.00    -0.205 F 
ATOM     36  C   LIG    1       -4.248  -2.344  -1.785  0.00  0.00    +0.038 A 
ATOM     37  C   LIG    1       -4.099  -0.994  -1.523  0.00  0.00    +0.007 A 
ENDBRANCH  23  31
ENDBRANCH  22  23
ENDBRANCH  21  22
ENDBRANCH  20  21
ENDBRANCH   4  20
TORSDOF 9
