REMARK  Name = molecules/METKIMKYRPQLGS-GFCCVEGCSA-N.pdb
REMARK                            x       y       z     vdW  Elec       q    Type
REMARK                         _______ _______ _______ _____ _____    ______ ____
ROOT
ATOM      1  C   LIG    1        1.108  -0.993  -0.606  0.00  0.00    +0.121 A 
ATOM      2  C   LIG    1        1.677  -1.136   0.628  0.00  0.00    +0.046 A 
ATOM      3  C   LIG    1        3.041  -0.856   0.825  0.00  0.00    +0.007 A 
ATOM      4  C   LIG    1        3.867  -0.435  -0.186  0.00  0.00    -0.038 A 
ATOM      5  C   LIG    1        3.294  -0.293  -1.429  0.00  0.00    +0.007 A 
ATOM      6  C   LIG    1        1.965  -0.563  -1.627  0.00  0.00    +0.046 A 
ENDROOT
BRANCH   1   7
ATOM      7  O   LIG    1       -0.199  -1.244  -0.846  0.00  0.00    -0.489 OA
BRANCH   7   8
ATOM      8  C   LIG    1       -1.196  -1.621   0.005  0.00  0.00    +0.261 C 
BRANCH   8   9
ATOM      9  C   LIG    1       -1.548  -0.581   1.021  0.00  0.00    +0.166 C 
BRANCH   9  10
ATOM     10  O   LIG    1       -2.564  -1.086   1.837  0.00  0.00    -0.387 OA
ATOM     11  H   LIG    1       -2.272  -1.181   2.795  0.00  0.00    +0.210 HD
ENDBRANCH   9  10
BRANCH   9  12
ATOM     12  C   LIG    1       -1.987   0.701   0.333  0.00  0.00    +0.115 C 
BRANCH  12  13
ATOM     13  N   LIG    1       -3.119   0.574  -0.513  0.00  0.00    -0.311 NA
ATOM     14  H   LIG    1       -2.990   0.025  -1.375  0.00  0.00    +0.122 HD
BRANCH  13  15
ATOM     15  C   LIG    1       -4.371   0.308   0.108  0.00  0.00    +0.048 C 
ATOM     16  C   LIG    1       -4.806   1.418   1.042  0.00  0.00    +0.023 C 
ATOM     17  C   LIG    1       -5.423   0.282  -1.014  0.00  0.00    +0.023 C 
ENDBRANCH  13  15
ENDBRANCH  12  13
ENDBRANCH   9  12
ENDBRANCH   8   9
ENDBRANCH   7   8
ENDBRANCH   1   7
BRANCH   4  18
ATOM     18  C   LIG    1        5.283  -0.166   0.102  0.00  0.00    +0.130 C 
BRANCH  18  19
ATOM     19  C   LIG    1        5.574   1.211   0.511  0.00  0.00    +0.215 C 
ATOM     20  N   LIG    1        6.931   1.533   0.804  0.00  0.00    -0.329 N 
ATOM     21  H   LIG    1        7.562   0.889   1.336  0.00  0.00    +0.145 HD
ATOM     22  H   LIG    1        7.366   2.434   0.501  0.00  0.00    +0.145 HD
ATOM     23  O   LIG    1        4.707   2.113   0.616  0.00  0.00    -0.276 OA
ENDBRANCH  18  19
ENDBRANCH   4  18
TORSDOF 9
