REMARK  Name = molecules/METQSPRSQINEEU-HXCATZOESA-N.pdb
REMARK                            x       y       z     vdW  Elec       q    Type
REMARK                         _______ _______ _______ _____ _____    ______ ____
ROOT
ATOM      1  C   LIG    1        1.337  -1.293   1.308  0.00  0.00    +0.015 C 
ATOM      2  C   LIG    1        1.651  -0.076   0.528  0.00  0.00    +0.011 C 
ATOM      3  C   LIG    1        1.105   1.116   1.323  0.00  0.00    +0.011 C 
ATOM      4  C   LIG    1       -0.392   1.077   1.358  0.00  0.00    +0.005 C 
ATOM      5  C   LIG    1       -1.081   0.698   0.123  0.00  0.00    +0.003 C 
ATOM      6  C   LIG    1       -2.480   0.180   0.372  0.00  0.00    -0.007 C 
ATOM      7  C   LIG    1       -3.243   1.229   1.153  0.00  0.00    +0.019 C 
ATOM      8  C   LIG    1       -4.667   0.785   1.422  0.00  0.00    +0.080 C 
ATOM      9  C   LIG    1       -5.150  -0.137   0.364  0.00  0.00    +0.156 C 
ATOM     10  O   LIG    1       -6.114  -0.892   0.574  0.00  0.00    -0.293 OA
ATOM     11  C   LIG    1       -4.473  -0.139  -0.921  0.00  0.00    +0.046 C 
ATOM     12  C   LIG    1       -2.511  -1.159   1.051  0.00  0.00    +0.016 C 
ATOM     13  C   LIG    1       -3.159   0.016  -0.940  0.00  0.00    -0.057 C 
ATOM     14  C   LIG    1       -2.408   0.026  -2.225  0.00  0.00    +0.019 C 
ATOM     15  C   LIG    1       -0.972  -0.231  -2.138  0.00  0.00    +0.000 C 
ATOM     16  C   LIG    1       -1.871  -1.306  -2.638  0.00  0.00    +0.012 C 
ATOM     17  C   LIG    1       -0.385  -0.325  -0.745  0.00  0.00    +0.001 C 
ATOM     18  C   LIG    1        3.102   0.095   0.192  0.00  0.00    +0.123 C 
ATOM     19  O   LIG    1        3.894  -0.739   1.018  0.00  0.00    -0.457 OA
ATOM     20  C   LIG    1        5.193  -0.212   1.044  0.00  0.00    +0.308 C 
ATOM     21  O   LIG    1        6.178  -0.844   1.455  0.00  0.00    -0.251 OA
ATOM     22  C   LIG    1        5.154   1.186   0.507  0.00  0.00    +0.124 C 
ATOM     23  C   LIG    1        3.647   1.455   0.498  0.00  0.00    +0.060 C 
ATOM     24  C   LIG    1        3.311  -0.336  -1.225  0.00  0.00    +0.037 C 
ATOM     25  C   LIG    1        2.826  -1.723  -1.543  0.00  0.00    +0.012 C 
ATOM     26  C   LIG    1        1.893  -0.651  -1.805  0.00  0.00    +0.000 C 
ATOM     27  C   LIG    1        1.042   0.048  -0.823  0.00  0.00    +0.006 C 
ENDROOT
TORSDOF 0
