REMARK  Name = molecules/MEZZCSHVIGVWFI-UHFFFAOYSA-N.pdb
REMARK                            x       y       z     vdW  Elec       q    Type
REMARK                         _______ _______ _______ _____ _____    ______ ____
ROOT
ATOM      1  C   LIG    1       -0.915  -0.267  -0.971  0.00  0.00    +0.201 C 
ATOM      2  O   LIG    1       -1.136  -0.808  -2.142  0.00  0.00    -0.213 OA
ENDROOT
BRANCH   1   3
ATOM      3  C   LIG    1       -2.008   0.480  -0.425  0.00  0.00    +0.037 A 
ATOM      4  C   LIG    1       -2.161   0.794   0.895  0.00  0.00    +0.010 A 
ATOM      5  C   LIG    1       -3.281   1.479   1.403  0.00  0.00    +0.001 A 
ATOM      6  C   LIG    1       -4.283   1.859   0.548  0.00  0.00    +0.004 A 
ATOM      7  C   LIG    1       -4.154   1.552  -0.791  0.00  0.00    +0.046 A 
ATOM      8  C   LIG    1       -3.054   0.885  -1.266  0.00  0.00    +0.123 A 
BRANCH   8   9
ATOM      9  O   LIG    1       -2.985   0.606  -2.627  0.00  0.00    -0.506 OA
ATOM     10  H   LIG    1       -3.723   0.885  -3.259  0.00  0.00    +0.292 HD
ENDBRANCH   8   9
ENDBRANCH   1   3
BRANCH   1  11
ATOM     11  C   LIG    1        0.394  -0.526  -0.450  0.00  0.00    +0.037 A 
ATOM     12  C   LIG    1        0.963   0.249   0.512  0.00  0.00    +0.014 A 
ATOM     13  C   LIG    1        2.264  -0.008   0.943  0.00  0.00    +0.046 A 
ATOM     14  C   LIG    1        3.010  -1.040   0.420  0.00  0.00    +0.124 A 
ATOM     15  C   LIG    1        2.427  -1.831  -0.564  0.00  0.00    +0.091 A 
ATOM     16  C   LIG    1        1.145  -1.578  -0.989  0.00  0.00    +0.127 A 
BRANCH  14  17
ATOM     17  O   LIG    1        4.308  -1.295   0.853  0.00  0.00    -0.495 OA
ATOM     18  C   LIG    1        4.939  -0.533   1.835  0.00  0.00    +0.277 C 
ENDBRANCH  14  17
BRANCH  16  19
ATOM     19  O   LIG    1        0.605  -2.399  -1.977  0.00  0.00    -0.506 OA
ATOM     20  H   LIG    1        1.111  -3.160  -2.386  0.00  0.00    +0.292 HD
ENDBRANCH  16  19
ENDBRANCH   1  11
TORSDOF 5
