REMARK  Name = molecules/MFBCDACCJCDGBA-UHFFFAOYSA-N.pdb
REMARK                            x       y       z     vdW  Elec       q    Type
REMARK                         _______ _______ _______ _____ _____    ______ ____
ROOT
ATOM      1  C   LIG    1        2.467   0.107   0.443  0.00  0.00    +0.020 A 
ATOM      2  C   LIG    1        3.755  -0.381   0.305  0.00  0.00    -0.017 A 
ATOM      3  C   LIG    1        3.917  -1.718   0.007  0.00  0.00    +0.012 A 
ATOM      4  C   LIG    1        2.781  -2.522  -0.143  0.00  0.00    +0.047 A 
ATOM      5  C   LIG    1        1.506  -2.017  -0.003  0.00  0.00    +0.128 A 
ATOM      6  C   LIG    1        1.338  -0.654   0.301  0.00  0.00    +0.024 A 
ENDROOT
BRANCH   2   7
ATOM      7  C   LIG    1        4.927   0.476   0.465  0.00  0.00    -0.018 A 
ATOM      8  C   LIG    1        6.135   0.025   0.948  0.00  0.00    +0.009 A 
ATOM      9  C   LIG    1        7.211   0.886   1.075  0.00  0.00    +0.015 A 
ATOM     10  C   LIG    1        7.122   2.226   0.725  0.00  0.00    +0.059 A 
ATOM     11  C   LIG    1        5.925   2.666   0.247  0.00  0.00    +0.015 A 
ATOM     12  C   LIG    1        4.854   1.808   0.121  0.00  0.00    +0.009 A 
BRANCH  10  13
ATOM     13  C   LIG    1        8.245   3.135   0.855  0.00  0.00    +0.337 C 
ATOM     14  O   LIG    1        8.111   4.331   0.525  0.00  0.00    -0.245 OA
BRANCH  13  15
ATOM     15  O   LIG    1        9.449   2.668   1.342  0.00  0.00    -0.477 OA
ATOM     16  H   LIG    1        9.664   2.787   2.319  0.00  0.00    +0.295 HD
ENDBRANCH  13  15
ENDBRANCH  10  13
ENDBRANCH   2   7
BRANCH   6  17
ATOM     17  C   LIG    1        0.011  -0.075   0.459  0.00  0.00    -0.014 A 
ATOM     18  C   LIG    1       -0.243   0.759   1.511  0.00  0.00    +0.010 A 
ATOM     19  C   LIG    1       -1.499   1.297   1.645  0.00  0.00    +0.024 A 
ATOM     20  C   LIG    1       -2.525   0.999   0.714  0.00  0.00    +0.033 A 
ATOM     21  C   LIG    1       -2.295   0.176  -0.333  0.00  0.00    -0.020 A 
ATOM     22  C   LIG    1       -0.996  -0.354  -0.435  0.00  0.00    +0.014 A 
BRANCH  20  23
ATOM     23  N   LIG    1       -3.757   1.627   0.987  0.00  0.00    -0.330 N 
ATOM     24  C   LIG    1       -4.713   1.282   2.038  0.00  0.00    +0.105 C 
ATOM     25  C   LIG    1       -6.032   1.753   1.516  0.00  0.00    +0.020 C 
ATOM     26  C   LIG    1       -5.803   2.614   0.309  0.00  0.00    +0.020 C 
ATOM     27  C   LIG    1       -4.301   2.768   0.309  0.00  0.00    +0.105 C 
ENDBRANCH  20  23
BRANCH  21  28
ATOM     28  C   LIG    1       -3.297  -0.166  -1.329  0.00  0.00    -0.011 C 
ATOM     29  C   LIG    1       -4.521  -0.819  -0.667  0.00  0.00    +0.015 C 
ATOM     30  C   LIG    1       -2.736  -1.351  -2.178  0.00  0.00    +0.015 C 
ATOM     31  C   LIG    1       -3.647   0.866  -2.342  0.00  0.00    +0.015 C 
ENDBRANCH  21  28
ENDBRANCH   6  17
BRANCH   5  32
ATOM     32  O   LIG    1        0.402  -2.790  -0.146  0.00  0.00    -0.489 OA
BRANCH  32  33
ATOM     33  C   LIG    1        0.184  -4.104  -0.444  0.00  0.00    +0.257 C 
BRANCH  33  34
ATOM     34  C   LIG    1        0.648  -4.564  -1.800  0.00  0.00    +0.196 C 
BRANCH  34  35
ATOM     35  O   LIG    1        0.342  -5.936  -1.924  0.00  0.00    -0.392 OA
ATOM     36  H   LIG    1        0.323  -6.364  -1.034  0.00  0.00    +0.210 HD
ENDBRANCH  34  35
ENDBRANCH  33  34
ENDBRANCH  32  33
ENDBRANCH   5  32
TORSDOF 10
