REMARK  Name = molecules/MFBMYAOAMQLLPK-FZNHGJLXSA-N.pdb
REMARK                            x       y       z     vdW  Elec       q    Type
REMARK                         _______ _______ _______ _____ _____    ______ ____
ROOT
ATOM      1  C   LIG    1        2.090   0.464  -0.714  0.00  0.00    +0.180 C 
ATOM      2  C   LIG    1        0.866   0.271   0.066  0.00  0.00    +0.020 C 
ATOM      3  C   LIG    1        0.973  -0.586   1.297  0.00  0.00    +0.016 C 
ATOM      4  C   LIG    1        0.121   1.525   0.491  0.00  0.00    +0.043 C 
ATOM      5  C   LIG    1       -1.315   1.378   0.771  0.00  0.00    +0.119 C 
ATOM      6  C   LIG    1       -2.125   0.382   0.064  0.00  0.00    +0.031 C 
ATOM      7  C   LIG    1       -3.346  -0.097   0.761  0.00  0.00    -0.005 C 
ATOM      8  C   LIG    1       -3.061  -1.112   1.839  0.00  0.00    +0.016 C 
ATOM      9  C   LIG    1       -4.219   1.040   1.235  0.00  0.00    +0.019 C 
ATOM     10  C   LIG    1       -5.518   0.599   1.810  0.00  0.00    +0.080 C 
ATOM     11  C   LIG    1       -6.242  -0.245   0.846  0.00  0.00    +0.156 C 
ATOM     12  O   LIG    1       -7.469  -0.395   0.961  0.00  0.00    -0.293 OA
ATOM     13  C   LIG    1       -5.484  -0.878  -0.214  0.00  0.00    +0.046 C 
ATOM     14  C   LIG    1       -4.165  -0.825  -0.276  0.00  0.00    -0.060 C 
ATOM     15  C   LIG    1       -3.523  -1.511  -1.410  0.00  0.00    +0.032 C 
ATOM     16  C   LIG    1       -2.078  -1.775  -1.244  0.00  0.00    +0.008 C 
ATOM     17  C   LIG    1       -1.319  -0.859  -0.361  0.00  0.00    -0.001 C 
ATOM     18  C   LIG    1       -0.114  -0.300  -0.972  0.00  0.00    +0.003 C 
ATOM     19  C   LIG    1        0.699  -1.114  -1.905  0.00  0.00    +0.009 C 
ATOM     20  C   LIG    1        1.800  -0.065  -2.154  0.00  0.00    +0.057 C 
ENDROOT
BRANCH   1  21
ATOM     21  C   LIG    1        3.330  -0.237  -0.367  0.00  0.00    +0.214 C 
ATOM     22  O   LIG    1        4.333   0.428  -0.185  0.00  0.00    -0.289 OA
BRANCH  21  23
ATOM     23  C   LIG    1        3.544  -1.685  -0.203  0.00  0.00    +0.310 C 
BRANCH  23  24
ATOM     24  O   LIG    1        4.913  -1.980   0.138  0.00  0.00    -0.457 OA
BRANCH  24  25
ATOM     25  C   LIG    1        5.305  -3.284   0.332  0.00  0.00    +0.304 C 
ATOM     26  C   LIG    1        6.676  -3.678   0.680  0.00  0.00    +0.136 C 
ATOM     27  O   LIG    1        4.429  -4.175   0.199  0.00  0.00    -0.251 OA
ENDBRANCH  24  25
ENDBRANCH  23  24
ENDBRANCH  21  23
ENDBRANCH   1  21
BRANCH   5  28
ATOM     28  O   LIG    1       -1.487   1.293   2.180  0.00  0.00    -0.391 OA
ATOM     29  H   LIG    1       -1.056   2.115   2.538  0.00  0.00    +0.210 HD
ENDBRANCH   5  28
BRANCH   1  30
ATOM     30  O   LIG    1        2.352   1.863  -0.824  0.00  0.00    -0.450 OA
BRANCH  30  31
ATOM     31  C   LIG    1        2.874   2.648   0.162  0.00  0.00    +0.308 C 
ATOM     32  O   LIG    1        3.184   2.183   1.283  0.00  0.00    -0.251 OA
BRANCH  31  33
ATOM     33  C   LIG    1        3.103   4.105  -0.040  0.00  0.00    +0.117 C 
ATOM     34  C   LIG    1        2.696   4.555  -1.416  0.00  0.00    +0.015 C 
ENDBRANCH  31  33
ENDBRANCH  30  31
ENDBRANCH   1  30
TORSDOF 8
