REMARK  Name = molecules/MFDFERRIHVXMIY-UHFFFAOYSA-N.pdb
REMARK                            x       y       z     vdW  Elec       q    Type
REMARK                         _______ _______ _______ _____ _____    ______ ____
ROOT
ATOM      1  C   LIG    1        1.068  -0.090   0.454  0.00  0.00    +0.339 C 
ATOM      2  O   LIG    1        0.397   0.767   1.021  0.00  0.00    -0.245 OA
ENDROOT
BRANCH   1   3
ATOM      3  C   LIG    1        2.520   0.115   0.383  0.00  0.00    +0.059 A 
ATOM      4  C   LIG    1        3.121   1.228   0.934  0.00  0.00    +0.017 A 
ATOM      5  C   LIG    1        4.486   1.369   0.858  0.00  0.00    +0.023 A 
ATOM      6  C   LIG    1        5.247   0.393   0.233  0.00  0.00    +0.025 A 
ATOM      7  C   LIG    1        4.668  -0.725  -0.323  0.00  0.00    +0.023 A 
ATOM      8  C   LIG    1        3.293  -0.841  -0.234  0.00  0.00    +0.017 A 
BRANCH   6   9
ATOM      9  N   LIG    1        6.671   0.506   0.145  0.00  0.00    -0.358 N 
ATOM     10  H   LIG    1        7.285  -0.281   0.471  0.00  0.00    +0.142 HD
ATOM     11  H   LIG    1        7.072   1.371  -0.242  0.00  0.00    +0.142 HD
ENDBRANCH   6   9
ENDBRANCH   1   3
BRANCH   1  12
ATOM     12  O   LIG    1        0.510  -1.193  -0.089  0.00  0.00    -0.460 OA
BRANCH  12  13
ATOM     13  C   LIG    1       -0.770  -1.680  -0.177  0.00  0.00    +0.248 C 
BRANCH  13  14
ATOM     14  C   LIG    1       -1.808  -0.852  -0.810  0.00  0.00    +0.125 C 
BRANCH  14  15
ATOM     15  N   LIG    1       -2.176   0.386  -0.252  0.00  0.00    -0.300 NA
BRANCH  15  17
ATOM     16  C   LIG    1       -4.251   0.557  -1.538  0.00  0.00    +0.020 C 
ATOM     17  C   LIG    1       -2.960   1.157  -1.165  0.00  0.00    +0.081 C 
ENDBRANCH  15  17
BRANCH  15  18
ATOM     18  C   LIG    1       -2.736   0.305   1.075  0.00  0.00    +0.081 C 
ATOM     19  C   LIG    1       -3.955  -0.554   1.232  0.00  0.00    +0.020 C 
ENDBRANCH  15  18
ENDBRANCH  14  15
ENDBRANCH  13  14
ENDBRANCH  12  13
ENDBRANCH   1  12
TORSDOF 8
