REMARK  Name = molecules/MFFMDFFZMYYVKS-SECBINFHSA-N.pdb
REMARK                            x       y       z     vdW  Elec       q    Type
REMARK                         _______ _______ _______ _____ _____    ______ ____
ROOT
ATOM      1  C   LIG    1       -5.547  -0.234   0.120  0.00  0.00    +0.238 A 
ATOM      2  N   LIG    1       -4.318   0.158   0.469  0.00  0.00    -0.305 N 
ATOM      3  C   LIG    1       -3.733   1.411   0.818  0.00  0.00    +0.144 C 
ATOM      4  C   LIG    1       -2.427   1.651   0.098  0.00  0.00    +0.130 C 
ATOM      5  N   LIG    1       -1.596   0.472   0.104  0.00  0.00    -0.292 N 
ATOM      6  C   LIG    1       -2.095  -0.644   0.856  0.00  0.00    +0.184 C 
ATOM      7  C   LIG    1       -0.382   0.420  -0.610  0.00  0.00    +0.217 C 
ATOM      8  O   LIG    1        0.050   1.457  -1.233  0.00  0.00    -0.276 OA
ATOM      9  C   LIG    1       -3.483  -0.916   0.471  0.00  0.00    +0.151 A 
ATOM     10  N   LIG    1       -4.222  -1.969   0.120  0.00  0.00    -0.132 NA
ATOM     11  N   LIG    1       -5.468  -1.545  -0.093  0.00  0.00    -0.125 NA
ENDROOT
BRANCH   1  12
ATOM     12  C   LIG    1       -6.802   0.604   0.009  0.00  0.00    +0.452 C 
ATOM     13  F   LIG    1       -6.644   1.780   0.715  0.00  0.00    -0.163 F 
ATOM     14  F   LIG    1       -7.806  -0.113   0.676  0.00  0.00    -0.163 F 
ATOM     15  F   LIG    1       -7.121   0.920  -1.287  0.00  0.00    -0.163 F 
ENDBRANCH   1  12
BRANCH   7  16
ATOM     16  C   LIG    1        0.419  -0.798  -0.669  0.00  0.00    +0.114 C 
BRANCH  16  17
ATOM     17  C   LIG    1        1.892  -0.649  -0.490  0.00  0.00    +0.064 C 
BRANCH  17  18
ATOM     18  N   LIG    1        2.439  -2.044  -0.321  0.00  0.00    -0.327 NA
ATOM     19  H   LIG    1        1.957  -2.442   0.537  0.00  0.00    +0.118 HD
ATOM     20  H   LIG    1        2.228  -2.548  -1.199  0.00  0.00    +0.118 HD
ENDBRANCH  17  18
BRANCH  17  21
ATOM     21  C   LIG    1        2.319  -0.014   0.843  0.00  0.00    +0.057 C 
BRANCH  21  22
ATOM     22  C   LIG    1        3.802   0.052   0.701  0.00  0.00    -0.008 A 
ATOM     23  C   LIG    1        4.624  -0.941   1.127  0.00  0.00    +0.047 A 
ATOM     24  C   LIG    1        6.011  -0.887   0.861  0.00  0.00    +0.159 A 
ATOM     25  F   LIG    1        6.834  -1.885   1.278  0.00  0.00    -0.202 F 
ATOM     26  C   LIG    1        6.537   0.186   0.173  0.00  0.00    +0.161 A 
ATOM     27  F   LIG    1        7.854   0.242  -0.085  0.00  0.00    -0.202 F 
ATOM     28  C   LIG    1        5.700   1.194  -0.259  0.00  0.00    +0.080 A 
ATOM     29  C   LIG    1        4.361   1.120   0.003  0.00  0.00    +0.129 A 
ATOM     30  F   LIG    1        3.508   2.089  -0.398  0.00  0.00    -0.205 F 
ENDBRANCH  21  22
ENDBRANCH  17  21
ENDBRANCH  16  17
ENDBRANCH   7  16
TORSDOF 6
