REMARK  Name = molecules/MFWNKCLOYSRHCJ-BTTYYORXSA-N.pdb
REMARK                            x       y       z     vdW  Elec       q    Type
REMARK                         _______ _______ _______ _____ _____    ______ ____
ROOT
ATOM      1  N   LIG    1        0.155   0.053   0.158  0.00  0.00    -0.307 N 
ATOM      2  H   LIG    1        0.201  -0.738   0.827  0.00  0.00    +0.149 HD
ATOM      3  C   LIG    1        1.365   0.610  -0.322  0.00  0.00    +0.265 C 
ATOM      4  O   LIG    1        1.372   1.579  -1.143  0.00  0.00    -0.268 OA
ENDROOT
BRANCH   1   5
ATOM      5  C   LIG    1       -1.122   0.588  -0.287  0.00  0.00    +0.076 C 
ATOM      6  C   LIG    1       -1.841   1.107   0.929  0.00  0.00    +0.041 C 
ATOM      7  C   LIG    1       -3.328   0.820   0.809  0.00  0.00    +0.058 C 
ATOM      8  C   LIG    1       -3.612  -0.504   1.402  0.00  0.00    +0.019 C 
ATOM      9  C   LIG    1       -4.305  -1.493   0.556  0.00  0.00    +0.003 C 
ATOM     10  C   LIG    1       -4.173  -1.312  -0.913  0.00  0.00    +0.019 C 
ATOM     11  C   LIG    1       -3.279  -0.174  -1.316  0.00  0.00    +0.058 C 
ATOM     12  N   LIG    1       -3.663   0.974  -0.572  0.00  0.00    -0.299 NA
ATOM     13  C   LIG    1       -4.952   1.494  -0.839  0.00  0.00    +0.105 C 
ATOM     14  C   LIG    1       -1.857  -0.536  -0.972  0.00  0.00    +0.041 C 
ENDBRANCH   1   5
BRANCH   3  15
ATOM     15  C   LIG    1        2.624   0.059   0.137  0.00  0.00    +0.155 A 
ATOM     16  N   LIG    1        2.805  -0.960   0.999  0.00  0.00    -0.166 NA
ATOM     17  N   LIG    1        4.096  -1.176   1.174  0.00  0.00    -0.266 N 
ATOM     18  C   LIG    1        4.729  -2.179   2.019  0.00  0.00    +0.173 C 
ATOM     19  C   LIG    1        4.802  -0.308   0.434  0.00  0.00    +0.069 A 
ATOM     20  C   LIG    1        6.136  -0.076   0.229  0.00  0.00    +0.028 A 
ATOM     21  C   LIG    1        6.594   0.913  -0.613  0.00  0.00    +0.002 A 
ATOM     22  C   LIG    1        5.674   1.691  -1.266  0.00  0.00    +0.001 A 
ATOM     23  C   LIG    1        4.329   1.476  -1.075  0.00  0.00    +0.012 A 
ATOM     24  C   LIG    1        3.875   0.483  -0.231  0.00  0.00    +0.032 A 
ENDBRANCH   3  15
TORSDOF 2
