REMARK  Name = molecules/MFZOSKPPVCIFMT-UHFFFAOYSA-N.pdb
REMARK                            x       y       z     vdW  Elec       q    Type
REMARK                         _______ _______ _______ _____ _____    ______ ____
ROOT
ATOM      1  N   LIG    1        2.249   0.383   1.050  0.00  0.00    -0.258 N 
ATOM      2  C   LIG    1        1.627   1.231   2.051  0.00  0.00    +0.242 C 
ATOM      3  C   LIG    1        0.274   1.192   2.652  0.00  0.00    +0.238 C 
ATOM      4  N   LIG    1       -0.762   1.009   1.667  0.00  0.00    -0.273 NA
ATOM      5  C   LIG    1       -0.880   0.164   0.670  0.00  0.00    +0.075 C 
ATOM      6  C   LIG    1        0.116  -0.824   0.385  0.00  0.00    +0.023 A 
ATOM      7  C   LIG    1       -0.444  -1.998  -0.083  0.00  0.00    +0.032 A 
ATOM      8  C   LIG    1        0.363  -3.048  -0.462  0.00  0.00    +0.042 A 
ATOM      9  C   LIG    1        1.744  -2.902  -0.360  0.00  0.00    +0.022 A 
ATOM     10  C   LIG    1        2.311  -1.737   0.111  0.00  0.00    +0.025 A 
ATOM     11 CL   LIG    1       -0.345  -4.541  -1.070  0.00  0.00    -0.084 Cl
ATOM     12  O   LIG    1        2.361   2.139   2.468  0.00  0.00    -0.273 OA
ATOM     13  C   LIG    1        1.509  -0.707   0.483  0.00  0.00    +0.047 A 
ENDROOT
BRANCH   5  14
ATOM     14  C   LIG    1       -2.063   0.240  -0.142  0.00  0.00    +0.001 A 
ATOM     15  C   LIG    1       -3.096   1.098   0.303  0.00  0.00    +0.010 A 
ATOM     16  C   LIG    1       -4.221   1.360  -0.431  0.00  0.00    +0.001 A 
ATOM     17  C   LIG    1       -4.409   0.793  -1.656  0.00  0.00    +0.000 A 
ATOM     18  C   LIG    1       -3.433  -0.046  -2.132  0.00  0.00    +0.001 A 
ATOM     19  C   LIG    1       -2.279  -0.304  -1.364  0.00  0.00    +0.010 A 
ENDBRANCH   5  14
BRANCH   1  20
ATOM     20  C   LIG    1        3.578   0.609   0.629  0.00  0.00    +0.202 C 
BRANCH  20  21
ATOM     21  C   LIG    1        3.684   1.508  -0.532  0.00  0.00    -0.086 C 
ATOM     22  C   LIG    1        3.765   2.232  -1.506  0.00  0.00    +0.005 C 
ENDBRANCH  20  21
ENDBRANCH   1  20
TORSDOF 3
