REMARK  Name = molecules/MFZWMTSUNYWVBU-UHFFFAOYSA-N.pdb
REMARK                            x       y       z     vdW  Elec       q    Type
REMARK                         _______ _______ _______ _____ _____    ______ ____
ROOT
ATOM      1  C   LIG    1       -2.675  -2.751   0.062  0.00  0.00    -0.008 A 
ATOM      2  C   LIG    1       -2.771  -1.370   0.311  0.00  0.00    +0.031 A 
ATOM      3  C   LIG    1       -1.724  -0.617   0.777  0.00  0.00    +0.057 A 
ATOM      4  C   LIG    1       -0.519  -1.326   0.986  0.00  0.00    +0.039 A 
ATOM      5  C   LIG    1       -0.409  -2.628   0.755  0.00  0.00    +0.024 A 
ATOM      6  C   LIG    1       -1.789   0.769   0.899  0.00  0.00    +0.197 A 
ATOM      7  O   LIG    1       -0.797   1.384   1.381  0.00  0.00    -0.287 OA
ATOM      8  C   LIG    1       -2.884   1.543   0.567  0.00  0.00    +0.036 A 
ATOM      9  C   LIG    1       -2.738   2.950   0.696  0.00  0.00    +0.013 A 
ATOM     10  C   LIG    1       -3.688   3.839   0.348  0.00  0.00    +0.001 A 
ATOM     11  C   LIG    1       -4.897   3.393  -0.168  0.00  0.00    +0.001 A 
ATOM     12  C   LIG    1       -5.086   2.038  -0.294  0.00  0.00    +0.016 A 
ATOM     13  C   LIG    1       -4.071   1.138   0.080  0.00  0.00    +0.024 A 
ATOM     14  S   LIG    1       -4.201  -0.557  -0.130  0.00  0.00    -0.088 S 
ATOM     15  C   LIG    1       -1.504  -3.417   0.282  0.00  0.00    +0.009 A 
ENDROOT
BRANCH   4  16
ATOM     16  N   LIG    1        0.548  -0.418   1.378  0.00  0.00    -0.342 N 
ATOM     17  H   LIG    1        0.621  -0.341   2.419  0.00  0.00    +0.146 HD
BRANCH  16  18
ATOM     18  C   LIG    1        1.309   0.179   0.363  0.00  0.00    +0.117 C 
BRANCH  18  19
ATOM     19  C   LIG    1        2.294   0.037  -0.600  0.00  0.00    +0.103 C 
BRANCH  19  20
ATOM     20  N   LIG    1        3.678  -0.006  -0.497  0.00  0.00    -0.301 NA
BRANCH  20  21
ATOM     21  C   LIG    1        4.304  -1.096   0.127  0.00  0.00    +0.081 C 
ATOM     22  C   LIG    1        5.759  -1.139  -0.365  0.00  0.00    +0.020 C 
ENDBRANCH  20  21
BRANCH  20  23
ATOM     23  C   LIG    1        4.139   1.271   0.102  0.00  0.00    +0.081 C 
ATOM     24  C   LIG    1        3.778   2.487  -0.660  0.00  0.00    +0.020 C 
ENDBRANCH  20  23
ENDBRANCH  19  20
ENDBRANCH  18  19
ENDBRANCH  16  18
ENDBRANCH   4  16
BRANCH   1  25
ATOM     25  C   LIG    1       -3.875  -3.326  -0.600  0.00  0.00    +0.192 C 
BRANCH  25  26
ATOM     26  O   LIG    1       -4.546  -4.273   0.159  0.00  0.00    -0.390 OA
ATOM     27  H   LIG    1       -5.368  -3.771   0.557  0.00  0.00    +0.210 HD
ENDBRANCH  25  26
ENDBRANCH   1  25
TORSDOF 8
