REMARK  Name = molecules/MGIZPPBLEKKZPZ-UHFFFAOYSA-N.pdb
REMARK                            x       y       z     vdW  Elec       q    Type
REMARK                         _______ _______ _______ _____ _____    ______ ____
ROOT
ATOM      1  N   LIG    1       -0.207   1.431   0.319  0.00  0.00    -0.292 NA
ENDROOT
BRANCH   1   2
ATOM      2  C   LIG    1        0.656   0.918  -0.655  0.00  0.00    +0.120 C 
BRANCH   2   3
ATOM      3  C   LIG    1        1.825   0.170  -0.205  0.00  0.00    -0.030 A 
ATOM      4  C   LIG    1        2.334   0.302   1.064  0.00  0.00    +0.009 A 
ATOM      5  C   LIG    1        3.440  -0.387   1.508  0.00  0.00    +0.050 A 
ATOM      6  C   LIG    1        4.075  -1.250   0.652  0.00  0.00    +0.166 A 
ATOM      7  O   LIG    1        5.206  -2.088   0.789  0.00  0.00    -0.453 OA
ATOM      8  C   LIG    1        5.712  -2.292  -0.542  0.00  0.00    +0.466 C 
ATOM      9  O   LIG    1        4.454  -2.347  -1.237  0.00  0.00    -0.453 OA
ATOM     10  C   LIG    1        3.605  -1.416  -0.625  0.00  0.00    +0.167 A 
ATOM     11  C   LIG    1        2.479  -0.701  -1.046  0.00  0.00    +0.054 A 
ENDBRANCH   2   3
ENDBRANCH   1   2
BRANCH   1  12
ATOM     12  C   LIG    1       -0.888   0.572   1.197  0.00  0.00    +0.120 C 
BRANCH  12  13
ATOM     13  C   LIG    1       -1.794  -0.399   0.485  0.00  0.00    -0.030 A 
ATOM     14  C   LIG    1       -3.103  -0.036   0.251  0.00  0.00    +0.054 A 
ATOM     15  C   LIG    1       -3.996  -0.880  -0.399  0.00  0.00    +0.167 A 
ATOM     16  O   LIG    1       -5.334  -0.698  -0.724  0.00  0.00    -0.453 OA
ATOM     17  C   LIG    1       -5.811  -1.938  -1.190  0.00  0.00    +0.466 C 
ATOM     18  O   LIG    1       -4.665  -2.711  -1.425  0.00  0.00    -0.453 OA
ATOM     19  C   LIG    1       -3.554  -2.107  -0.816  0.00  0.00    +0.166 A 
ATOM     20  C   LIG    1       -2.249  -2.508  -0.601  0.00  0.00    +0.050 A 
ATOM     21  C   LIG    1       -1.372  -1.639   0.056  0.00  0.00    +0.009 A 
ENDBRANCH  12  13
ENDBRANCH   1  12
BRANCH   1  22
ATOM     22  C   LIG    1       -0.699   2.753   0.152  0.00  0.00    +0.113 C 
BRANCH  22  23
ATOM     23  C   LIG    1        0.398   3.817   0.304  0.00  0.00    +0.171 C 
BRANCH  23  24
ATOM     24  O   LIG    1       -0.236   5.048   0.117  0.00  0.00    -0.394 OA
ATOM     25  H   LIG    1       -0.694   5.012  -0.770  0.00  0.00    +0.209 HD
ENDBRANCH  23  24
ENDBRANCH  22  23
ENDBRANCH   1  22
TORSDOF 7
