REMARK  Name = molecules/MGQLHRYJBWGORO-NSHDSACASA-N.pdb
REMARK                            x       y       z     vdW  Elec       q    Type
REMARK                         _______ _______ _______ _____ _____    ______ ____
ROOT
ATOM      1  C   LIG    1       -0.609  -0.022   0.186  0.00  0.00    +0.168 A 
ATOM      2  C   LIG    1       -1.820   0.622   0.224  0.00  0.00    +0.097 A 
ATOM      3  N   LIG    1       -2.998  -0.013   0.408  0.00  0.00    -0.340 N 
ATOM      4  C   LIG    1       -4.135   0.725   0.447  0.00  0.00    +0.105 A 
ATOM      5  C   LIG    1       -4.152   2.111   0.307  0.00  0.00    +0.122 A 
ATOM      6  C   LIG    1       -2.957   2.760   0.122  0.00  0.00    +0.204 A 
ATOM      7  O   LIG    1       -2.932   4.029  -0.009  0.00  0.00    -0.286 OA
ATOM      8  C   LIG    1       -1.797   2.020   0.082  0.00  0.00    +0.052 A 
ATOM      9  C   LIG    1       -0.607   2.723  -0.088  0.00  0.00    +0.054 A 
ATOM     10  C   LIG    1        0.595   2.073  -0.122  0.00  0.00    +0.149 A 
ATOM     11  F   LIG    1        1.760   2.771  -0.289  0.00  0.00    -0.203 F 
ATOM     12  C   LIG    1        0.580   0.705   0.016  0.00  0.00    +0.110 A 
ENDROOT
BRANCH  12  13
ATOM     13  N   LIG    1        1.851   0.068  -0.026  0.00  0.00    -0.323 N 
ATOM     14  C   LIG    1        2.663  -0.201   1.154  0.00  0.00    +0.124 C 
ATOM     15  C   LIG    1        4.053   0.291   1.027  0.00  0.00    +0.071 C 
ATOM     16  C   LIG    1        4.437   0.860  -0.305  0.00  0.00    +0.022 C 
ATOM     17  C   LIG    1        3.798   0.276  -1.501  0.00  0.00    +0.020 C 
ATOM     18  C   LIG    1        2.437  -0.330  -1.269  0.00  0.00    +0.105 C 
BRANCH  15  19
ATOM     19  N   LIG    1        5.023  -0.679   1.495  0.00  0.00    -0.315 NA
ATOM     20  H   LIG    1        5.980  -0.281   1.520  0.00  0.00    +0.122 HD
ATOM     21  C   LIG    1        5.052  -1.904   0.764  0.00  0.00    +0.101 C 
ENDBRANCH  15  19
ENDBRANCH  12  13
BRANCH   3  22
ATOM     22  C   LIG    1       -3.028  -1.437   0.596  0.00  0.00    +0.088 C 
ATOM     23  C   LIG    1       -4.406  -2.034   0.873  0.00  0.00    +0.027 C 
ATOM     24  C   LIG    1       -3.635  -2.397  -0.318  0.00  0.00    +0.027 C 
ENDBRANCH   3  22
BRANCH   1  25
ATOM     25  O   LIG    1       -0.511  -1.376   0.304  0.00  0.00    -0.491 OA
ATOM     26  C   LIG    1       -0.445  -2.322  -0.740  0.00  0.00    +0.277 C 
ENDBRANCH   1  25
BRANCH   5  27
ATOM     27  C   LIG    1       -5.418   2.843   0.364  0.00  0.00    +0.342 C 
ATOM     28  O   LIG    1       -5.369   4.110   0.256  0.00  0.00    -0.245 OA
BRANCH  27  29
ATOM     29  O   LIG    1       -6.591   2.163   0.527  0.00  0.00    -0.477 OA
ATOM     30  H   LIG    1       -7.062   2.131   1.430  0.00  0.00    +0.295 HD
ENDBRANCH  27  29
ENDBRANCH   5  27
TORSDOF 6
