REMARK  Name = molecules/MGSPDRWOUCPKNZ-CCEZHUSRSA-N.pdb
REMARK                            x       y       z     vdW  Elec       q    Type
REMARK                         _______ _______ _______ _____ _____    ______ ____
ROOT
ATOM      1  N   LIG    1        1.038  -1.855   0.684  0.00  0.00    -0.151 N 
ATOM      2  C   LIG    1        1.044  -3.070   1.374  0.00  0.00    +0.464 C 
ATOM      3  O   LIG    1        2.275  -3.313   1.774  0.00  0.00    -0.214 OA
ATOM      4  N   LIG    1        3.011  -2.362   1.392  0.00  0.00    +0.160 NA
ATOM      5  C   LIG    1        2.274  -1.427   0.703  0.00  0.00    +0.371 C 
ENDROOT
BRANCH   5   6
ATOM      6  C   LIG    1        2.902  -0.216   0.154  0.00  0.00    +0.070 A 
ATOM      7  C   LIG    1        4.199   0.062   0.613  0.00  0.00    +0.016 A 
ATOM      8  C   LIG    1        4.945   1.105   0.163  0.00  0.00    +0.001 A 
ATOM      9  C   LIG    1        4.387   1.924  -0.793  0.00  0.00    +0.000 A 
ATOM     10  C   LIG    1        3.123   1.698  -1.278  0.00  0.00    +0.001 A 
ATOM     11  C   LIG    1        2.389   0.607  -0.784  0.00  0.00    +0.016 A 
ENDBRANCH   5   6
BRANCH   2  12
ATOM     12  N   LIG    1        0.083  -3.780   1.582  0.00  0.00    -0.161 NA
ATOM     13  H   LIG    1       -0.714  -4.268   1.697  0.00  0.00    +0.149 HD
ENDBRANCH   2  12
BRANCH   1  14
ATOM     14  C   LIG    1       -0.149  -1.330   0.141  0.00  0.00    +0.247 C 
BRANCH  14  15
ATOM     15  C   LIG    1       -0.993  -0.459   1.020  0.00  0.00    +0.128 C 
BRANCH  15  16
ATOM     16  N   LIG    1       -2.175  -0.022   0.252  0.00  0.00    -0.299 NA
BRANCH  16  17
ATOM     17  C   LIG    1       -3.052   0.526   1.301  0.00  0.00    +0.081 C 
ATOM     18  C   LIG    1       -4.362   1.040   0.801  0.00  0.00    +0.020 C 
ENDBRANCH  16  17
BRANCH  16  19
ATOM     19  C   LIG    1       -1.828   0.939  -0.745  0.00  0.00    +0.081 C 
ATOM     20  C   LIG    1       -2.912   1.038  -1.779  0.00  0.00    +0.020 C 
ENDBRANCH  16  19
ENDBRANCH  15  16
ENDBRANCH  14  15
ENDBRANCH   1  14
TORSDOF 7
