REMARK  Name = molecules/MHNNVDILNTUWNS-XYYAHUGASA-N.pdb
REMARK                            x       y       z     vdW  Elec       q    Type
REMARK                         _______ _______ _______ _____ _____    ______ ____
ROOT
ATOM      1  C   LIG    1       -1.872   0.386   0.241  0.00  0.00    +0.265 C 
ATOM      2  N   LIG    1       -0.706  -0.406   0.330  0.00  0.00    -0.307 N 
ATOM      3  H   LIG    1       -0.788  -1.404   0.587  0.00  0.00    +0.149 HD
ATOM      4  O   LIG    1       -1.801   1.611  -0.071  0.00  0.00    -0.268 OA
ENDROOT
BRANCH   2   5
ATOM      5  C   LIG    1        0.585   0.181   0.063  0.00  0.00    +0.076 C 
ATOM      6  C   LIG    1        1.403   0.096   1.332  0.00  0.00    +0.042 C 
ATOM      7  C   LIG    1        2.891   0.115   1.034  0.00  0.00    +0.072 C 
ATOM      8  C   LIG    1        3.379  -1.318   1.102  0.00  0.00    +0.103 C 
ATOM      9  N   LIG    1        4.222  -1.649  -0.014  0.00  0.00    -0.302 NA
ATOM     10  C   LIG    1        5.441  -0.906  -0.072  0.00  0.00    +0.105 C 
ATOM     11  C   LIG    1        3.512  -1.563  -1.282  0.00  0.00    +0.103 C 
ATOM     12  C   LIG    1        2.649  -0.295  -1.304  0.00  0.00    +0.072 C 
ATOM     13  N   LIG    1        3.162   0.579  -0.306  0.00  0.00    -0.297 NA
ATOM     14  C   LIG    1        2.942   1.962  -0.513  0.00  0.00    +0.105 C 
ATOM     15  C   LIG    1        1.210  -0.608  -1.065  0.00  0.00    +0.042 C 
ENDBRANCH   2   5
BRANCH   1  16
ATOM     16  C   LIG    1       -3.167  -0.191   0.506  0.00  0.00    +0.154 A 
ATOM     17  N   LIG    1       -3.436  -1.475   0.852  0.00  0.00    -0.168 NA
ATOM     18  N   LIG    1       -4.736  -1.622   1.010  0.00  0.00    -0.276 N 
ATOM     19  H   LIG    1       -5.193  -2.534   1.280  0.00  0.00    +0.189 HD
ATOM     20  C   LIG    1       -5.368  -0.461   0.779  0.00  0.00    +0.066 A 
ATOM     21  C   LIG    1       -6.698  -0.080   0.808  0.00  0.00    +0.028 A 
ATOM     22  C   LIG    1       -7.068   1.208   0.521  0.00  0.00    +0.002 A 
ATOM     23  C   LIG    1       -6.087   2.123   0.201  0.00  0.00    +0.001 A 
ATOM     24  C   LIG    1       -4.769   1.732   0.176  0.00  0.00    +0.012 A 
ATOM     25  C   LIG    1       -4.380   0.440   0.462  0.00  0.00    +0.032 A 
ENDBRANCH   1  16
TORSDOF 2
