REMARK  Name = molecules/MHWLWQUZZRMNGJ-UHFFFAOYSA-N.pdb
REMARK                            x       y       z     vdW  Elec       q    Type
REMARK                         _______ _______ _______ _____ _____    ______ ____
ROOT
ATOM      1  N   LIG    1        0.642   0.766  -0.673  0.00  0.00    -0.331 N 
ATOM      2  C   LIG    1       -0.274  -0.082  -0.156  0.00  0.00    +0.145 A 
ATOM      3  C   LIG    1        0.112  -1.159   0.624  0.00  0.00    +0.065 A 
ATOM      4  C   LIG    1       -0.848  -2.028   1.151  0.00  0.00    +0.017 A 
ATOM      5  C   LIG    1       -2.184  -1.807   0.889  0.00  0.00    +0.024 A 
ATOM      6  C   LIG    1       -2.555  -0.732   0.111  0.00  0.00    +0.041 A 
ATOM      7  C   LIG    1       -4.011  -0.491  -0.173  0.00  0.00    +0.065 C 
ATOM      8  C   LIG    1        1.457  -1.327   0.849  0.00  0.00    +0.205 A 
ATOM      9  O   LIG    1        1.846  -2.291   1.551  0.00  0.00    -0.286 OA
ATOM     10  C   LIG    1        2.367  -0.445   0.309  0.00  0.00    +0.122 A 
ATOM     11  N   LIG    1       -1.601   0.078  -0.375  0.00  0.00    -0.234 NA
ATOM     12  C   LIG    1        1.958   0.629  -0.471  0.00  0.00    +0.106 A 
ENDROOT
BRANCH   1  13
ATOM     13  C   LIG    1        0.161   1.868  -1.478  0.00  0.00    +0.120 C 
ATOM     14  C   LIG    1       -0.121   3.098  -0.650  0.00  0.00    +0.027 C 
ENDBRANCH   1  13
BRANCH  10  15
ATOM     15  C   LIG    1        3.792  -0.649   0.566  0.00  0.00    +0.342 C 
ATOM     16  O   LIG    1        4.675   0.123   0.100  0.00  0.00    -0.245 OA
BRANCH  15  17
ATOM     17  O   LIG    1        4.228  -1.703   1.335  0.00  0.00    -0.477 OA
ATOM     18  H   LIG    1        4.592  -2.576   0.982  0.00  0.00    +0.295 HD
ENDBRANCH  15  17
ENDBRANCH  10  15
TORSDOF 3
