REMARK  Name = molecules/MITFXPHMIHQXPI-SECBINFHSA-N.pdb
REMARK                            x       y       z     vdW  Elec       q    Type
REMARK                         _______ _______ _______ _____ _____    ______ ____
ROOT
ATOM      1  C   LIG    1       -2.522  -0.085  -0.157  0.00  0.00    -0.032 A 
ATOM      2  C   LIG    1       -2.321  -1.366   0.274  0.00  0.00    +0.008 A 
ATOM      3  C   LIG    1       -1.020  -1.787   0.462  0.00  0.00    +0.049 A 
ATOM      4  C   LIG    1        0.076  -0.978   0.235  0.00  0.00    +0.156 A 
ATOM      5  O   LIG    1        1.376  -1.128   0.334  0.00  0.00    -0.435 OA
ATOM      6  C   LIG    1        1.997  -0.035  -0.004  0.00  0.00    +0.228 A 
ATOM      7  N   LIG    1        1.074   0.863  -0.335  0.00  0.00    -0.209 NA
ATOM      8  C   LIG    1       -0.172   0.318  -0.201  0.00  0.00    +0.110 A 
ATOM      9  C   LIG    1       -1.454   0.751  -0.392  0.00  0.00    +0.036 A 
ENDROOT
BRANCH   6  10
ATOM     10  C   LIG    1        3.442   0.155  -0.012  0.00  0.00    +0.037 A 
ATOM     11  C   LIG    1        4.287  -0.875   0.359  0.00  0.00    +0.014 A 
ATOM     12  C   LIG    1        5.665  -0.695   0.352  0.00  0.00    +0.021 A 
ATOM     13  C   LIG    1        6.237   0.510  -0.025  0.00  0.00    +0.041 A 
ATOM     14 CL   LIG    1        7.976   0.725  -0.030  0.00  0.00    -0.084 Cl
ATOM     15  C   LIG    1        5.398   1.534  -0.394  0.00  0.00    +0.021 A 
ATOM     16  C   LIG    1        4.031   1.346  -0.383  0.00  0.00    +0.014 A 
ENDBRANCH   6  10
BRANCH   1  17
ATOM     17  C   LIG    1       -3.894   0.418  -0.374  0.00  0.00    +0.124 C 
ATOM     18  C   LIG    1       -4.587  -0.376  -1.461  0.00  0.00    +0.024 C 
BRANCH  17  19
ATOM     19  C   LIG    1       -4.723   0.308   0.856  0.00  0.00    +0.312 C 
ATOM     20  O   LIG    1       -4.183  -0.177   1.888  0.00  0.00    -0.250 OA
BRANCH  19  21
ATOM     21  O   LIG    1       -6.026   0.727   0.842  0.00  0.00    -0.480 OA
ATOM     22  H   LIG    1       -6.278   1.679   0.605  0.00  0.00    +0.295 HD
ENDBRANCH  19  21
ENDBRANCH  17  19
ENDBRANCH   1  17
TORSDOF 4
