REMARK  Name = molecules/MJFJKKXQDNNUJF-OAHLLOKOSA-N.pdb
REMARK                            x       y       z     vdW  Elec       q    Type
REMARK                         _______ _______ _______ _____ _____    ______ ____
ROOT
ATOM      1  C   LIG    1       -1.084  -0.094   0.236  0.00  0.00    +0.051 C 
ATOM      2  C   LIG    1       -1.902  -1.345   0.283  0.00  0.00    -0.026 A 
ATOM      3  C   LIG    1       -3.070  -1.371   1.010  0.00  0.00    +0.016 A 
ATOM      4  S   LIG    1       -3.513   0.186   1.810  0.00  0.00    -0.089 S 
ATOM      5  C   LIG    1       -3.048   1.383   0.530  0.00  0.00    +0.016 A 
ATOM      6  C   LIG    1       -3.809   2.433   0.235  0.00  0.00    +0.015 A 
ATOM      7  C   LIG    1       -3.457   3.291  -0.816  0.00  0.00    +0.001 A 
ATOM      8  C   LIG    1       -2.308   2.992  -1.508  0.00  0.00    +0.000 A 
ATOM      9  C   LIG    1       -1.510   1.883  -1.191  0.00  0.00    +0.005 A 
ATOM     10  C   LIG    1       -3.832  -2.469   1.097  0.00  0.00    +0.015 A 
ATOM     11  C   LIG    1       -3.441  -3.632   0.432  0.00  0.00    +0.001 A 
ATOM     12  C   LIG    1       -2.282  -3.644  -0.305  0.00  0.00    +0.000 A 
ATOM     13  C   LIG    1       -1.518  -2.472  -0.365  0.00  0.00    +0.005 A 
ATOM     14  C   LIG    1       -1.877   1.073  -0.166  0.00  0.00    -0.026 A 
ENDROOT
BRANCH   1  15
ATOM     15  C   LIG    1        0.210  -0.289  -0.378  0.00  0.00    +0.017 C 
BRANCH  15  21
ATOM     16  C   LIG    1        4.345  -1.325  -0.789  0.00  0.00    +0.104 C 
ATOM     17  N   LIG    1        3.381  -0.589   0.016  0.00  0.00    -0.305 NA
ATOM     18  C   LIG    1        4.112   0.386   0.815  0.00  0.00    +0.084 C 
ATOM     19  C   LIG    1        3.120   1.405   1.295  0.00  0.00    +0.016 C 
ATOM     20  C   LIG    1        1.696   0.885   1.270  0.00  0.00    +0.006 C 
ATOM     21  C   LIG    1        1.297   0.703  -0.179  0.00  0.00    +0.004 C 
ATOM     22  C   LIG    1        2.541   0.147  -0.889  0.00  0.00    +0.087 C 
ENDBRANCH  15  21
ENDBRANCH   1  15
TORSDOF 2
