REMARK  Name = molecules/MJIHNNLFOKEZEW-VWLOTQADSA-N.pdb
REMARK                            x       y       z     vdW  Elec       q    Type
REMARK                         _______ _______ _______ _____ _____    ______ ____
ROOT
ATOM      1  C   LIG    1        0.149  -0.001   0.095  0.00  0.00    +0.153 C 
ENDROOT
BRANCH   1   2
ATOM      2  C   LIG    1       -1.206  -0.153  -0.472  0.00  0.00    +0.059 A 
ATOM      3  C   LIG    1       -2.292  -0.163   0.343  0.00  0.00    +0.013 A 
ATOM      4  C   LIG    1       -2.072  -0.019   1.809  0.00  0.00    +0.049 C 
ATOM      5  C   LIG    1       -3.619  -0.306  -0.143  0.00  0.00    +0.127 A 
ATOM      6  C   LIG    1       -3.765  -0.437  -1.498  0.00  0.00    +0.065 A 
ATOM      7  C   LIG    1       -2.646  -0.422  -2.308  0.00  0.00    +0.114 A 
ATOM      8  N   LIG    1       -1.415  -0.285  -1.807  0.00  0.00    -0.259 NA
BRANCH   5   9
ATOM      9  O   LIG    1       -4.612  -0.306   0.775  0.00  0.00    -0.483 OA
BRANCH   9  10
ATOM     10  C   LIG    1       -5.948  -0.377   0.680  0.00  0.00    +0.342 C 
BRANCH  10  11
ATOM     11  C   LIG    1       -6.604   0.808   0.070  0.00  0.00    +0.424 C 
ATOM     12  F   LIG    1       -6.282   1.916   0.895  0.00  0.00    -0.167 F 
ATOM     13  F   LIG    1       -8.005   0.666   0.073  0.00  0.00    -0.167 F 
ATOM     14  F   LIG    1       -6.256   1.185  -1.175  0.00  0.00    -0.167 F 
ENDBRANCH  10  11
ENDBRANCH   9  10
ENDBRANCH   5   9
ENDBRANCH   1   2
BRANCH   1  15
ATOM     15  S   LIG    1        1.333  -0.032  -1.284  0.00  0.00    +0.030 S 
ATOM     16  O   LIG    1        1.224  -1.337  -2.045  0.00  0.00    -0.154 OA
BRANCH  15  17
ATOM     17  C   LIG    1        2.963   0.149  -0.616  0.00  0.00    +0.186 A 
ATOM     18  N   LIG    1        3.730  -0.889  -0.240  0.00  0.00    -0.332 N 
ATOM     19  C   LIG    1        4.883  -0.398   0.212  0.00  0.00    +0.067 A 
ATOM     20  C   LIG    1        6.007  -1.022   0.714  0.00  0.00    +0.028 A 
ATOM     21  C   LIG    1        7.111  -0.319   1.133  0.00  0.00    +0.002 A 
ATOM     22  C   LIG    1        7.080   1.056   1.044  0.00  0.00    +0.002 A 
ATOM     23  C   LIG    1        5.957   1.685   0.542  0.00  0.00    +0.030 A 
ATOM     24  C   LIG    1        4.855   0.986   0.123  0.00  0.00    +0.090 A 
ATOM     25  H   LIG    1        3.501  -1.910  -0.278  0.00  0.00    +0.168 HD
ATOM     26  N   LIG    1        3.644   1.285  -0.397  0.00  0.00    -0.221 NA
ENDBRANCH  15  17
ENDBRANCH   1  15
TORSDOF 6
