REMARK  Name = molecules/MJIHNNLFOKEZEW-RUZDIDTESA-N.pdb
REMARK                            x       y       z     vdW  Elec       q    Type
REMARK                         _______ _______ _______ _____ _____    ______ ____
ROOT
ATOM      1  C   LIG    1       -2.000   1.559  -0.405  0.00  0.00    +0.049 C 
ATOM      2  C   LIG    1       -2.202   0.142  -0.029  0.00  0.00    +0.013 A 
ATOM      3  C   LIG    1       -1.181  -0.624   0.369  0.00  0.00    +0.059 A 
ATOM      4  N   LIG    1       -1.529  -1.932   0.691  0.00  0.00    -0.259 NA
ATOM      5  C   LIG    1       -2.740  -2.443   0.633  0.00  0.00    +0.114 A 
ATOM      6  C   LIG    1       -3.786  -1.641   0.219  0.00  0.00    +0.065 A 
ATOM      7  C   LIG    1       -3.541  -0.330  -0.124  0.00  0.00    +0.127 A 
ENDROOT
BRANCH   3   8
ATOM      8  C   LIG    1        0.235  -0.305   0.607  0.00  0.00    +0.153 C 
BRANCH   8   9
ATOM      9  S   LIG    1        1.126   0.317  -0.868  0.00  0.00    +0.030 S 
ATOM     10  O   LIG    1        0.835   1.906  -0.784  0.00  0.00    -0.154 OA
BRANCH   9  11
ATOM     11  C   LIG    1        2.854   0.423  -0.362  0.00  0.00    +0.186 A 
ATOM     12  N   LIG    1        3.622   1.293   0.208  0.00  0.00    -0.221 NA
ATOM     13  C   LIG    1        4.897   0.852   0.337  0.00  0.00    +0.090 A 
ATOM     14  C   LIG    1        6.019   1.438   0.874  0.00  0.00    +0.030 A 
ATOM     15  C   LIG    1        7.213   0.725   0.864  0.00  0.00    +0.002 A 
ATOM     16  C   LIG    1        7.267  -0.529   0.332  0.00  0.00    +0.002 A 
ATOM     17  C   LIG    1        6.111  -1.088  -0.203  0.00  0.00    +0.028 A 
ATOM     18  C   LIG    1        4.900  -0.406  -0.210  0.00  0.00    +0.067 A 
ATOM     19  N   LIG    1        3.687  -0.669  -0.624  0.00  0.00    -0.332 N 
ATOM     20  H   LIG    1        3.378  -1.551  -1.068  0.00  0.00    +0.168 HD
ENDBRANCH   9  11
ENDBRANCH   8   9
ENDBRANCH   3   8
BRANCH   7  21
ATOM     21  O   LIG    1       -4.494   0.497  -0.545  0.00  0.00    -0.483 OA
BRANCH  21  22
ATOM     22  C   LIG    1       -5.831   0.468  -0.787  0.00  0.00    +0.342 C 
BRANCH  22  23
ATOM     23  C   LIG    1       -6.773   0.310   0.338  0.00  0.00    +0.424 C 
ATOM     24  F   LIG    1       -6.800   1.458   1.173  0.00  0.00    -0.167 F 
ATOM     25  F   LIG    1       -6.662  -0.794   1.130  0.00  0.00    -0.167 F 
ATOM     26  F   LIG    1       -8.085   0.255  -0.222  0.00  0.00    -0.167 F 
ENDBRANCH  22  23
ENDBRANCH  21  22
ENDBRANCH   7  21
TORSDOF 6
