REMARK  Name = molecules/MKJIEFSOBYUXJB-HOCLYGCPSA-N.pdb
REMARK                            x       y       z     vdW  Elec       q    Type
REMARK                         _______ _______ _______ _____ _____    ______ ____
ROOT
ATOM      1  C   LIG    1        3.541  -0.220  -1.151  0.00  0.00    +0.162 A 
ATOM      2  C   LIG    1        4.120  -0.748  -0.013  0.00  0.00    +0.162 A 
ATOM      3  C   LIG    1        3.326  -1.024   1.073  0.00  0.00    +0.053 A 
ATOM      4  C   LIG    1        1.954  -0.764   1.000  0.00  0.00    -0.038 A 
ATOM      5  C   LIG    1        1.124  -1.065   2.171  0.00  0.00    +0.051 C 
ATOM      6  C   LIG    1        0.069  -0.020   2.316  0.00  0.00    +0.089 C 
ATOM      7  N   LIG    1       -0.474   0.508   1.147  0.00  0.00    -0.294 NA
ATOM      8  C   LIG    1       -1.308   1.647   1.201  0.00  0.00    +0.096 C 
ATOM      9  C   LIG    1       -2.506   1.437   0.223  0.00  0.00    +0.070 C 
ATOM     10  C   LIG    1       -1.895   1.331  -1.087  0.00  0.00    +0.139 C 
ATOM     11  C   LIG    1       -0.502   0.915  -1.242  0.00  0.00    +0.098 C 
ATOM     12  O   LIG    1       -2.526   1.588  -2.085  0.00  0.00    -0.297 OA
ATOM     13  C   LIG    1       -0.099   0.002  -0.110  0.00  0.00    +0.094 C 
ATOM     14  C   LIG    1        1.380  -0.241  -0.129  0.00  0.00    -0.023 A 
ATOM     15  C   LIG    1        2.165   0.038  -1.220  0.00  0.00    +0.054 A 
ENDROOT
BRANCH   1  16
ATOM     16  O   LIG    1        4.351   0.052  -2.236  0.00  0.00    -0.491 OA
ATOM     17  C   LIG    1        3.779   0.590  -3.404  0.00  0.00    +0.277 C 
ENDBRANCH   1  16
BRANCH   2  18
ATOM     18  O   LIG    1        5.488  -0.977  -0.017  0.00  0.00    -0.491 OA
ATOM     19  C   LIG    1        6.099  -1.518   1.142  0.00  0.00    +0.277 C 
ENDBRANCH   2  18
BRANCH   9  20
ATOM     20  C   LIG    1       -3.260   0.301   0.776  0.00  0.00    +0.015 C 
BRANCH  20  21
ATOM     21  C   LIG    1       -4.475  -0.181   0.089  0.00  0.00    -0.016 C 
ATOM     22  C   LIG    1       -5.639   0.791   0.164  0.00  0.00    +0.007 C 
ATOM     23  C   LIG    1       -4.252  -0.678  -1.307  0.00  0.00    +0.007 C 
ENDBRANCH  20  21
ENDBRANCH   9  20
TORSDOF 4
