REMARK  Name = molecules/MKKYBZZTJQGVCD-XTCKQBCOSA-N.pdb
REMARK                            x       y       z     vdW  Elec       q    Type
REMARK                         _______ _______ _______ _____ _____    ______ ____
ROOT
ATOM      1  C   LIG    1       -0.679  -0.465  -0.946  0.00  0.00    +0.173 C 
ATOM      2  C   LIG    1       -1.752   0.174  -0.131  0.00  0.00    +0.106 C 
ATOM      3  C   LIG    1       -1.609  -0.027   1.345  0.00  0.00    +0.046 C 
ATOM      4  C   LIG    1       -0.289   0.359   1.898  0.00  0.00    +0.084 C 
ATOM      5  C   LIG    1        0.837   0.375   0.874  0.00  0.00    +0.169 C 
ATOM      6  C   LIG    1        0.616  -0.661  -0.190  0.00  0.00    +0.175 C 
ENDROOT
BRANCH   2   7
ATOM      7  N   LIG    1       -1.970   1.589  -0.479  0.00  0.00    -0.308 N 
ATOM      8  H   LIG    1       -1.227   2.301  -0.280  0.00  0.00    +0.149 HD
ATOM      9  C   LIG    1       -3.165   2.033  -1.082  0.00  0.00    +0.242 C 
ATOM     10  O   LIG    1       -4.078   1.224  -1.339  0.00  0.00    -0.273 OA
BRANCH   9  11
ATOM     11  C   LIG    1       -3.340   3.460  -1.411  0.00  0.00    +0.201 C 
BRANCH  11  12
ATOM     12  O   LIG    1       -4.577   3.702  -2.024  0.00  0.00    -0.383 OA
ATOM     13  H   LIG    1       -4.442   3.921  -2.960  0.00  0.00    +0.210 HD
ENDBRANCH  11  12
BRANCH  11  14
ATOM     14  C   LIG    1       -3.356   4.307  -0.136  0.00  0.00    +0.056 C 
BRANCH  14  15
ATOM     15  C   LIG    1       -3.533   5.771  -0.464  0.00  0.00    +0.080 C 
BRANCH  15  16
ATOM     16  N   LIG    1       -2.446   6.243  -1.304  0.00  0.00    -0.330 NA
ATOM     17  H   LIG    1       -1.565   5.708  -1.061  0.00  0.00    +0.118 HD
ATOM     18  H   LIG    1       -2.653   6.151  -2.321  0.00  0.00    +0.118 HD
ENDBRANCH  15  16
ENDBRANCH  14  15
ENDBRANCH  11  14
ENDBRANCH   9  11
ENDBRANCH   2   7
BRANCH   4  19
ATOM     19  N   LIG    1       -0.288   1.673   2.542  0.00  0.00    -0.325 NA
ATOM     20  H   LIG    1        0.149   1.657   3.480  0.00  0.00    +0.119 HD
ATOM     21  H   LIG    1        0.077   2.407   1.914  0.00  0.00    +0.119 HD
ENDBRANCH   4  19
BRANCH   6  22
ATOM     22  O   LIG    1        1.659  -0.623  -1.124  0.00  0.00    -0.387 OA
ATOM     23  H   LIG    1        2.010  -1.520  -1.293  0.00  0.00    +0.210 HD
ENDBRANCH   6  22
BRANCH   5  24
ATOM     24  O   LIG    1        2.065   0.160   1.485  0.00  0.00    -0.342 OA
BRANCH  24  25
ATOM     25  C   LIG    1        2.964   1.191   1.380  0.00  0.00    +0.268 C 
ATOM     26  O   LIG    1        3.110   1.699   2.691  0.00  0.00    -0.345 OA
ATOM     27  C   LIG    1        3.814   0.853   3.503  0.00  0.00    +0.135 C 
ATOM     28  C   LIG    1        4.194  -0.465   2.921  0.00  0.00    +0.034 C 
ATOM     29  C   LIG    1        4.854  -0.420   1.580  0.00  0.00    +0.026 C 
ATOM     30  C   LIG    1        4.327   0.813   0.871  0.00  0.00    +0.107 C 
BRANCH  30  31
ATOM     31  N   LIG    1        4.391   0.708  -0.547  0.00  0.00    -0.323 NA
ATOM     32  H   LIG    1        4.967  -0.122  -0.793  0.00  0.00    +0.119 HD
ATOM     33  H   LIG    1        4.781   1.599  -0.938  0.00  0.00    +0.119 HD
ENDBRANCH  30  31
BRANCH  27  34
ATOM     34  C   LIG    1        4.991   1.555   4.190  0.00  0.00    +0.109 C 
BRANCH  34  35
ATOM     35  N   LIG    1        5.714   0.639   5.038  0.00  0.00    -0.328 NA
ATOM     36  H   LIG    1        6.051   1.136   5.897  0.00  0.00    +0.118 HD
ATOM     37  H   LIG    1        6.569   0.245   4.549  0.00  0.00    +0.118 HD
ENDBRANCH  34  35
ENDBRANCH  27  34
ENDBRANCH  24  25
ENDBRANCH   5  24
BRANCH   1  38
ATOM     38  O   LIG    1       -1.090  -1.738  -1.355  0.00  0.00    -0.341 OA
BRANCH  38  39
ATOM     39  C   LIG    1       -1.146  -1.909  -2.713  0.00  0.00    +0.281 C 
ATOM     40  O   LIG    1       -0.376  -3.059  -3.009  0.00  0.00    -0.341 OA
ATOM     41  C   LIG    1       -0.594  -3.939  -1.969  0.00  0.00    +0.177 C 
ATOM     42  C   LIG    1       -2.024  -4.437  -1.889  0.00  0.00    +0.165 C 
ATOM     43  C   LIG    1       -2.971  -3.277  -1.883  0.00  0.00    +0.116 C 
ATOM     44  C   LIG    1       -2.585  -2.344  -3.034  0.00  0.00    +0.189 C 
BRANCH  43  45
ATOM     45  N   LIG    1       -4.340  -3.687  -1.985  0.00  0.00    -0.323 NA
ATOM     46  H   LIG    1       -4.701  -3.808  -0.990  0.00  0.00    +0.119 HD
ATOM     47  H   LIG    1       -4.964  -2.942  -2.385  0.00  0.00    +0.119 HD
ENDBRANCH  43  45
BRANCH  44  48
ATOM     48  O   LIG    1       -3.387  -1.230  -3.098  0.00  0.00    -0.385 OA
ATOM     49  H   LIG    1       -4.216  -1.458  -3.592  0.00  0.00    +0.210 HD
ENDBRANCH  44  48
BRANCH  42  50
ATOM     50  O   LIG    1       -2.147  -5.070  -0.631  0.00  0.00    -0.388 OA
ATOM     51  H   LIG    1       -2.681  -5.898  -0.689  0.00  0.00    +0.210 HD
ENDBRANCH  42  50
BRANCH  41  52
ATOM     52  C   LIG    1        0.335  -5.143  -2.103  0.00  0.00    +0.190 C 
BRANCH  52  53
ATOM     53  O   LIG    1        0.069  -5.990  -1.032  0.00  0.00    -0.392 OA
ATOM     54  H   LIG    1        0.456  -5.628  -0.214  0.00  0.00    +0.210 HD
ENDBRANCH  52  53
ENDBRANCH  41  52
ENDBRANCH  38  39
ENDBRANCH   1  38
TORSDOF 20
