REMARK  Name = molecules/MKMPWKUAHLTIBJ-ISTRZQFTSA-N.pdb
REMARK                            x       y       z     vdW  Elec       q    Type
REMARK                         _______ _______ _______ _____ _____    ______ ____
ROOT
ATOM      1  C   LIG    1       -3.054  -1.466  -0.498  0.00  0.00    +0.168 C 
ATOM      2  C   LIG    1       -2.273  -1.902   0.686  0.00  0.00    +0.086 C 
ATOM      3  C   LIG    1       -1.012  -1.229   0.989  0.00  0.00    +0.042 C 
ATOM      4  C   LIG    1       -0.541  -0.189   0.041  0.00  0.00    +0.085 C 
ATOM      5  C   LIG    1       -1.451   0.084  -1.110  0.00  0.00    +0.179 C 
ATOM      6  O   LIG    1       -2.209  -1.012  -1.528  0.00  0.00    -0.369 OA
ENDROOT
BRANCH   1  14
ATOM      7  C   LIG    1       -3.900   0.464   0.908  0.00  0.00    +0.047 A 
ATOM      8  C   LIG    1       -4.805   1.475   1.147  0.00  0.00    +0.124 A 
ATOM      9  F   LIG    1       -4.649   2.314   2.234  0.00  0.00    -0.205 F 
ATOM     10  C   LIG    1       -5.893   1.697   0.323  0.00  0.00    +0.041 A 
ATOM     11  C   LIG    1       -6.025   0.841  -0.763  0.00  0.00    +0.041 A 
ATOM     12  C   LIG    1       -5.136  -0.154  -0.999  0.00  0.00    +0.129 A 
ATOM     13  F   LIG    1       -5.261  -0.992  -2.069  0.00  0.00    -0.205 F 
ATOM     14  C   LIG    1       -4.034  -0.377  -0.166  0.00  0.00    +0.020 A 
ENDBRANCH   1  14
BRANCH   4  15
ATOM     15  N   LIG    1        0.801  -0.442  -0.469  0.00  0.00    -0.287 NA
ATOM     16  C   LIG    1        1.707  -0.945   0.530  0.00  0.00    +0.123 C 
ATOM     17  C   LIG    1        3.031  -0.347   0.141  0.00  0.00    +0.010 A 
ATOM     18  C   LIG    1        4.399  -0.428   0.293  0.00  0.00    +0.140 A 
ATOM     19  N   LIG    1        4.988   0.542  -0.440  0.00  0.00    -0.141 N 
ATOM     20  N   LIG    1        4.011   1.199  -1.026  0.00  0.00    -0.153 NA
ATOM     21  C   LIG    1        2.802   0.703  -0.707  0.00  0.00    +0.083 A 
ATOM     22  C   LIG    1        1.338   0.839  -0.901  0.00  0.00    +0.142 C 
BRANCH  19  23
ATOM     23  S   LIG    1        6.696   0.800  -0.540  0.00  0.00    +0.067 S 
ATOM     24  O   LIG    1        7.445  -0.279   0.204  0.00  0.00    -0.152 OA
ATOM     25  C   LIG    1        7.064   2.403   0.089  0.00  0.00    +0.223 C 
ATOM     26  O   LIG    1        7.076   0.786  -2.000  0.00  0.00    -0.152 OA
ENDBRANCH  19  23
ENDBRANCH   4  15
BRANCH   2  27
ATOM     27  N   LIG    1       -2.027  -3.352   0.503  0.00  0.00    -0.325 NA
ATOM     28  H   LIG    1       -1.065  -3.553   0.902  0.00  0.00    +0.119 HD
ATOM     29  H   LIG    1       -1.945  -3.514  -0.522  0.00  0.00    +0.119 HD
ENDBRANCH   2  27
TORSDOF 4
