REMARK  Name = molecules/MLDQJTXFUGDVEO-UHFFFAOYSA-N.pdb
REMARK                            x       y       z     vdW  Elec       q    Type
REMARK                         _______ _______ _______ _____ _____    ______ ____
ROOT
ATOM      1  C   LIG    1       -1.679  -0.419   1.165  0.00  0.00    +0.129 A 
ATOM      2  C   LIG    1       -1.234  -1.705   0.960  0.00  0.00    +0.048 A 
ATOM      3  C   LIG    1        0.030  -2.000   0.558  0.00  0.00    +0.027 A 
ATOM      4  C   LIG    1        0.948  -0.964   0.334  0.00  0.00    +0.035 A 
ATOM      5  C   LIG    1        0.529   0.318   0.532  0.00  0.00    +0.027 A 
ATOM      6  C   LIG    1       -0.776   0.586   0.944  0.00  0.00    +0.048 A 
ENDROOT
BRANCH   4   7
ATOM      7  N   LIG    1        2.252  -1.321  -0.082  0.00  0.00    -0.269 N 
ATOM      8  C   LIG    1        3.386  -0.461  -0.030  0.00  0.00    +0.308 C 
ATOM      9  O   LIG    1        3.350   0.707   0.407  0.00  0.00    -0.252 OA
ATOM     10  N   LIG    1        4.630  -0.959  -0.509  0.00  0.00    -0.269 N 
ATOM     11  H   LIG    1        4.665  -1.941  -0.901  0.00  0.00    +0.156 HD
ATOM     12  H   LIG    1        2.400  -2.293  -0.458  0.00  0.00    +0.156 HD
BRANCH  10  13
ATOM     13  C   LIG    1        5.805  -0.178  -0.480  0.00  0.00    +0.035 A 
ATOM     14  C   LIG    1        6.074   0.829   0.415  0.00  0.00    +0.037 A 
ATOM     15  C   LIG    1        7.262   1.550   0.406  0.00  0.00    +0.075 A 
ATOM     16  C   LIG    1        8.196   1.225  -0.551  0.00  0.00    +0.053 A 
ATOM     17 CL   LIG    1        9.732   2.082  -0.642  0.00  0.00    -0.083 Cl
ATOM     18  C   LIG    1        7.949   0.218  -1.459  0.00  0.00    +0.022 A 
ATOM     19  C   LIG    1        6.780  -0.483  -1.441  0.00  0.00    +0.025 A 
BRANCH  15  20
ATOM     20  C   LIG    1        7.521   2.635   1.383  0.00  0.00    +0.419 C 
ATOM     21  F   LIG    1        6.531   2.666   2.335  0.00  0.00    -0.166 F 
ATOM     22  F   LIG    1        8.725   2.382   2.049  0.00  0.00    -0.166 F 
ATOM     23  F   LIG    1        7.698   3.853   0.767  0.00  0.00    -0.166 F 
ENDBRANCH  15  20
ENDBRANCH  10  13
ENDBRANCH   4   7
BRANCH   1  24
ATOM     24  O   LIG    1       -2.978  -0.218   1.570  0.00  0.00    -0.456 OA
BRANCH  24  27
ATOM     25  C   LIG    1       -6.338   0.044   0.124  0.00  0.00    +0.129 A 
ATOM     26  C   LIG    1       -5.322   0.026   1.055  0.00  0.00    +0.079 A 
ATOM     27  C   LIG    1       -4.014  -0.191   0.652  0.00  0.00    +0.132 A 
ATOM     28  C   LIG    1       -3.790  -0.381  -0.696  0.00  0.00    +0.066 A 
ATOM     29  C   LIG    1       -4.826  -0.361  -1.636  0.00  0.00    +0.115 A 
ATOM     30  N   LIG    1       -6.049  -0.147  -1.165  0.00  0.00    -0.250 NA
BRANCH  25  34
ATOM     31  C   LIG    1       -9.694  -0.060  -1.306  0.00  0.00    +0.128 C 
ATOM     32  N   LIG    1       -8.710   0.106  -0.378  0.00  0.00    -0.313 N 
ATOM     33  H   LIG    1       -9.667   0.430   0.549  0.00  0.00    +0.149 HD
ATOM     34  C   LIG    1       -7.757   0.274   0.547  0.00  0.00    +0.262 C 
ATOM     35  O   LIG    1       -7.884   0.607   1.766  0.00  0.00    -0.269 OA
ENDBRANCH  25  34
ENDBRANCH  24  27
ENDBRANCH   1  24
TORSDOF 6
