REMARK  Name = molecules/MLMFUKWWZIZRHX-VFWKFLPVSA-N.pdb
REMARK                            x       y       z     vdW  Elec       q    Type
REMARK                         _______ _______ _______ _____ _____    ______ ____
ROOT
ATOM      1  C   LIG    1       -1.488   0.663  -0.827  0.00  0.00    +0.088 A 
ATOM      2  C   LIG    1       -0.788  -0.526  -0.365  0.00  0.00    +0.030 A 
ATOM      3  C   LIG    1        0.482  -0.646  -0.686  0.00  0.00    +0.028 A 
ATOM      4  C   LIG    1        1.184   0.361  -1.473  0.00  0.00    +0.071 A 
ATOM      5  C   LIG    1        0.470   1.532  -1.921  0.00  0.00    +0.028 A 
ATOM      6  C   LIG    1       -0.821   1.688  -1.614  0.00  0.00    +0.030 A 
ENDROOT
BRANCH   1   7
ATOM      7  N   LIG    1       -2.726   0.817  -0.536  0.00  0.00    -0.081 NA
BRANCH   7   8
ATOM      8  N   LIG    1       -3.456  -0.108   0.214  0.00  0.00    -0.164 N 
ATOM      9  H   LIG    1       -4.087  -0.812  -0.271  0.00  0.00    +0.290 HD
BRANCH   8  13
ATOM     10  N   LIG    1       -3.314  -1.260   2.414  0.00  0.00    -0.288 N 
ATOM     11  H   LIG    1       -2.702  -1.306   3.250  0.00  0.00    +0.255 HD
ATOM     12  H   LIG    1       -3.910  -2.064   2.149  0.00  0.00    +0.255 HD
ATOM     13  C   LIG    1       -3.328  -0.080   1.630  0.00  0.00    +0.398 C 
BRANCH  13  14
ATOM     14  N   LIG    1       -3.220   1.048   2.243  0.00  0.00    -0.128 NA
ATOM     15  H   LIG    1       -3.219   1.974   1.755  0.00  0.00    +0.306 HD
ENDBRANCH  13  14
ENDBRANCH   8  13
ENDBRANCH   7   8
ENDBRANCH   1   7
BRANCH   4  16
ATOM     16  N   LIG    1        2.450   0.170  -1.752  0.00  0.00    -0.150 NA
BRANCH  16  17
ATOM     17  N   LIG    1        3.105  -0.974  -1.302  0.00  0.00    -0.227 N 
ATOM     18  H   LIG    1        2.756  -1.912  -1.624  0.00  0.00    +0.174 HD
BRANCH  17  19
ATOM     19  C   LIG    1        4.210  -0.827  -0.435  0.00  0.00    +0.146 C 
ATOM     20  S   LIG    1        4.961  -2.181   0.079  0.00  0.00    -0.018 S 
BRANCH  19  21
ATOM     21  N   LIG    1        4.617   0.466  -0.050  0.00  0.00    -0.339 N 
ATOM     22  H   LIG    1        5.113   0.619   0.846  0.00  0.00    +0.144 HD
ATOM     23  H   LIG    1        4.417   1.270  -0.669  0.00  0.00    +0.144 HD
ENDBRANCH  19  21
ENDBRANCH  17  19
ENDBRANCH  16  17
ENDBRANCH   4  16
TORSDOF 8
