REMARK  Name = molecules/MLSQGNCUYAMAHD-ZSXAAYSXSA-N.pdb
REMARK                            x       y       z     vdW  Elec       q    Type
REMARK                         _______ _______ _______ _____ _____    ______ ____
ROOT
ATOM      1  C   LIG    1       -5.323   5.912   3.160  0.00  0.00    +0.030 A 
ATOM      2  C   LIG    1       -4.874   6.925   3.961  0.00  0.00    +0.002 A 
ATOM      3  C   LIG    1       -3.513   7.161   4.150  0.00  0.00    +0.002 A 
ATOM      4  C   LIG    1       -2.599   6.356   3.515  0.00  0.00    +0.030 A 
ATOM      5  C   LIG    1       -3.042   5.315   2.690  0.00  0.00    +0.093 A 
ATOM      6  N   LIG    1       -2.196   4.528   2.060  0.00  0.00    -0.210 NA
ATOM      7  C   LIG    1       -2.538   3.490   1.228  0.00  0.00    +0.244 A 
ATOM      8  C   LIG    1       -3.881   3.294   1.072  0.00  0.00    +0.172 A 
ATOM      9  N   LIG    1       -4.787   4.098   1.716  0.00  0.00    -0.239 NA
ATOM     10  C   LIG    1       -4.503   2.240   0.226  0.00  0.00    +0.299 C 
ATOM     11  F   LIG    1       -4.228   0.971   0.637  0.00  0.00    -0.198 F 
ATOM     12  C   LIG    1       -6.014   2.336   0.238  0.00  0.00    +0.080 C 
ATOM     13  C   LIG    1       -6.769   1.328  -0.155  0.00  0.00    +0.030 C 
ATOM     14  C   LIG    1       -6.499  -0.100   0.048  0.00  0.00    +0.164 C 
ATOM     15  O   LIG    1       -5.644  -0.614  -0.896  0.00  0.00    -0.373 OA
ATOM     16  C   LIG    1       -5.870  -1.925  -1.250  0.00  0.00    +0.159 C 
ATOM     17  C   LIG    1       -6.720  -2.679  -0.290  0.00  0.00    +0.035 C 
ATOM     18  C   LIG    1       -6.348  -4.138  -0.589  0.00  0.00    +0.006 C 
ATOM     19  C   LIG    1       -4.878  -4.109  -0.886  0.00  0.00    +0.047 C 
ATOM     20  C   LIG    1       -4.532  -2.674  -1.279  0.00  0.00    +0.207 C 
ATOM     21  O   LIG    1       -4.077  -2.704  -2.575  0.00  0.00    -0.444 OA
ATOM     22  C   LIG    1       -3.110  -2.059  -3.260  0.00  0.00    +0.401 C 
ATOM     23  N   LIG    1       -1.707  -2.099  -3.075  0.00  0.00    -0.269 N 
ATOM     24  C   LIG    1       -0.985  -1.843  -1.853  0.00  0.00    +0.168 C 
ATOM     25  C   LIG    1        0.006  -0.716  -2.079  0.00  0.00    +0.237 C 
ATOM     26  N   LIG    1       -0.064   0.466  -1.309  0.00  0.00    -0.285 N 
ATOM     27  C   LIG    1        0.880   1.350  -0.713  0.00  0.00    +0.166 C 
ATOM     28  C   LIG    1        0.324   1.365   0.724  0.00  0.00    +0.078 C 
ATOM     29  C   LIG    1       -1.192   1.492   0.452  0.00  0.00    +0.195 C 
ATOM     30  C   LIG    1       -1.366   1.034  -0.968  0.00  0.00    +0.153 C 
ATOM     31  O   LIG    1        0.877  -0.877  -2.965  0.00  0.00    -0.274 OA
ATOM     32  H   LIG    1       -1.079  -2.335  -3.908  0.00  0.00    +0.153 HD
ATOM     33  O   LIG    1       -3.498  -1.292  -4.227  0.00  0.00    -0.226 OA
ATOM     34  F   LIG    1       -4.197   2.462  -1.125  0.00  0.00    -0.198 F 
ATOM     35  O   LIG    1       -1.504   2.801   0.673  0.00  0.00    -0.470 OA
ATOM     36  C   LIG    1       -4.399   5.106   2.523  0.00  0.00    +0.090 A 
ENDROOT
BRANCH  24  37
ATOM     37  C   LIG    1       -0.227  -3.086  -1.449  0.00  0.00    -0.011 C 
ATOM     38  C   LIG    1        0.396  -2.888  -0.061  0.00  0.00    +0.013 C 
ATOM     39  C   LIG    1       -1.284  -4.182  -1.256  0.00  0.00    +0.013 C 
ATOM     40  C   LIG    1        0.777  -3.564  -2.433  0.00  0.00    +0.013 C 
ENDBRANCH  24  37
BRANCH  27  41
ATOM     41  C   LIG    1        2.288   1.014  -0.777  0.00  0.00    +0.234 C 
ATOM     42  N   LIG    1        3.233   1.747  -0.032  0.00  0.00    -0.299 N 
ATOM     43  H   LIG    1        2.905   2.529   0.572  0.00  0.00    +0.150 HD
ATOM     44  O   LIG    1        2.698   0.075  -1.485  0.00  0.00    -0.274 OA
BRANCH  42  45
ATOM     45  C   LIG    1        4.677   1.500  -0.030  0.00  0.00    +0.121 C 
ATOM     46  C   LIG    1        5.591   2.652   0.180  0.00  0.00    +0.047 C 
ATOM     47  C   LIG    1        5.405   2.108  -1.193  0.00  0.00    +0.090 C 
BRANCH  45  48
ATOM     48  C   LIG    1        5.122   0.156   0.390  0.00  0.00    +0.256 C 
ATOM     49  N   LIG    1        6.401  -0.128   0.936  0.00  0.00    -0.188 N 
ATOM     50  H   LIG    1        7.097   0.637   1.079  0.00  0.00    +0.176 HD
ATOM     51  O   LIG    1        4.353  -0.861   0.282  0.00  0.00    -0.272 OA
BRANCH  49  52
ATOM     52  S   LIG    1        6.888  -1.726   1.405  0.00  0.00    +0.051 S 
ATOM     53  O   LIG    1        6.438  -1.996   2.808  0.00  0.00    -0.155 OA
ATOM     54  O   LIG    1        6.343  -2.765   0.466  0.00  0.00    -0.155 OA
BRANCH  52  55
ATOM     55  C   LIG    1        8.666  -1.838   1.318  0.00  0.00    +0.104 C 
ATOM     56  C   LIG    1        9.500  -1.577   2.518  0.00  0.00    +0.033 C 
ATOM     57  C   LIG    1        9.376  -2.960   2.023  0.00  0.00    +0.033 C 
ATOM     58  C   LIG    1        9.211  -1.569  -0.081  0.00  0.00    +0.037 C 
ENDBRANCH  52  55
ENDBRANCH  49  52
ENDBRANCH  45  48
BRANCH  47  59
ATOM     59  C   LIG    1        6.529   1.357  -1.860  0.00  0.00    +0.347 C 
ATOM     60  F   LIG    1        6.066   0.152  -2.405  0.00  0.00    -0.209 F 
ATOM     61  F   LIG    1        7.037   2.124  -2.905  0.00  0.00    -0.209 F 
ENDBRANCH  47  59
ENDBRANCH  42  45
ENDBRANCH  27  41
TORSDOF 7
