REMARK  Name = molecules/MMUMZMIKZXSFSD-ADSVITMPSA-N.pdb
REMARK                            x       y       z     vdW  Elec       q    Type
REMARK                         _______ _______ _______ _____ _____    ______ ____
ROOT
ATOM      1  C   LIG    1        0.484  -2.995  -0.116  0.00  0.00    +0.133 C 
ATOM      2  C   LIG    1        1.194  -2.321   1.054  0.00  0.00    +0.012 C 
ATOM      3  C   LIG    1        0.265  -1.550   1.912  0.00  0.00    +0.011 C 
ATOM      4  C   LIG    1       -1.149  -2.089   1.866  0.00  0.00    +0.052 C 
ATOM      5  C   LIG    1       -1.732  -2.313   0.536  0.00  0.00    +0.206 C 
ATOM      6  C   LIG    1        0.222  -0.072   1.753  0.00  0.00    +0.089 C 
ATOM      7  N   LIG    1        1.513   0.475   1.600  0.00  0.00    -0.293 NA
ATOM      8  C   LIG    1        2.287   0.733   2.754  0.00  0.00    +0.090 C 
ATOM      9  C   LIG    1        3.129   1.980   2.426  0.00  0.00    +0.053 C 
ATOM     10  C   LIG    1        3.982   1.528   1.262  0.00  0.00    -0.016 A 
ATOM     11  C   LIG    1        5.236   1.917   0.864  0.00  0.00    +0.003 A 
ATOM     12  C   LIG    1        6.119   2.848   1.396  0.00  0.00    +0.014 A 
ATOM     13  C   LIG    1        7.329   3.010   0.741  0.00  0.00    +0.046 A 
ATOM     14  C   LIG    1        7.694   2.307  -0.388  0.00  0.00    +0.122 A 
ATOM     15  C   LIG    1        6.784   1.375  -0.901  0.00  0.00    +0.071 A 
ATOM     16  C   LIG    1        5.572   1.205  -0.258  0.00  0.00    +0.050 A 
ATOM     17  N   LIG    1        4.513   0.395  -0.521  0.00  0.00    -0.356 N 
ATOM     18  H   LIG    1        4.541  -0.263  -1.356  0.00  0.00    +0.166 HD
ATOM     19  C   LIG    1        3.541   0.574   0.386  0.00  0.00    +0.038 A 
ATOM     20  C   LIG    1        2.194  -0.091   0.495  0.00  0.00    +0.104 C 
ATOM     21  C   LIG    1        2.388  -1.575   0.590  0.00  0.00    +0.030 C 
ATOM     22  C   LIG    1       -0.695  -2.233  -0.577  0.00  0.00    +0.172 C 
ENDROOT
BRANCH   1  23
ATOM     23  C   LIG    1        1.399  -3.371  -1.201  0.00  0.00    +0.313 C 
ATOM     24  O   LIG    1        1.315  -2.903  -2.353  0.00  0.00    -0.250 OA
BRANCH  23  25
ATOM     25  O   LIG    1        2.445  -4.293  -1.012  0.00  0.00    -0.468 OA
ATOM     26  C   LIG    1        3.339  -4.678  -2.031  0.00  0.00    +0.280 C 
ENDBRANCH  23  25
ENDBRANCH   1  23
BRANCH  14  27
ATOM     27  O   LIG    1        8.916   2.497  -1.019  0.00  0.00    -0.495 OA
ATOM     28  C   LIG    1        9.886   3.407  -0.581  0.00  0.00    +0.277 C 
ENDBRANCH  14  27
BRANCH  22  29
ATOM     29  O   LIG    1       -1.288  -2.859  -1.669  0.00  0.00    -0.375 OA
ATOM     30  C   LIG    1       -1.574  -2.032  -2.722  0.00  0.00    +0.194 C 
ENDBRANCH  22  29
BRANCH   5  31
ATOM     31  O   LIG    1       -2.783  -1.372   0.336  0.00  0.00    -0.456 OA
BRANCH  31  32
ATOM     32  C   LIG    1       -4.083  -1.750   0.092  0.00  0.00    +0.332 C 
ATOM     33  O   LIG    1       -4.307  -2.988   0.048  0.00  0.00    -0.246 OA
BRANCH  32  34
ATOM     34  C   LIG    1       -5.189  -0.804  -0.113  0.00  0.00    +0.092 C 
ATOM     35  C   LIG    1       -5.006   0.495  -0.077  0.00  0.00    +0.015 C 
BRANCH  35  36
ATOM     36  C   LIG    1       -6.045   1.496  -0.268  0.00  0.00    -0.021 A 
ATOM     37  C   LIG    1       -5.776   2.849  -0.213  0.00  0.00    +0.012 A 
ATOM     38  C   LIG    1       -6.731   3.824  -0.382  0.00  0.00    +0.050 A 
ATOM     39  C   LIG    1       -8.051   3.470  -0.624  0.00  0.00    +0.158 A 
ATOM     40  C   LIG    1       -8.339   2.126  -0.683  0.00  0.00    +0.162 A 
ATOM     41  C   LIG    1       -7.351   1.148  -0.508  0.00  0.00    +0.057 A 
BRANCH  40  42
ATOM     42  O   LIG    1       -9.667   1.764  -0.927  0.00  0.00    -0.491 OA
ATOM     43  C   LIG    1       -9.963   0.391  -0.997  0.00  0.00    +0.277 C 
ENDBRANCH  40  42
BRANCH  39  44
ATOM     44  O   LIG    1       -9.005   4.460  -0.794  0.00  0.00    -0.503 OA
ATOM     45  H   LIG    1       -9.977   4.258  -0.973  0.00  0.00    +0.292 HD
ENDBRANCH  39  44
ENDBRANCH  35  36
ENDBRANCH  32  34
ENDBRANCH  31  32
ENDBRANCH   5  31
TORSDOF 10
