REMARK  Name = molecules/MNDBXUUTURYVHR-UHFFFAOYSA-N.pdb
REMARK                            x       y       z     vdW  Elec       q    Type
REMARK                         _______ _______ _______ _____ _____    ______ ____
ROOT
ATOM      1  C   LIG    1       -1.610   0.793   0.393  0.00  0.00    +0.163 A 
ATOM      2  C   LIG    1       -1.538   2.138   0.743  0.00  0.00    +0.168 A 
ATOM      3  C   LIG    1       -0.287   2.712   0.790  0.00  0.00    +0.050 A 
ATOM      4  C   LIG    1        0.858   1.966   0.497  0.00  0.00    +0.017 A 
ATOM      5  C   LIG    1        0.780   0.642   0.152  0.00  0.00    +0.041 A 
ATOM      6  C   LIG    1       -0.486   0.055   0.103  0.00  0.00    +0.062 A 
ENDROOT
BRANCH   5   7
ATOM      7  C   LIG    1        1.954  -0.133  -0.152  0.00  0.00    +0.248 C 
ATOM      8  N   LIG    1        3.250   0.389  -0.122  0.00  0.00    -0.279 N 
ATOM      9  H   LIG    1        3.465   1.395   0.127  0.00  0.00    +0.155 HD
ATOM     10  O   LIG    1        1.825  -1.354  -0.465  0.00  0.00    -0.270 OA
BRANCH   8  11
ATOM     11  C   LIG    1        4.415  -0.388  -0.426  0.00  0.00    +0.074 A 
ATOM     12  C   LIG    1        5.063  -1.062   0.585  0.00  0.00    +0.082 A 
ATOM     13 CL   LIG    1        4.505  -1.000   2.241  0.00  0.00    -0.080 Cl
ATOM     14  C   LIG    1        6.198  -1.824   0.312  0.00  0.00    +0.132 A 
ATOM     15  N   LIG    1        6.674  -1.908  -0.950  0.00  0.00    -0.260 NA
ATOM     16  C   LIG    1        6.065  -1.263  -1.958  0.00  0.00    +0.132 A 
ATOM     17  C   LIG    1        4.937  -0.505  -1.692  0.00  0.00    +0.082 A 
ATOM     18 CL   LIG    1        4.139   0.338  -2.998  0.00  0.00    -0.080 Cl
ENDBRANCH   8  11
ENDBRANCH   5   7
BRANCH   1  19
ATOM     19  O   LIG    1       -2.871   0.214   0.345  0.00  0.00    -0.488 OA
BRANCH  19  20
ATOM     20  C   LIG    1       -2.980  -1.151  -0.008  0.00  0.00    +0.232 C 
BRANCH  20  21
ATOM     21  C   LIG    1       -4.429  -1.606  -0.007  0.00  0.00    +0.027 C 
ATOM     22  C   LIG    1       -4.600  -3.092  -0.387  0.00  0.00    +0.007 C 
ATOM     23  C   LIG    1       -5.100  -1.993  -1.263  0.00  0.00    +0.007 C 
ENDBRANCH  20  21
ENDBRANCH  19  20
ENDBRANCH   1  19
BRANCH   2  24
ATOM     24  O   LIG    1       -2.713   2.798   1.017  0.00  0.00    -0.431 OA
BRANCH  24  25
ATOM     25  C   LIG    1       -2.904   4.117   1.383  0.00  0.00    +0.541 C 
ATOM     26  F   LIG    1       -3.599   4.266   2.571  0.00  0.00    -0.166 F 
ATOM     27  F   LIG    1       -3.595   4.742   0.335  0.00  0.00    -0.166 F 
ENDBRANCH  24  25
ENDBRANCH   2  24
TORSDOF 7
