REMARK  Name = molecules/MNHNIVNAFBSLLX-UHFFFAOYSA-N.pdb
REMARK                            x       y       z     vdW  Elec       q    Type
REMARK                         _______ _______ _______ _____ _____    ______ ____
ROOT
ATOM      1  C   LIG    1       -2.459  -0.247  -1.088  0.00  0.00    +0.223 C 
ATOM      2  N   LIG    1       -1.728  -1.195  -0.361  0.00  0.00    -0.262 N 
ATOM      3  O   LIG    1       -3.295  -0.751  -1.948  0.00  0.00    -0.275 OA
ENDROOT
BRANCH   1   6
ATOM      4  C   LIG    1       -3.611   3.069  -0.002  0.00  0.00    +0.166 C 
ATOM      5  C   LIG    1       -2.757   1.839   0.289  0.00  0.00    +0.035 C 
ATOM      6  C   LIG    1       -2.437   1.190  -1.038  0.00  0.00    +0.079 C 
ATOM      7  C   LIG    1       -1.158   1.847  -1.536  0.00  0.00    +0.035 C 
ATOM      8  C   LIG    1       -1.589   3.168  -2.142  0.00  0.00    +0.166 C 
ATOM      9  S   LIG    1       -3.115   3.769  -1.533  0.00  0.00    -0.031 S 
ATOM     10  O   LIG    1       -2.944   5.268  -1.301  0.00  0.00    -0.174 OA
ATOM     11  O   LIG    1       -4.219   3.661  -2.564  0.00  0.00    -0.174 OA
ENDBRANCH   1   6
BRANCH   2  12
ATOM     12  C   LIG    1       -2.008  -2.587  -0.698  0.00  0.00    +0.043 A 
ATOM     13  C   LIG    1       -3.283  -3.049  -0.290  0.00  0.00    -0.029 A 
ATOM     14  C   LIG    1       -4.160  -2.104   0.476  0.00  0.00    +0.045 C 
ATOM     15  C   LIG    1       -3.659  -4.318  -0.587  0.00  0.00    +0.005 A 
ATOM     16  C   LIG    1       -2.801  -5.148  -1.280  0.00  0.00    +0.001 A 
ATOM     17  C   LIG    1       -1.566  -4.677  -1.664  0.00  0.00    +0.005 A 
ATOM     18  C   LIG    1       -1.145  -3.362  -1.370  0.00  0.00    -0.029 A 
ATOM     19  C   LIG    1        0.208  -2.991  -1.805  0.00  0.00    +0.045 C 
ENDBRANCH   2  12
BRANCH   2  20
ATOM     20  C   LIG    1       -0.911  -0.843   0.737  0.00  0.00    +0.209 C 
BRANCH  20  21
ATOM     21  C   LIG    1        0.477  -0.411   0.515  0.00  0.00    +0.235 C 
ATOM     22  N   LIG    1        1.258  -0.124   1.661  0.00  0.00    -0.284 N 
ATOM     23  H   LIG    1        0.778  -0.244   2.604  0.00  0.00    +0.155 HD
ATOM     24  O   LIG    1        0.948  -0.302  -0.617  0.00  0.00    -0.274 OA
BRANCH  22  25
ATOM     25  C   LIG    1        2.595   0.301   1.715  0.00  0.00    +0.033 A 
ATOM     26  C   LIG    1        3.172   0.590   2.944  0.00  0.00    +0.024 A 
ATOM     27  C   LIG    1        4.468   1.007   3.069  0.00  0.00    +0.013 A 
ATOM     28  C   LIG    1        5.267   1.161   1.970  0.00  0.00    +0.023 A 
ATOM     29  C   LIG    1        4.698   0.875   0.750  0.00  0.00    +0.013 A 
ATOM     30  C   LIG    1        3.374   0.447   0.597  0.00  0.00    +0.024 A 
BRANCH  28  31
ATOM     31  C   LIG    1        6.649   1.594   2.064  0.00  0.00    +0.202 A 
ATOM     32  N   LIG    1        7.402   1.900   3.112  0.00  0.00    -0.194 NA
ATOM     33  C   LIG    1        8.627   2.246   2.682  0.00  0.00    +0.343 A 
ATOM     34  O   LIG    1        8.625   2.154   1.382  0.00  0.00    -0.341 OA
ATOM     35  N   LIG    1        7.460   1.766   0.979  0.00  0.00    -0.056 NA
ENDBRANCH  28  31
ENDBRANCH  22  25
ENDBRANCH  20  21
ENDBRANCH   2  20
TORSDOF 6
