REMARK  Name = molecules/MNIPYSSQXLZQLJ-UHFFFAOYSA-N.pdb
REMARK                            x       y       z     vdW  Elec       q    Type
REMARK                         _______ _______ _______ _____ _____    ______ ____
ROOT
ATOM      1  C   LIG    1       -0.824  -1.156   0.156  0.00  0.00    +0.035 A 
ATOM      2  C   LIG    1        0.235  -1.908   0.586  0.00  0.00    -0.016 A 
ATOM      3  C   LIG    1        0.326  -3.271   0.329  0.00  0.00    +0.006 A 
ATOM      4  C   LIG    1       -0.667  -3.911  -0.378  0.00  0.00    +0.000 A 
ATOM      5  C   LIG    1       -1.738  -3.168  -0.816  0.00  0.00    +0.002 A 
ATOM      6  C   LIG    1       -1.810  -1.805  -0.548  0.00  0.00    +0.023 A 
ENDROOT
BRANCH   1   7
ATOM      7  N   LIG    1       -0.855   0.231   0.442  0.00  0.00    -0.312 N 
ATOM      8  H   LIG    1       -0.081   0.717   0.957  0.00  0.00    +0.152 HD
BRANCH   7   9
ATOM      9  C   LIG    1       -1.939   1.039   0.042  0.00  0.00    +0.068 A 
ATOM     10  C   LIG    1       -3.009   1.238   0.886  0.00  0.00    +0.063 A 
ATOM     11 CL   LIG    1       -3.006   0.469   2.447  0.00  0.00    -0.082 Cl
ATOM     12  C   LIG    1       -4.081   2.030   0.525  0.00  0.00    +0.022 A 
ATOM     13  C   LIG    1       -4.074   2.630  -0.706  0.00  0.00    +0.003 A 
ATOM     14  C   LIG    1       -3.010   2.450  -1.582  0.00  0.00    +0.022 A 
ATOM     15  C   LIG    1       -1.936   1.640  -1.186  0.00  0.00    +0.063 A 
ATOM     16 CL   LIG    1       -0.625   1.452  -2.334  0.00  0.00    -0.082 Cl
ENDBRANCH   7   9
ENDBRANCH   1   7
BRANCH   2  17
ATOM     17  C   LIG    1        1.314  -1.241   1.353  0.00  0.00    +0.157 C 
BRANCH  17  18
ATOM     18  C   LIG    1        2.140  -0.472   0.368  0.00  0.00    +0.312 C 
ATOM     19  O   LIG    1        1.875  -0.479  -0.859  0.00  0.00    -0.250 OA
BRANCH  18  20
ATOM     20  O   LIG    1        3.233   0.273   0.800  0.00  0.00    -0.453 OA
BRANCH  20  21
ATOM     21  C   LIG    1        4.000   0.991  -0.168  0.00  0.00    +0.352 C 
BRANCH  21  22
ATOM     22  C   LIG    1        5.108   1.718   0.481  0.00  0.00    +0.343 C 
ATOM     23  O   LIG    1        5.928   2.414  -0.164  0.00  0.00    -0.247 OA
BRANCH  22  24
ATOM     24  O   LIG    1        5.294   1.661   1.863  0.00  0.00    -0.478 OA
ATOM     25  H   LIG    1        4.844   2.377   2.446  0.00  0.00    +0.295 HD
ENDBRANCH  22  24
ENDBRANCH  21  22
ENDBRANCH  20  21
ENDBRANCH  18  20
ENDBRANCH  17  18
ENDBRANCH   2  17
TORSDOF 8
