REMARK  Name = molecules/MNJVRJDLRVPLFE-UHFFFAOYSA-N.pdb
REMARK                            x       y       z     vdW  Elec       q    Type
REMARK                         _______ _______ _______ _____ _____    ______ ____
ROOT
ATOM      1 CL   LIG    1        0.567  -5.942  -1.865  0.00  0.00    -0.082 Cl
ATOM      2  C   LIG    1        1.039  -4.309  -1.379  0.00  0.00    +0.060 A 
ATOM      3  C   LIG    1        0.097  -3.368  -1.045  0.00  0.00    +0.032 A 
ATOM      4  C   LIG    1        0.438  -2.072  -0.657  0.00  0.00    +0.010 A 
ATOM      5  C   LIG    1        1.794  -1.818  -0.639  0.00  0.00    +0.080 A 
ATOM      6  N   LIG    1        2.712  -2.742  -0.967  0.00  0.00    -0.253 NA
ATOM      7  C   LIG    1        2.373  -3.996  -1.341  0.00  0.00    +0.131 A 
ENDROOT
BRANCH   5   8
ATOM      8  C   LIG    1        2.200  -0.487  -0.243  0.00  0.00    +0.019 A 
ATOM      9  C   LIG    1        1.973   0.077   0.991  0.00  0.00    +0.013 A 
ATOM     10  C   LIG    1        2.417   1.371   1.244  0.00  0.00    +0.024 A 
ATOM     11  C   LIG    1        3.079   2.094   0.278  0.00  0.00    +0.038 A 
ATOM     12  C   LIG    1        3.549   3.473   0.557  0.00  0.00    +0.065 C 
ATOM     13  N   LIG    1        3.289   1.534  -0.906  0.00  0.00    -0.260 NA
ATOM     14  C   LIG    1        2.867   0.270  -1.184  0.00  0.00    +0.121 A 
ENDBRANCH   5   8
BRANCH   4  15
ATOM     15  C   LIG    1       -0.538  -1.109  -0.315  0.00  0.00    -0.016 A 
ATOM     16  C   LIG    1       -1.371  -1.327   0.778  0.00  0.00    +0.010 A 
ATOM     17  C   LIG    1       -2.346  -0.389   1.137  0.00  0.00    +0.027 A 
ATOM     18  C   LIG    1       -2.500   0.756   0.424  0.00  0.00    +0.088 A 
ATOM     19  C   LIG    1       -1.674   0.998  -0.679  0.00  0.00    +0.027 A 
ATOM     20  C   LIG    1       -0.734   0.066  -1.004  0.00  0.00    +0.010 A 
BRANCH  18  21
ATOM     21  S   LIG    1       -3.730   1.942   0.875  0.00  0.00    -0.006 S 
ATOM     22  O   LIG    1       -3.932   1.877   2.362  0.00  0.00    -0.170 OA
ATOM     23  O   LIG    1       -3.217   3.304   0.508  0.00  0.00    -0.170 OA
ATOM     24  C   LIG    1       -5.263   1.591   0.043  0.00  0.00    +0.200 C 
ENDBRANCH  18  21
ENDBRANCH   4  15
TORSDOF 3
