REMARK  Name = molecules/MORSAEFGQPDBKM-LBPRGKRZSA-N.pdb
REMARK                            x       y       z     vdW  Elec       q    Type
REMARK                         _______ _______ _______ _____ _____    ______ ____
ROOT
ATOM      1  C   LIG    1       -0.986   0.041  -0.455  0.00  0.00    -0.000 C 
ATOM      2  C   LIG    1        0.154   0.084  -1.033  0.00  0.00    +0.001 C 
ENDROOT
BRANCH   1   3
ATOM      3  C   LIG    1       -1.459  -1.012   0.427  0.00  0.00    +0.020 A 
ATOM      4  S   LIG    1       -0.623  -2.180   1.370  0.00  0.00    -0.097 S 
ATOM      5  C   LIG    1       -1.911  -2.915   2.181  0.00  0.00    +0.046 A 
ATOM      6  C   LIG    1       -2.985  -2.233   1.700  0.00  0.00    +0.008 A 
ATOM      7  C   LIG    1       -2.756  -1.257   0.799  0.00  0.00    +0.016 A 
ENDBRANCH   1   3
BRANCH   1   8
ATOM      8  C   LIG    1       -1.940   1.181  -0.658  0.00  0.00    +0.020 A 
ATOM      9  S   LIG    1       -3.369   1.561   0.177  0.00  0.00    -0.097 S 
ATOM     10  C   LIG    1       -3.782   3.022  -0.585  0.00  0.00    +0.046 A 
ATOM     11  C   LIG    1       -2.773   3.175  -1.487  0.00  0.00    +0.008 A 
ATOM     12  C   LIG    1       -1.819   2.229  -1.531  0.00  0.00    +0.016 A 
ENDBRANCH   1   8
BRANCH   2  13
ATOM     13  C   LIG    1        1.341  -0.759  -1.088  0.00  0.00    +0.077 C 
ATOM     14  C   LIG    1        1.171  -2.233  -1.117  0.00  0.00    +0.028 C 
BRANCH  13  15
ATOM     15  N   LIG    1        2.424  -0.270  -0.276  0.00  0.00    -0.299 NA
ATOM     16  C   LIG    1        2.868   0.985  -0.853  0.00  0.00    +0.105 C 
BRANCH  15  17
ATOM     17  C   LIG    1        2.198  -0.222   1.112  0.00  0.00    +0.081 C 
ATOM     18  C   LIG    1        3.337   0.395   1.895  0.00  0.00    +0.020 C 
ENDBRANCH  15  17
ENDBRANCH  13  15
ENDBRANCH   2  13
TORSDOF 5
