REMARK  Name = molecules/MOYKHGMNXAOIAT-JGWLITMVSA-N.pdb
REMARK                            x       y       z     vdW  Elec       q    Type
REMARK                         _______ _______ _______ _____ _____    ______ ____
ROOT
ATOM      1  C   LIG    1       -1.708   0.325   0.294  0.00  0.00    +0.265 C 
ATOM      2  C   LIG    1       -0.346  -0.352   0.490  0.00  0.00    +0.196 C 
ATOM      3  C   LIG    1        0.538   0.703  -0.173  0.00  0.00    +0.196 C 
ATOM      4  C   LIG    1        1.722  -0.137  -0.596  0.00  0.00    +0.265 C 
ATOM      5  C   LIG    1        1.092  -1.492  -0.789  0.00  0.00    +0.210 C 
ATOM      6  O   LIG    1       -0.174   1.224  -1.219  0.00  0.00    -0.366 OA
ATOM      7  O   LIG    1       -0.221  -1.409  -0.366  0.00  0.00    -0.366 OA
ATOM      8  C   LIG    1       -1.492   0.869  -1.104  0.00  0.00    +0.210 C 
ENDROOT
BRANCH   1   9
ATOM      9  O   LIG    1       -2.766  -0.574   0.384  0.00  0.00    -0.343 OA
BRANCH   9  11
ATOM     10  O   LIG    1       -3.571  -0.207   2.635  0.00  0.00    -0.090 OA
ATOM     11  N   LIG    1       -3.790  -0.337   1.284  0.00  0.00    +0.218 N 
ATOM     12  O   LIG    1       -4.966  -0.232   0.882  0.00  0.00    -0.090 OA
ENDBRANCH   9  11
ENDBRANCH   1   9
BRANCH   4  13
ATOM     13  O   LIG    1        2.616  -0.175   0.493  0.00  0.00    -0.343 OA
BRANCH  13  14
ATOM     14  N   LIG    1        3.916   0.207   0.442  0.00  0.00    +0.218 N 
ATOM     15  O   LIG    1        4.644   0.154   1.615  0.00  0.00    -0.090 OA
ATOM     16  O   LIG    1        4.448   0.592  -0.602  0.00  0.00    -0.090 OA
ENDBRANCH  13  14
ENDBRANCH   4  13
TORSDOF 4
