REMARK  Name = molecules/MPDGHEJMBKOTSU-YKLVYJNSSA-N.pdb
REMARK                            x       y       z     vdW  Elec       q    Type
REMARK                         _______ _______ _______ _____ _____    ______ ____
ROOT
ATOM      1  C   LIG    1        0.578  -1.831  -0.526  0.00  0.00    +0.013 C 
ATOM      2  C   LIG    1        0.658  -0.693   0.470  0.00  0.00    -0.013 C 
ATOM      3  C   LIG    1        1.518  -1.213   1.602  0.00  0.00    +0.008 C 
ATOM      4  C   LIG    1        2.944  -1.347   1.178  0.00  0.00    +0.005 C 
ATOM      5  C   LIG    1        3.418  -0.037   0.668  0.00  0.00    +0.004 C 
ATOM      6  C   LIG    1        4.910  -0.034   0.504  0.00  0.00    -0.006 C 
ATOM      7  C   LIG    1        5.461  -0.178   1.943  0.00  0.00    +0.014 C 
ATOM      8  C   LIG    1        5.469   1.258  -0.003  0.00  0.00    +0.120 C 
ATOM      9  C   LIG    1        4.549   2.073  -0.833  0.00  0.00    +0.032 C 
ATOM     10  C   LIG    1        3.116   2.054  -0.418  0.00  0.00    +0.010 C 
ATOM     11  C   LIG    1        5.474  -1.180  -0.262  0.00  0.00    +0.014 C 
ATOM     12  C   LIG    1        2.655   0.575  -0.453  0.00  0.00    -0.018 C 
ATOM     13  C   LIG    1        2.969   0.118  -1.826  0.00  0.00    +0.012 C 
ATOM     14  C   LIG    1       -0.732  -0.367   0.972  0.00  0.00    -0.004 C 
ATOM     15  C   LIG    1       -1.341  -1.392   1.835  0.00  0.00    +0.012 C 
ATOM     16  C   LIG    1       -2.759  -1.098   2.195  0.00  0.00    +0.008 C 
ATOM     17  C   LIG    1       -3.648  -0.677   1.081  0.00  0.00    -0.025 C 
ATOM     18  C   LIG    1       -4.217   0.695   1.167  0.00  0.00    +0.008 C 
ATOM     19  C   LIG    1       -5.218   0.867   0.072  0.00  0.00    +0.018 C 
ATOM     20  C   LIG    1       -4.772   0.505  -1.295  0.00  0.00    +0.065 C 
ATOM     21  C   LIG    1       -3.803  -0.625  -1.410  0.00  0.00    +0.026 C 
ATOM     22  C   LIG    1       -4.251   1.789  -1.962  0.00  0.00    +0.023 C 
ATOM     23  C   LIG    1       -4.816  -1.675   1.053  0.00  0.00    +0.012 C 
ATOM     24  C   LIG    1       -2.904  -0.846  -0.260  0.00  0.00    +0.023 C 
ATOM     25  C   LIG    1       -0.700   0.947   1.743  0.00  0.00    +0.016 C 
ATOM     26  C   LIG    1       -1.587  -0.228  -0.262  0.00  0.00    -0.056 C 
ATOM     27  C   LIG    1       -1.043   0.447  -1.256  0.00  0.00    +0.046 C 
ATOM     28  C   LIG    1        0.295   1.026  -1.186  0.00  0.00    +0.160 C 
ATOM     29  O   LIG    1        0.606   1.877  -2.037  0.00  0.00    -0.292 OA
ATOM     30  C   LIG    1        1.200   0.579  -0.124  0.00  0.00    +0.073 C 
ENDROOT
BRANCH   8  31
ATOM     31  O   LIG    1        6.604   0.971  -0.797  0.00  0.00    -0.391 OA
ATOM     32  H   LIG    1        7.169   1.773  -0.910  0.00  0.00    +0.210 HD
ENDBRANCH   8  31
BRANCH  20  33
ATOM     33  C   LIG    1       -6.021   0.198  -2.091  0.00  0.00    +0.311 C 
ATOM     34  O   LIG    1       -6.064  -0.898  -2.701  0.00  0.00    -0.250 OA
BRANCH  33  35
ATOM     35  O   LIG    1       -7.075   1.067  -2.159  0.00  0.00    -0.480 OA
ATOM     36  H   LIG    1       -8.028   0.741  -2.270  0.00  0.00    +0.295 HD
ENDBRANCH  33  35
ENDBRANCH  20  33
TORSDOF 3
