REMARK  Name = molecules/MPHPHYZQRGLTBO-LLVKDONJSA-N.pdb
REMARK                            x       y       z     vdW  Elec       q    Type
REMARK                         _______ _______ _______ _____ _____    ______ ____
ROOT
ATOM      1  C   LIG    1        2.116  -0.433  -0.137  0.00  0.00    +0.170 C 
ATOM      2  C   LIG    1        1.276   0.775   0.181  0.00  0.00    +0.259 C 
ATOM      3  O   LIG    1        1.666   1.921   0.500  0.00  0.00    -0.270 OA
ATOM      4  N   LIG    1       -0.101   0.418   0.064  0.00  0.00    -0.208 N 
ATOM      5  N   LIG    1       -0.185  -0.974   0.026  0.00  0.00    -0.181 N 
ATOM      6  C   LIG    1       -1.443  -1.617  -0.088  0.00  0.00    +0.221 A 
ATOM      7  N   LIG    1       -2.536  -0.902  -0.159  0.00  0.00    -0.213 NA
ATOM      8  C   LIG    1       -2.541   0.518  -0.128  0.00  0.00    +0.093 A 
ATOM      9  C   LIG    1       -3.737   1.242  -0.207  0.00  0.00    +0.030 A 
ATOM     10  C   LIG    1       -3.706   2.614  -0.174  0.00  0.00    +0.005 A 
ATOM     11  C   LIG    1       -2.493   3.252  -0.064  0.00  0.00    -0.048 A 
ATOM     12  C   LIG    1       -1.296   2.546   0.016  0.00  0.00    +0.033 A 
ATOM     13  C   LIG    1       -2.466   4.736  -0.029  0.00  0.00    +0.044 C 
ATOM     14  C   LIG    1       -1.329   1.165  -0.017  0.00  0.00    +0.093 A 
ATOM     15  C   LIG    1        1.123  -1.515   0.118  0.00  0.00    +0.261 C 
ATOM     16  O   LIG    1        1.432  -2.723   0.375  0.00  0.00    -0.270 OA
ENDROOT
BRANCH   6  17
ATOM     17  N   LIG    1       -1.605  -3.016  -0.132  0.00  0.00    -0.306 N 
ATOM     18  C   LIG    1       -2.272  -3.692   0.943  0.00  0.00    +0.132 C 
ATOM     19  C   LIG    1       -1.106  -3.771  -1.244  0.00  0.00    +0.132 C 
ENDBRANCH   6  17
BRANCH   1  20
ATOM     20  C   LIG    1        3.238  -0.608   0.806  0.00  0.00    +0.022 C 
BRANCH  20  22
ATOM     21  C   LIG    1        5.096   0.466  -0.530  0.00  0.00    +0.004 C 
ATOM     22  C   LIG    1        4.354   0.364   0.735  0.00  0.00    -0.002 C 
ENDBRANCH  20  22
ENDBRANCH   1  20
TORSDOF 3
