REMARK  Name = molecules/MPIPASJGOJYODL-SFHVURJKSA-N.pdb
REMARK                            x       y       z     vdW  Elec       q    Type
REMARK                         _______ _______ _______ _____ _____    ______ ____
ROOT
ATOM      1  C   LIG    1       -0.568  -0.027  -0.455  0.00  0.00    +0.170 C 
ENDROOT
BRANCH   1   2
ATOM      2  C   LIG    1       -1.125   1.242  -0.115  0.00  0.00    +0.001 A 
ATOM      3  C   LIG    1       -0.478   2.066   0.837  0.00  0.00    +0.048 A 
ATOM      4 CL   LIG    1        0.906   1.417   1.730  0.00  0.00    -0.083 Cl
ATOM      5  C   LIG    1       -0.877   3.344   1.118  0.00  0.00    +0.040 A 
ATOM      6  C   LIG    1       -1.947   3.912   0.483  0.00  0.00    +0.042 A 
ATOM      7 CL   LIG    1       -2.478   5.532   0.854  0.00  0.00    -0.083 Cl
ATOM      8  C   LIG    1       -2.631   3.134  -0.471  0.00  0.00    +0.020 A 
ATOM      9  C   LIG    1       -2.225   1.839  -0.751  0.00  0.00    +0.009 A 
ENDBRANCH   1   2
BRANCH   1  10
ATOM     10  O   LIG    1        0.717  -0.200  -0.226  0.00  0.00    -0.365 OA
BRANCH  10  11
ATOM     11  C   LIG    1        1.455  -1.195  -0.786  0.00  0.00    +0.198 C 
BRANCH  11  19
ATOM     12  C   LIG    1        3.426  -1.712   0.674  0.00  0.00    +0.048 A 
ATOM     13 CL   LIG    1        2.359  -2.825   1.564  0.00  0.00    -0.083 Cl
ATOM     14  C   LIG    1        4.726  -1.641   1.086  0.00  0.00    +0.020 A 
ATOM     15  C   LIG    1        5.535  -0.717   0.418  0.00  0.00    +0.003 A 
ATOM     16  C   LIG    1        5.005   0.036  -0.582  0.00  0.00    +0.020 A 
ATOM     17  C   LIG    1        3.691  -0.036  -0.995  0.00  0.00    +0.048 A 
ATOM     18 CL   LIG    1        3.075   0.918  -2.340  0.00  0.00    -0.083 Cl
ATOM     19  C   LIG    1        2.876  -0.935  -0.354  0.00  0.00    +0.015 A 
ENDBRANCH  11  19
ENDBRANCH  10  11
ENDBRANCH   1  10
BRANCH   1  20
ATOM     20  C   LIG    1       -1.291  -1.298  -0.034  0.00  0.00    +0.159 C 
BRANCH  20  21
ATOM     21  N   LIG    1       -2.659  -1.368   0.028  0.00  0.00    -0.334 N 
ATOM     22  C   LIG    1       -3.302  -1.357   1.319  0.00  0.00    +0.199 A 
ATOM     23  N   LIG    1       -4.577  -1.548   1.125  0.00  0.00    -0.244 NA
ATOM     24  C   LIG    1       -4.889  -1.683  -0.147  0.00  0.00    +0.130 A 
ATOM     25  C   LIG    1       -3.647  -1.569  -0.843  0.00  0.00    +0.107 A 
ENDBRANCH  20  21
ENDBRANCH   1  20
TORSDOF 6
