REMARK  Name = molecules/MPOYJPINNSIHAK-UHFFFAOYSA-N.pdb
REMARK                            x       y       z     vdW  Elec       q    Type
REMARK                         _______ _______ _______ _____ _____    ______ ____
ROOT
ATOM      1  C   LIG    1       -0.656  -0.896   1.147  0.00  0.00    +0.121 C 
ENDROOT
BRANCH   1   2
ATOM      2  C   LIG    1        0.477  -0.554   0.277  0.00  0.00    +0.307 C 
ATOM      3  O   LIG    1        0.314  -0.238  -0.952  0.00  0.00    -0.251 OA
BRANCH   2   4
ATOM      4  O   LIG    1        1.768  -0.553   0.738  0.00  0.00    -0.463 OA
BRANCH   4   5
ATOM      5  C   LIG    1        2.886  -0.225  -0.076  0.00  0.00    +0.247 C 
BRANCH   5   6
ATOM      6  C   LIG    1        4.099  -0.315   0.833  0.00  0.00    +0.125 C 
BRANCH   6   7
ATOM      7  N   LIG    1        5.335  -0.012   0.179  0.00  0.00    -0.305 NA
ATOM      8  C   LIG    1        5.316   1.298  -0.461  0.00  0.00    +0.104 C 
ATOM      9  C   LIG    1        5.749  -0.988  -0.802  0.00  0.00    +0.104 C 
ENDBRANCH   6   7
ENDBRANCH   5   6
ENDBRANCH   4   5
ENDBRANCH   2   4
ENDBRANCH   1   2
BRANCH   1  10
ATOM     10  C   LIG    1       -1.720   0.158   1.221  0.00  0.00    +0.014 C 
BRANCH  10  11
ATOM     11  C   LIG    1       -2.347   0.514  -0.072  0.00  0.00    -0.010 C 
ATOM     12  C   LIG    1       -3.385   1.592   0.197  0.00  0.00    +0.003 C 
ATOM     13  C   LIG    1       -4.669   0.963   0.701  0.00  0.00    +0.000 C 
ATOM     14  C   LIG    1       -5.202   0.118  -0.447  0.00  0.00    +0.000 C 
ATOM     15  C   LIG    1       -4.254  -1.048  -0.588  0.00  0.00    +0.000 C 
ATOM     16  C   LIG    1       -2.856  -0.589  -0.915  0.00  0.00    +0.003 C 
ENDBRANCH  10  11
ENDBRANCH   1  10
TORSDOF 7
