REMARK  Name = molecules/MPTJIDOGFUQSQH-SFHVURJKSA-N.pdb
REMARK                            x       y       z     vdW  Elec       q    Type
REMARK                         _______ _______ _______ _____ _____    ______ ____
ROOT
ATOM      1 CL   LIG    1        0.715   2.096   2.828  0.00  0.00    -0.083 Cl
ATOM      2  C   LIG    1        1.629   1.496   1.425  0.00  0.00    +0.048 A 
ATOM      3  C   LIG    1        2.965   1.801   1.343  0.00  0.00    +0.040 A 
ATOM      4  C   LIG    1        3.671   1.347   0.274  0.00  0.00    +0.043 A 
ATOM      5 CL   LIG    1        5.368   1.693   0.101  0.00  0.00    -0.083 Cl
ATOM      6  C   LIG    1        3.024   0.605  -0.678  0.00  0.00    +0.024 A 
ATOM      7  C   LIG    1        1.685   0.291  -0.610  0.00  0.00    -0.039 A 
ATOM      8  C   LIG    1        1.246  -0.523  -1.775  0.00  0.00    +0.040 C 
ATOM      9  C   LIG    1        0.580  -1.783  -1.414  0.00  0.00    +0.040 C 
ATOM     10  C   LIG    1       -0.362  -1.800  -0.317  0.00  0.00    -0.042 A 
ATOM     11  C   LIG    1       -0.820  -0.878   0.590  0.00  0.00    -0.017 A 
ATOM     12  C   LIG    1       -1.766  -1.224   1.561  0.00  0.00    +0.006 A 
ATOM     13  C   LIG    1       -2.269  -2.505   1.636  0.00  0.00    +0.000 A 
ATOM     14  C   LIG    1       -1.823  -3.425   0.743  0.00  0.00    +0.000 A 
ATOM     15  C   LIG    1       -0.458   0.528   0.732  0.00  0.00    +0.150 C 
ATOM     16  C   LIG    1       -0.903  -3.084  -0.199  0.00  0.00    +0.004 A 
ATOM     17  C   LIG    1        0.975   0.754   0.475  0.00  0.00    +0.001 A 
ENDROOT
BRANCH  15  18
ATOM     18  N   LIG    1       -1.305   1.410  -0.066  0.00  0.00    -0.325 N 
ATOM     19  C   LIG    1       -1.694   2.673   0.203  0.00  0.00    +0.107 A 
ATOM     20  C   LIG    1       -2.491   3.154  -0.807  0.00  0.00    +0.130 A 
ATOM     21  N   LIG    1       -2.583   2.154  -1.706  0.00  0.00    -0.244 NA
ATOM     22  C   LIG    1       -1.856   1.102  -1.238  0.00  0.00    +0.200 A 
ENDBRANCH  15  18
TORSDOF 1
