REMARK  Name = molecules/MPTXLVRHYGBOQY-UHFFFAOYSA-N.pdb
REMARK                            x       y       z     vdW  Elec       q    Type
REMARK                         _______ _______ _______ _____ _____    ______ ____
ROOT
ATOM      1  C   LIG    1       -0.787  -1.286   0.388  0.00  0.00    +0.244 C 
ATOM      2  O   LIG    1       -0.949  -2.510   0.705  0.00  0.00    -0.270 OA
ATOM      3  N   LIG    1        0.540  -0.834   0.188  0.00  0.00    -0.311 N 
ATOM      4  H   LIG    1        0.740   0.161  -0.074  0.00  0.00    +0.149 HD
ENDROOT
BRANCH   1   8
ATOM      5  C   LIG    1       -4.188   1.161  -0.001  0.00  0.00    +0.204 A 
ATOM      6  C   LIG    1       -4.335  -0.177   0.344  0.00  0.00    +0.166 A 
ATOM      7  C   LIG    1       -3.217  -0.970   0.469  0.00  0.00    +0.062 A 
ATOM      8  C   LIG    1       -1.953  -0.436   0.252  0.00  0.00    +0.044 A 
ATOM      9  C   LIG    1       -1.855   0.900  -0.089  0.00  0.00    +0.062 A 
ATOM     10  C   LIG    1       -2.952   1.728  -0.224  0.00  0.00    +0.166 A 
BRANCH   5  11
ATOM     11  O   LIG    1       -5.338   1.899  -0.110  0.00  0.00    -0.488 OA
ATOM     12  C   LIG    1       -5.954   2.614   0.915  0.00  0.00    +0.277 C 
ENDBRANCH   5  11
BRANCH   6  13
ATOM     13  O   LIG    1       -5.574  -0.745   0.568  0.00  0.00    -0.491 OA
ATOM     14  C   LIG    1       -5.647  -2.110   0.915  0.00  0.00    +0.277 C 
ENDBRANCH   6  13
BRANCH  10  15
ATOM     15  O   LIG    1       -2.782   3.059  -0.569  0.00  0.00    -0.491 OA
ATOM     16  C   LIG    1       -1.479   3.565  -0.782  0.00  0.00    +0.277 C 
ENDBRANCH  10  15
ENDBRANCH   1   8
BRANCH   3  17
ATOM     17  C   LIG    1        1.671  -1.715   0.334  0.00  0.00    +0.104 C 
BRANCH  17  18
ATOM     18  C   LIG    1        2.975  -0.978   0.065  0.00  0.00    +0.019 C 
BRANCH  18  19
ATOM     19  C   LIG    1        4.162  -1.870   0.210  0.00  0.00    +0.002 C 
BRANCH  19  20
ATOM     20  C   LIG    1        5.418  -1.090  -0.052  0.00  0.00    +0.011 C 
BRANCH  20  21
ATOM     21  C   LIG    1        5.445  -0.512  -1.428  0.00  0.00    +0.120 C 
BRANCH  21  22
ATOM     22  C   LIG    1        6.708   0.251  -1.681  0.00  0.00    +0.305 C 
ATOM     23  O   LIG    1        6.892   0.801  -2.789  0.00  0.00    -0.251 OA
BRANCH  22  24
ATOM     24  O   LIG    1        7.646   0.330  -0.679  0.00  0.00    -0.481 OA
ATOM     25  H   LIG    1        8.485   0.882  -0.759  0.00  0.00    +0.295 HD
ENDBRANCH  22  24
ENDBRANCH  21  22
ENDBRANCH  20  21
ENDBRANCH  19  20
ENDBRANCH  18  19
ENDBRANCH  17  18
ENDBRANCH   3  17
TORSDOF 11
