REMARK  Name = molecules/MQHLMHIZUIDKOO-KURKYZTESA-N.pdb
REMARK                            x       y       z     vdW  Elec       q    Type
REMARK                         _______ _______ _______ _____ _____    ______ ____
ROOT
ATOM      1  C   LIG    1       -0.228   0.882   1.000  0.00  0.00    +0.039 C 
ENDROOT
BRANCH   1   2
ATOM      2  C   LIG    1        1.179   0.536   0.701  0.00  0.00    -0.047 A 
ATOM      3  C   LIG    1        1.790  -0.580   1.222  0.00  0.00    +0.004 A 
ATOM      4  C   LIG    1        3.100  -0.862   0.956  0.00  0.00    +0.004 A 
ATOM      5  C   LIG    1        3.881  -0.025   0.141  0.00  0.00    -0.042 A 
ATOM      6  C   LIG    1        3.270   1.075  -0.372  0.00  0.00    +0.004 A 
ATOM      7  C   LIG    1        1.930   1.355  -0.093  0.00  0.00    +0.004 A 
BRANCH   5   8
ATOM      8  C   LIG    1        5.265  -0.446  -0.070  0.00  0.00    -0.010 C 
ATOM      9  C   LIG    1        6.038  -0.383   1.263  0.00  0.00    +0.016 C 
ATOM     10  C   LIG    1        5.214  -1.944  -0.411  0.00  0.00    +0.016 C 
BRANCH   8  11
ATOM     11  C   LIG    1        6.018   0.221  -1.147  0.00  0.00    +0.007 C 
ATOM     12  C   LIG    1        6.259   1.679  -1.054  0.00  0.00    +0.005 C 
ENDBRANCH   8  11
ENDBRANCH   5   8
ENDBRANCH   1   2
BRANCH   1  13
ATOM     13  C   LIG    1       -1.128   0.385  -0.126  0.00  0.00    +0.004 C 
ATOM     14  C   LIG    1       -0.886  -1.067  -0.357  0.00  0.00    +0.009 C 
BRANCH  13  15
ATOM     15  C   LIG    1       -2.543   0.742   0.245  0.00  0.00    +0.088 C 
BRANCH  15  16
ATOM     16  N   LIG    1       -3.563   0.395  -0.653  0.00  0.00    -0.297 NA
ATOM     17  C   LIG    1       -4.683   1.319  -0.671  0.00  0.00    +0.115 C 
ATOM     18  C   LIG    1       -5.792   0.941   0.268  0.00  0.00    +0.130 C 
ATOM     19  C   LIG    1       -5.948   1.852   1.442  0.00  0.00    +0.039 C 
ATOM     20  O   LIG    1       -5.628  -0.412   0.632  0.00  0.00    -0.371 OA
ATOM     21  C   LIG    1       -5.404  -1.101  -0.549  0.00  0.00    +0.130 C 
ATOM     22  C   LIG    1       -5.814  -2.544  -0.459  0.00  0.00    +0.039 C 
ATOM     23  C   LIG    1       -3.916  -0.957  -0.839  0.00  0.00    +0.115 C 
ENDBRANCH  15  16
ENDBRANCH  13  15
ENDBRANCH   1  13
TORSDOF 6
