REMARK  Name = molecules/MQJKPEGWNLWLTK-UHFFFAOYSA-N.pdb
REMARK                            x       y       z     vdW  Elec       q    Type
REMARK                         _______ _______ _______ _____ _____    ______ ____
ROOT
ATOM      1  S   LIG    1        0.024   0.320  -1.762  0.00  0.00    +0.025 S 
ATOM      2  O   LIG    1        0.086   1.666  -2.466  0.00  0.00    -0.164 OA
ATOM      3  O   LIG    1       -0.107  -0.715  -2.837  0.00  0.00    -0.164 OA
ENDROOT
BRANCH   1   4
ATOM      4  C   LIG    1        1.460   0.073  -0.786  0.00  0.00    +0.094 A 
ATOM      5  C   LIG    1        2.107   1.139  -0.193  0.00  0.00    +0.029 A 
ATOM      6  C   LIG    1        3.237   0.947   0.575  0.00  0.00    +0.024 A 
ATOM      7  C   LIG    1        3.772  -0.307   0.787  0.00  0.00    +0.025 A 
ATOM      8  C   LIG    1        3.123  -1.370   0.194  0.00  0.00    +0.024 A 
ATOM      9  C   LIG    1        1.992  -1.182  -0.576  0.00  0.00    +0.029 A 
BRANCH   7  10
ATOM     10  N   LIG    1        4.941  -0.510   1.581  0.00  0.00    -0.358 N 
ATOM     11  H   LIG    1        4.848  -0.507   2.623  0.00  0.00    +0.142 HD
ATOM     12  H   LIG    1        5.891  -0.664   1.177  0.00  0.00    +0.142 HD
ENDBRANCH   7  10
ENDBRANCH   1   4
BRANCH   1  13
ATOM     13  C   LIG    1       -1.431   0.236  -0.787  0.00  0.00    +0.094 A 
ATOM     14  C   LIG    1       -1.962   1.360  -0.191  0.00  0.00    +0.029 A 
ATOM     15  C   LIG    1       -3.113   1.279   0.577  0.00  0.00    +0.024 A 
ATOM     16  C   LIG    1       -3.775   0.086   0.781  0.00  0.00    +0.025 A 
ATOM     17  C   LIG    1       -3.243  -1.038   0.184  0.00  0.00    +0.024 A 
ATOM     18  C   LIG    1       -2.097  -0.955  -0.580  0.00  0.00    +0.029 A 
BRANCH  16  19
ATOM     19  N   LIG    1       -4.960   0.010   1.574  0.00  0.00    -0.358 N 
ATOM     20  H   LIG    1       -5.194   0.653   2.345  0.00  0.00    +0.142 HD
ATOM     21  H   LIG    1       -5.631  -0.753   1.349  0.00  0.00    +0.142 HD
ENDBRANCH  16  19
ENDBRANCH   1  13
TORSDOF 4
