REMARK  Name = molecules/MQQNFDZXWVTQEH-UHFFFAOYSA-N.pdb
REMARK                            x       y       z     vdW  Elec       q    Type
REMARK                         _______ _______ _______ _____ _____    ______ ____
ROOT
ATOM      1  O   LIG    1        0.314  -1.093   0.036  0.00  0.00    -0.422 OA
ENDROOT
BRANCH   1   7
ATOM      2  C   LIG    1       -5.949   0.150  -0.231  0.00  0.00    +0.065 A 
ATOM      3  C   LIG    1       -5.141  -0.261   0.811  0.00  0.00    +0.024 A 
ATOM      4  C   LIG    1       -3.797  -0.464   0.612  0.00  0.00    -0.017 A 
ATOM      5  C   LIG    1       -2.986  -0.874   1.645  0.00  0.00    +0.012 A 
ATOM      6  C   LIG    1       -1.638  -1.075   1.433  0.00  0.00    +0.047 A 
ATOM      7  C   LIG    1       -1.051  -0.876   0.193  0.00  0.00    +0.133 A 
ATOM      8  C   LIG    1       -1.876  -0.468  -0.822  0.00  0.00    +0.055 A 
ATOM      9  C   LIG    1       -3.246  -0.258  -0.632  0.00  0.00    -0.014 A 
ATOM     10  C   LIG    1       -4.022   0.152  -1.693  0.00  0.00    +0.009 A 
ATOM     11  C   LIG    1       -5.368   0.349  -1.467  0.00  0.00    +0.016 A 
BRANCH   2  12
ATOM     12  C   LIG    1       -7.372   0.359   0.001  0.00  0.00    +0.306 C 
ATOM     13  N   LIG    1       -8.204   0.781  -1.063  0.00  0.00    -0.286 N 
ATOM     14  H   LIG    1       -9.173   0.438  -1.140  0.00  0.00    +0.301 HD
ATOM     15  H   LIG    1       -7.857   1.443  -1.788  0.00  0.00    +0.301 HD
BRANCH  12  16
ATOM     16  N   LIG    1       -7.888   0.168   1.157  0.00  0.00    -0.069 NA
ATOM     17  H   LIG    1       -8.905   0.325   1.297  0.00  0.00    +0.348 HD
ENDBRANCH  12  16
ENDBRANCH   2  12
ENDBRANCH   1   7
BRANCH   1  18
ATOM     18  C   LIG    1        1.208  -0.074   0.238  0.00  0.00    +0.344 C 
ATOM     19  O   LIG    1        0.739   1.050   0.568  0.00  0.00    -0.245 OA
BRANCH  18  20
ATOM     20  C   LIG    1        2.655  -0.226   0.093  0.00  0.00    +0.060 A 
ATOM     21  C   LIG    1        3.503   0.837   0.310  0.00  0.00    +0.018 A 
ATOM     22  C   LIG    1        4.877   0.730   0.182  0.00  0.00    +0.043 A 
ATOM     23  C   LIG    1        5.458  -0.466  -0.175  0.00  0.00    +0.100 A 
ATOM     24  C   LIG    1        4.612  -1.530  -0.393  0.00  0.00    +0.043 A 
ATOM     25  C   LIG    1        3.237  -1.423  -0.264  0.00  0.00    +0.018 A 
BRANCH  23  26
ATOM     26  N   LIG    1        6.875  -0.595  -0.312  0.00  0.00    -0.244 N 
ATOM     27  H   LIG    1        7.327  -1.496  -0.582  0.00  0.00    +0.265 HD
BRANCH  26  28
ATOM     28  C   LIG    1        7.755   0.499  -0.089  0.00  0.00    +0.381 C 
ATOM     29  N   LIG    1        7.595   1.722  -0.796  0.00  0.00    -0.289 N 
ATOM     30  H   LIG    1        7.885   2.652  -0.420  0.00  0.00    +0.255 HD
ATOM     31  H   LIG    1        7.161   1.666  -1.745  0.00  0.00    +0.255 HD
BRANCH  28  32
ATOM     32  N   LIG    1        8.696   0.339   0.774  0.00  0.00    -0.129 NA
ATOM     33  H   LIG    1        9.384   1.083   1.000  0.00  0.00    +0.306 HD
ENDBRANCH  28  32
ENDBRANCH  26  28
ENDBRANCH  23  26
ENDBRANCH  18  20
ENDBRANCH   1  18
TORSDOF 8
