REMARK  Name = molecules/MQXVYODZCMMZEM-ZYUZMQFOSA-N.pdb
REMARK                            x       y       z     vdW  Elec       q    Type
REMARK                         _______ _______ _______ _____ _____    ______ ____
ROOT
ATOM      1  C   LIG    1        0.715  -0.549  -0.493  0.00  0.00    +0.175 C 
ENDROOT
BRANCH   1   2
ATOM      2  O   LIG    1        1.904  -1.248  -0.827  0.00  0.00    -0.387 OA
ATOM      3  H   LIG    1        1.610  -2.141  -1.130  0.00  0.00    +0.210 HD
ENDBRANCH   1   2
BRANCH   1   4
ATOM      4  C   LIG    1        1.135   0.539   0.466  0.00  0.00    +0.159 C 
BRANCH   4   5
ATOM      5  O   LIG    1       -0.025   1.263   0.835  0.00  0.00    -0.388 OA
ATOM      6  H   LIG    1        0.089   1.544   1.774  0.00  0.00    +0.210 HD
ENDBRANCH   4   5
BRANCH   4   7
ATOM      7  C   LIG    1        2.114   1.499  -0.164  0.00  0.00    +0.115 C 
BRANCH   7   8
ATOM      8  N   LIG    1        3.342   0.969  -0.596  0.00  0.00    -0.312 NA
ATOM      9  H   LIG    1        3.319   0.455  -1.467  0.00  0.00    +0.122 HD
BRANCH   8  10
ATOM     10  C   LIG    1        4.259   0.499   0.374  0.00  0.00    +0.097 C 
BRANCH  10  11
ATOM     11  C   LIG    1        5.529   0.043  -0.314  0.00  0.00    +0.124 C 
ATOM     12 CL   LIG    1        5.163  -1.253  -1.452  0.00  0.00    -0.124 Cl
ENDBRANCH  10  11
ENDBRANCH   8  10
ENDBRANCH   7   8
ENDBRANCH   4   7
ENDBRANCH   1   4
BRANCH   1  13
ATOM     13  C   LIG    1       -0.183  -1.558   0.180  0.00  0.00    +0.175 C 
BRANCH  13  14
ATOM     14  O   LIG    1       -0.392  -2.611  -0.743  0.00  0.00    -0.387 OA
ATOM     15  H   LIG    1       -0.355  -2.261  -1.684  0.00  0.00    +0.210 HD
ENDBRANCH  13  14
BRANCH  13  16
ATOM     16  C   LIG    1       -1.556  -1.040   0.509  0.00  0.00    +0.159 C 
BRANCH  16  17
ATOM     17  O   LIG    1       -2.258  -2.153   1.045  0.00  0.00    -0.388 OA
ATOM     18  H   LIG    1       -2.889  -2.514   0.392  0.00  0.00    +0.210 HD
ENDBRANCH  16  17
BRANCH  16  19
ATOM     19  C   LIG    1       -2.302  -0.566  -0.691  0.00  0.00    +0.115 C 
BRANCH  19  20
ATOM     20  N   LIG    1       -3.647  -0.151  -0.377  0.00  0.00    -0.312 NA
ATOM     21  H   LIG    1       -4.178  -0.908   0.100  0.00  0.00    +0.122 HD
BRANCH  20  22
ATOM     22  C   LIG    1       -3.703   1.049   0.416  0.00  0.00    +0.097 C 
BRANCH  22  23
ATOM     23  C   LIG    1       -5.182   1.355   0.622  0.00  0.00    +0.124 C 
ATOM     24 CL   LIG    1       -5.978   1.598  -0.957  0.00  0.00    -0.124 Cl
ENDBRANCH  22  23
ENDBRANCH  20  22
ENDBRANCH  19  20
ENDBRANCH  16  19
ENDBRANCH  13  16
ENDBRANCH   1  13
TORSDOF 15
