REMARK  Name = molecules/MRBDMNSDAVCSSF-UHFFFAOYSA-N.pdb
REMARK                            x       y       z     vdW  Elec       q    Type
REMARK                         _______ _______ _______ _____ _____    ______ ____
ROOT
ATOM      1  N   LIG    1       -0.054   0.095  -0.630  0.00  0.00    -0.297 N 
ENDROOT
BRANCH   1   2
ATOM      2  C   LIG    1       -1.232  -0.612  -0.371  0.00  0.00    +0.034 A 
ATOM      3  C   LIG    1       -1.317  -1.420   0.738  0.00  0.00    +0.024 A 
ATOM      4  C   LIG    1       -2.459  -2.149   1.035  0.00  0.00    +0.005 A 
ATOM      5  C   LIG    1       -3.543  -2.061   0.192  0.00  0.00    -0.050 A 
ATOM      6  C   LIG    1       -4.782  -2.828   0.480  0.00  0.00    +0.044 C 
ATOM      7  C   LIG    1       -3.462  -1.247  -0.927  0.00  0.00    +0.005 A 
ATOM      8  C   LIG    1       -2.316  -0.527  -1.208  0.00  0.00    +0.024 A 
ENDBRANCH   1   2
BRANCH   1   9
ATOM      9  C   LIG    1        0.159   1.359  -0.008  0.00  0.00    +0.037 A 
ATOM     10  C   LIG    1        0.744   1.369   1.233  0.00  0.00    +0.023 A 
ATOM     11  C   LIG    1        0.966   2.587   1.855  0.00  0.00    +0.005 A 
ATOM     12  C   LIG    1        0.615   3.764   1.258  0.00  0.00    +0.045 A 
ATOM     13  C   LIG    1        0.024   3.721  -0.002  0.00  0.00    +0.119 A 
ATOM     14  C   LIG    1       -0.217   2.533  -0.661  0.00  0.00    +0.068 A 
BRANCH  13  15
ATOM     15  O   LIG    1       -0.333   4.899  -0.615  0.00  0.00    -0.507 OA
ATOM     16  H   LIG    1       -0.207   5.808  -0.235  0.00  0.00    +0.292 HD
ENDBRANCH  13  15
ENDBRANCH   1   9
BRANCH   1  17
ATOM     17  C   LIG    1        1.026  -0.357  -1.505  0.00  0.00    +0.154 C 
BRANCH  17  18
ATOM     18  C   LIG    1        2.304  -0.513  -0.726  0.00  0.00    +0.137 C 
ATOM     19  N   LIG    1        2.505  -1.478   0.299  0.00  0.00    -0.292 NA
ATOM     20  H   LIG    1        1.758  -2.036   0.803  0.00  0.00    +0.124 HD
ATOM     21  C   LIG    1        3.946  -1.587   0.558  0.00  0.00    +0.099 C 
ATOM     22  C   LIG    1        4.419  -0.237   0.058  0.00  0.00    +0.120 C 
ATOM     23  N   LIG    1        3.380   0.183  -0.855  0.00  0.00    -0.213 NA
ENDBRANCH  17  18
ENDBRANCH   1  17
TORSDOF 5
