REMARK  Name = molecules/MREBEPTUUMTTIA-UHFFFAOYSA-N.pdb
REMARK                            x       y       z     vdW  Elec       q    Type
REMARK                         _______ _______ _______ _____ _____    ______ ____
ROOT
ATOM      1  N   LIG    1        1.057  -0.798  -0.272  0.00  0.00    -0.168 N 
ATOM      2  C   LIG    1        0.471   0.309   0.426  0.00  0.00    +0.331 C 
ATOM      3  O   LIG    1        0.787   0.613   1.601  0.00  0.00    -0.250 OA
ATOM      4  N   LIG    1       -0.490   0.980  -0.400  0.00  0.00    -0.223 N 
ATOM      5  C   LIG    1       -0.472   0.245  -1.631  0.00  0.00    +0.242 C 
ATOM      6  O   LIG    1       -1.352   0.288  -2.511  0.00  0.00    -0.273 OA
ATOM      7  C   LIG    1        0.763  -0.563  -1.674  0.00  0.00    +0.232 C 
ENDROOT
BRANCH   1   9
ATOM      8  C   LIG    1        2.909  -2.097   0.518  0.00  0.00    +0.176 C 
ATOM      9  N   LIG    1        1.727  -1.865   0.244  0.00  0.00    -0.180 NA
BRANCH   8  12
ATOM     10  C   LIG    1        6.072  -0.428   0.370  0.00  0.00    +0.136 A 
ATOM     11  O   LIG    1        5.300  -1.424   0.635  0.00  0.00    -0.454 OA
ATOM     12  C   LIG    1        4.025  -1.186   0.341  0.00  0.00    +0.148 A 
ATOM     13  C   LIG    1        3.946   0.085  -0.165  0.00  0.00    +0.051 A 
ATOM     14  C   LIG    1        5.269   0.564  -0.141  0.00  0.00    +0.050 A 
BRANCH  10  17
ATOM     15  C   LIG    1        9.611  -1.315   1.276  0.00  0.00    +0.021 A 
ATOM     16  C   LIG    1        8.241  -1.388   1.088  0.00  0.00    +0.013 A 
ATOM     17  C   LIG    1        7.519  -0.337   0.564  0.00  0.00    +0.017 A 
ATOM     18  C   LIG    1        8.224   0.803   0.231  0.00  0.00    +0.013 A 
ATOM     19  C   LIG    1        9.600   0.882   0.418  0.00  0.00    +0.021 A 
ATOM     20  C   LIG    1       10.312  -0.174   0.942  0.00  0.00    +0.041 A 
ATOM     21 CL   LIG    1       12.056  -0.072   1.179  0.00  0.00    -0.084 Cl
ENDBRANCH  10  17
ENDBRANCH   8  12
ENDBRANCH   1   9
BRANCH   4  22
ATOM     22  C   LIG    1       -1.208   2.159  -0.067  0.00  0.00    +0.118 C 
BRANCH  22  23
ATOM     23  C   LIG    1       -2.434   2.139   0.717  0.00  0.00    +0.021 C 
BRANCH  23  24
ATOM     24  C   LIG    1       -3.639   1.386   0.316  0.00  0.00    +0.017 C 
BRANCH  24  25
ATOM     25  C   LIG    1       -3.455  -0.076   0.338  0.00  0.00    +0.084 C 
BRANCH  25  26
ATOM     26  N   LIG    1       -4.638  -0.820  -0.046  0.00  0.00    -0.300 NA
ATOM     27  C   LIG    1       -5.662  -0.845   0.935  0.00  0.00    +0.100 C 
ATOM     28  C   LIG    1       -7.060  -0.716   0.396  0.00  0.00    +0.099 C 
ATOM     29  N   LIG    1       -7.149   0.289  -0.632  0.00  0.00    -0.303 NA
ATOM     30  C   LIG    1       -7.278   1.618  -0.122  0.00  0.00    +0.105 C 
ATOM     31  C   LIG    1       -6.218   0.130  -1.698  0.00  0.00    +0.099 C 
ATOM     32  C   LIG    1       -5.022  -0.699  -1.399  0.00  0.00    +0.100 C 
ENDBRANCH  25  26
ENDBRANCH  24  25
ENDBRANCH  23  24
ENDBRANCH  22  23
ENDBRANCH   4  22
TORSDOF 8
