REMARK  Name = molecules/MRUDSZSRLQAPOG-SKDRFNHKSA-N.pdb
REMARK                            x       y       z     vdW  Elec       q    Type
REMARK                         _______ _______ _______ _____ _____    ______ ____
ROOT
ATOM      1  C   LIG    1        1.967  -0.959  -0.290  0.00  0.00    +0.000 A 
ATOM      2  C   LIG    1        1.138   0.117  -0.541  0.00  0.00    +0.000 A 
ATOM      3  C   LIG    1       -0.088   0.005  -1.194  0.00  0.00    +0.000 A 
ATOM      4  C   LIG    1       -0.491  -1.227  -1.606  0.00  0.00    +0.000 A 
ATOM      5  C   LIG    1        0.318  -2.317  -1.368  0.00  0.00    +0.000 A 
ATOM      6  C   LIG    1        1.538  -2.209  -0.719  0.00  0.00    +0.000 A 
ENDROOT
BRANCH   1   7
ATOM      7  N   LIG    1        3.220  -0.884   0.370  0.00  0.00    +0.000 N 
ATOM      8  C   LIG    1        3.852   0.252   0.885  0.00  0.00    +0.000 C 
ATOM      9  C   LIG    1        5.195   0.110   1.556  0.00  0.00    +0.000 C 
ATOM     10  O   LIG    1        3.345   1.382   0.810  0.00  0.00    +0.000 OA
ATOM     11  H   LIG    1        3.738  -1.807   0.485  0.00  0.00    +0.000 HD
ENDBRANCH   1   7
BRANCH   3  12
ATOM     12 AS   LIG    1       -1.121   1.620  -1.460  0.00  0.00    +0.000 As
ATOM     13  S   LIG    1       -1.624   2.571   0.580  0.00  0.00    +0.000 S 
ATOM     14  C   LIG    1       -3.340   1.914   0.709  0.00  0.00    +0.000 C 
ATOM     15  C   LIG    1       -4.014   2.227  -0.594  0.00  0.00    +0.000 C 
ATOM     16  S   LIG    1       -3.324   1.070  -1.846  0.00  0.00    +0.000 S 
BRANCH  14  17
ATOM     17  C   LIG    1       -3.298   0.403   0.859  0.00  0.00    +0.000 C 
BRANCH  17  18
ATOM     18  O   LIG    1       -4.623  -0.020   0.950  0.00  0.00    +0.000 OA
ATOM     19  H   LIG    1       -5.090   0.667   1.519  0.00  0.00    +0.000 HD
ENDBRANCH  17  18
ENDBRANCH  14  17
ENDBRANCH   3  12
BRANCH   6  20
ATOM     20  O   LIG    1        2.335  -3.303  -0.488  0.00  0.00    +0.000 OA
ATOM     21  H   LIG    1        2.045  -4.222  -0.790  0.00  0.00    +0.000 HD
ENDBRANCH   6  20
TORSDOF 5
