REMARK  Name = molecules/MTCFGRXMJLQNBG-REOHCLBHSA-N.pdb
REMARK                            x       y       z     vdW  Elec       q    Type
REMARK                         _______ _______ _______ _____ _____    ______ ____
ROOT
ATOM      1  CA  SER A  1        0.349   0.346  -0.408  0.00  0.00    +0.186 C 
ENDROOT
BRANCH   1   2
ATOM      2  N   SER A  1        1.757   0.582  -0.191  0.00  0.00    -0.317 NA
ATOM      3  H1  SER A  1        2.063   0.225   0.724  0.00  0.00    +0.119 HD
ATOM      4  H2  SER A  1        2.265   0.073  -0.967  0.00  0.00    +0.119 HD
ENDBRANCH   1   2
BRANCH   1   5
ATOM      5  C   SER A  1       -0.424   1.349   0.323  0.00  0.00    +0.324 C 
ATOM      6  OXT SER A  1        0.160   2.222   0.994  0.00  0.00    -0.249 OA
BRANCH   5   7
ATOM      7  O   SER A  1       -1.818   1.395   0.319  0.00  0.00    -0.479 OA
ATOM      8  H   SER A  1       -2.278   1.005   1.135  0.00  0.00    +0.295 HD
ENDBRANCH   5   7
ENDBRANCH   1   5
BRANCH   1   9
ATOM      9  CB  SER A  1       -0.016  -1.074  -0.013  0.00  0.00    +0.185 C 
BRANCH   9  10
ATOM     10  OG  SER A  1       -1.367  -1.310  -0.218  0.00  0.00    -0.393 OA
ATOM     11  H   SER A  1       -1.553  -2.196  -0.620  0.00  0.00    +0.209 HD
ENDBRANCH   9  10
ENDBRANCH   1   9
TORSDOF 5
