REMARK  Name = molecules/MTMZZIPTQITGCY-OLGWUGKESA-N.pdb
REMARK                            x       y       z     vdW  Elec       q    Type
REMARK                         _______ _______ _______ _____ _____    ______ ____
ROOT
ATOM      1  C   LIG    1        0.156  -0.546  -1.499  0.00  0.00    +0.126 C 
ATOM      2  C   LIG    1        0.822   0.109  -0.386  0.00  0.00    +0.051 C 
ATOM      3  C   LIG    1        0.115   0.069   0.962  0.00  0.00    +0.003 C 
ATOM      4  C   LIG    1        0.759   1.096   1.888  0.00  0.00    +0.009 C 
ATOM      5  C   LIG    1        1.888   1.858   1.257  0.00  0.00    +0.036 C 
ATOM      6  C   LIG    1        2.831   0.816   0.735  0.00  0.00    -0.040 A 
ATOM      7  C   LIG    1        4.149   0.758   1.079  0.00  0.00    +0.049 A 
ATOM      8  C   LIG    1        4.920  -0.266   0.553  0.00  0.00    +0.117 A 
ATOM      9  C   LIG    1        4.386  -1.214  -0.299  0.00  0.00    +0.046 A 
ATOM     10  C   LIG    1        3.039  -1.110  -0.617  0.00  0.00    +0.008 A 
ATOM     11  C   LIG    1       -1.283   0.505   0.760  0.00  0.00    +0.003 C 
ATOM     12  C   LIG    1       -2.221   0.222   1.908  0.00  0.00    +0.008 C 
ATOM     13  C   LIG    1       -3.595   0.346   1.258  0.00  0.00    +0.049 C 
ATOM     14  C   LIG    1       -3.343   0.400  -0.254  0.00  0.00    +0.132 C 
ATOM     15  C   LIG    1       -1.998  -0.216  -0.367  0.00  0.00    +0.013 C 
ATOM     16  C   LIG    1       -2.096  -1.689  -0.089  0.00  0.00    +0.015 C 
ATOM     17  C   LIG    1        2.231  -0.116  -0.125  0.00  0.00    -0.038 A 
ATOM     18  C   LIG    1       -1.253   0.113  -1.627  0.00  0.00    +0.043 C 
ENDROOT
BRANCH   1  19
ATOM     19  O   LIG    1       -0.049  -1.881  -1.526  0.00  0.00    -0.379 OA
ATOM     20  C   LIG    1        0.237  -2.442  -2.766  0.00  0.00    +0.194 C 
ENDBRANCH   1  19
BRANCH   8  21
ATOM     21  O   LIG    1        6.258  -0.343   0.888  0.00  0.00    -0.507 OA
ATOM     22  H   LIG    1        6.687   0.330   1.507  0.00  0.00    +0.292 HD
ENDBRANCH   8  21
BRANCH  14  23
ATOM     23  C   LIG    1       -3.319   1.814  -0.628  0.00  0.00    -0.070 C 
ATOM     24  C   LIG    1       -3.287   2.977  -0.952  0.00  0.00    +0.007 C 
ENDBRANCH  14  23
BRANCH  14  25
ATOM     25  O   LIG    1       -4.343  -0.257  -0.941  0.00  0.00    -0.376 OA
ATOM     26  H   LIG    1       -5.195  -0.096  -0.457  0.00  0.00    +0.211 HD
ENDBRANCH  14  25
TORSDOF 4
