REMARK  Name = molecules/MTZBBNMLMNBNJL-UHFFFAOYSA-N.pdb
REMARK                            x       y       z     vdW  Elec       q    Type
REMARK                         _______ _______ _______ _____ _____    ______ ____
ROOT
ATOM      1  C   LIG    1        1.038  -1.288   0.412  0.00  0.00    +0.080 A 
ATOM      2  C   LIG    1        1.419  -2.502   0.972  0.00  0.00    +0.130 A 
ATOM      3  C   LIG    1        2.770  -2.866   0.934  0.00  0.00    +0.068 A 
ATOM      4  C   LIG    1        3.739  -2.089   0.375  0.00  0.00    +0.071 A 
ATOM      5 CL   LIG    1        5.438  -2.603   0.356  0.00  0.00    -0.081 Cl
ATOM      6  C   LIG    1        3.360  -0.892  -0.176  0.00  0.00    +0.124 A 
ATOM      7  C   LIG    1        2.041  -0.496  -0.161  0.00  0.00    +0.046 A 
ENDROOT
BRANCH   1   8
ATOM      8  C   LIG    1       -0.338  -0.836   0.408  0.00  0.00    +0.252 C 
ATOM      9  O   LIG    1       -1.221  -1.564   0.928  0.00  0.00    -0.270 OA
ATOM     10  N   LIG    1       -0.739   0.401  -0.160  0.00  0.00    -0.281 N 
ATOM     11  H   LIG    1       -0.029   1.015  -0.592  0.00  0.00    +0.155 HD
BRANCH  10  12
ATOM     12  C   LIG    1       -2.105   0.819  -0.147  0.00  0.00    +0.040 A 
ATOM     13  C   LIG    1       -2.551   1.554   0.920  0.00  0.00    -0.029 A 
ATOM     14  C   LIG    1       -1.614   1.890   2.018  0.00  0.00    +0.045 C 
ATOM     15  C   LIG    1       -3.881   1.946   0.903  0.00  0.00    +0.005 A 
ATOM     16  C   LIG    1       -4.724   1.612  -0.140  0.00  0.00    +0.001 A 
ATOM     17  C   LIG    1       -4.244   0.865  -1.210  0.00  0.00    +0.005 A 
ATOM     18  C   LIG    1       -2.902   0.462  -1.208  0.00  0.00    -0.029 A 
ATOM     19  C   LIG    1       -2.381  -0.336  -2.347  0.00  0.00    +0.045 C 
ENDBRANCH  10  12
ENDBRANCH   1   8
BRANCH   6  20
ATOM     20  S   LIG    1        4.605   0.122  -0.903  0.00  0.00    +0.057 S 
ATOM     21  O   LIG    1        5.638   0.399   0.147  0.00  0.00    -0.153 OA
ATOM     22  O   LIG    1        5.212  -0.676  -2.023  0.00  0.00    -0.153 OA
BRANCH  20  23
ATOM     23  N   LIG    1        3.922   1.565  -1.530  0.00  0.00    -0.203 NA
ATOM     24  H   LIG    1        4.043   2.308  -0.803  0.00  0.00    +0.144 HD
ATOM     25  H   LIG    1        4.492   1.897  -2.361  0.00  0.00    +0.144 HD
ENDBRANCH  20  23
ENDBRANCH   6  20
BRANCH   2  26
ATOM     26  O   LIG    1        0.532  -3.354   1.555  0.00  0.00    -0.506 OA
ATOM     27  H   LIG    1       -0.417  -3.385   1.729  0.00  0.00    +0.292 HD
ENDBRANCH   2  26
TORSDOF 5
