REMARK  Name = molecules/MUCZHBLJLSDCSD-UHFFFAOYSA-N.pdb
REMARK                            x       y       z     vdW  Elec       q    Type
REMARK                         _______ _______ _______ _____ _____    ______ ____
ROOT
ATOM      1  P   LIG    1       -0.018  -0.861  -1.225  0.00  0.00    +0.516 P 
ATOM      2  O   LIG    1        0.008  -1.816  -0.034  0.00  0.00    -0.223 OA
ATOM      3  F   LIG    1       -0.025  -1.735  -2.668  0.00  0.00    -0.133 F 
ENDROOT
BRANCH   1   4
ATOM      4  O   LIG    1        1.235   0.227  -1.206  0.00  0.00    -0.281 OA
BRANCH   4   6
ATOM      5  C   LIG    1        3.557  -0.219  -0.729  0.00  0.00    +0.038 C 
ATOM      6  C   LIG    1        2.179   0.022  -0.239  0.00  0.00    +0.124 C 
ATOM      7  C   LIG    1        2.214   1.151   0.790  0.00  0.00    +0.038 C 
ENDBRANCH   4   6
ENDBRANCH   1   4
BRANCH   1   8
ATOM      8  O   LIG    1       -1.507  -0.062  -1.138  0.00  0.00    -0.281 OA
BRANCH   8   9
ATOM      9  C   LIG    1       -2.111  -0.210   0.107  0.00  0.00    +0.124 C 
ATOM     10  C   LIG    1       -2.357   1.163   0.693  0.00  0.00    +0.038 C 
ATOM     11  C   LIG    1       -3.474  -0.887  -0.024  0.00  0.00    +0.038 C 
ENDBRANCH   8   9
ENDBRANCH   1   8
TORSDOF 4
