REMARK  Name = molecules/MUGXRYIUWFITCP-PGRDOPGGSA-N.pdb
REMARK                            x       y       z     vdW  Elec       q    Type
REMARK                         _______ _______ _______ _____ _____    ______ ____
ROOT
ATOM      1  C   LIG    1       -0.348   1.371  -0.454  0.00  0.00    +0.042 C 
ATOM      2  C   LIG    1       -1.690   1.136  -1.083  0.00  0.00    +0.090 C 
ATOM      3  C   LIG    1       -0.450   1.211  -1.940  0.00  0.00    +0.029 C 
ENDROOT
BRANCH   1   4
ATOM      4  C   LIG    1        0.038   2.719   0.003  0.00  0.00    -0.035 A 
ATOM      5  C   LIG    1       -0.936   3.563   0.504  0.00  0.00    +0.004 A 
ATOM      6  C   LIG    1       -0.529   4.820   0.927  0.00  0.00    +0.003 A 
ATOM      7  C   LIG    1        0.795   5.205   0.847  0.00  0.00    +0.038 A 
ATOM      8  C   LIG    1        1.768   4.379   0.354  0.00  0.00    +0.124 A 
ATOM      9  F   LIG    1        3.057   4.794   0.302  0.00  0.00    -0.205 F 
ATOM     10  C   LIG    1        1.362   3.129  -0.067  0.00  0.00    +0.042 A 
ENDBRANCH   1   4
BRANCH   2  11
ATOM     11  C   LIG    1       -2.306  -0.232  -0.973  0.00  0.00    +0.222 C 
ATOM     12  N   LIG    1       -3.609  -0.403  -0.468  0.00  0.00    -0.270 N 
ATOM     13  H   LIG    1       -4.077   0.511  -0.191  0.00  0.00    +0.156 HD
ATOM     14  O   LIG    1       -1.660  -1.228  -1.327  0.00  0.00    -0.275 OA
BRANCH  12  15
ATOM     15  C   LIG    1       -4.317  -1.607  -0.303  0.00  0.00    +0.125 A 
ATOM     16  N   LIG    1       -5.533  -1.512   0.275  0.00  0.00    -0.237 NA
ATOM     17  C   LIG    1       -6.339  -2.558   0.527  0.00  0.00    +0.151 A 
ATOM     18  C   LIG    1       -5.930  -3.832   0.185  0.00  0.00    +0.142 A 
ATOM     19  F   LIG    1       -6.734  -4.877   0.435  0.00  0.00    -0.204 F 
ATOM     20  C   LIG    1       -4.676  -3.966  -0.419  0.00  0.00    +0.043 A 
ATOM     21  C   LIG    1       -3.892  -2.848  -0.651  0.00  0.00    +0.046 A 
ENDBRANCH  12  15
ENDBRANCH   2  11
BRANCH   1  22
ATOM     22  C   LIG    1        0.111   0.262   0.457  0.00  0.00    +0.241 C 
BRANCH  22  23
ATOM     23  O   LIG    1        1.278  -0.257   0.305  0.00  0.00    -0.488 OA
BRANCH  23  27
ATOM     24  N   LIG    1        4.653  -1.408   0.761  0.00  0.00    -0.234 NA
ATOM     25  C   LIG    1        3.483  -0.831   1.022  0.00  0.00    +0.083 A 
ATOM     26  C   LIG    1        3.257  -0.214   2.347  0.00  0.00    +0.069 C 
ATOM     27  C   LIG    1        2.431  -0.792   0.095  0.00  0.00    +0.159 A 
ATOM     28  C   LIG    1        2.713  -1.409  -1.135  0.00  0.00    +0.160 A 
ATOM     29  N   LIG    1        3.916  -1.972  -1.331  0.00  0.00    -0.237 NA
ATOM     30  C   LIG    1        4.877  -1.982  -0.417  0.00  0.00    +0.126 A 
ATOM     31  C   LIG    1        6.199  -2.618  -0.687  0.00  0.00    +0.088 C 
ENDBRANCH  23  27
ENDBRANCH  22  23
ENDBRANCH   1  22
TORSDOF 6
