REMARK  Name = molecules/MUMGGOZAMZWBJJ-DYKIIFRCSA-N.pdb
REMARK                            x       y       z     vdW  Elec       q    Type
REMARK                         _______ _______ _______ _____ _____    ______ ____
ROOT
ATOM      1  C   LIG    1       -2.186  -0.973   0.274  0.00  0.00    +0.016 C 
ATOM      2  C   LIG    1       -1.857   0.482   0.010  0.00  0.00    -0.007 C 
ATOM      3  C   LIG    1       -2.609   1.314   1.014  0.00  0.00    +0.019 C 
ATOM      4  C   LIG    1       -4.063   1.476   0.640  0.00  0.00    +0.080 C 
ATOM      5  C   LIG    1       -4.104   2.120  -0.692  0.00  0.00    +0.156 C 
ATOM      6  O   LIG    1       -4.892   3.070  -0.877  0.00  0.00    -0.293 OA
ATOM      7  C   LIG    1       -3.208   1.591  -1.708  0.00  0.00    +0.046 C 
ATOM      8  C   LIG    1       -0.348   0.695   0.154  0.00  0.00    +0.002 C 
ATOM      9  C   LIG    1        0.070   0.713   1.588  0.00  0.00    +0.005 C 
ATOM     10  C   LIG    1        1.580   0.820   1.643  0.00  0.00    +0.010 C 
ATOM     11  C   LIG    1        2.112  -0.451   1.041  0.00  0.00    -0.003 C 
ATOM     12  C   LIG    1        1.580  -1.673   1.706  0.00  0.00    +0.014 C 
ATOM     13  C   LIG    1        3.593  -0.537   0.950  0.00  0.00    +0.121 C 
ATOM     14  C   LIG    1        3.790  -1.568  -0.155  0.00  0.00    +0.032 C 
ATOM     15  C   LIG    1        2.492  -1.568  -0.966  0.00  0.00    +0.007 C 
ATOM     16  C   LIG    1        1.754  -0.385  -0.445  0.00  0.00    +0.001 C 
ATOM     17  C   LIG    1        0.296  -0.353  -0.693  0.00  0.00    -0.003 C 
ATOM     18  C   LIG    1        0.048  -0.054  -2.147  0.00  0.00    +0.008 C 
ATOM     19  C   LIG    1       -1.328   0.348  -2.490  0.00  0.00    +0.032 C 
ATOM     20  C   LIG    1       -2.163   0.831  -1.396  0.00  0.00    -0.060 C 
ENDROOT
BRANCH  13  21
ATOM     21  O   LIG    1        4.199  -0.946   2.135  0.00  0.00    -0.391 OA
ATOM     22  H   LIG    1        4.740  -0.209   2.554  0.00  0.00    +0.210 HD
ENDBRANCH  13  21
TORSDOF 1
