REMARK  Name = molecules/MUQUYTSLDVKIOF-BBMNSBIFSA-N.pdb
REMARK                            x       y       z     vdW  Elec       q    Type
REMARK                         _______ _______ _______ _____ _____    ______ ____
ROOT
ATOM      1  C   LIG    1       -1.747  -0.913   0.128  0.00  0.00    +0.115 C 
ATOM      2  C   LIG    1       -1.613   0.474   0.581  0.00  0.00    -0.027 C 
ATOM      3  C   LIG    1       -0.631   1.205   1.044  0.00  0.00    +0.077 C 
ATOM      4  N   LIG    1        0.754   1.109   1.359  0.00  0.00    -0.298 N 
ATOM      5  C   LIG    1        1.383   2.171   2.109  0.00  0.00    +0.038 A 
ATOM      6  C   LIG    1        0.878   3.312   2.676  0.00  0.00    +0.024 A 
ATOM      7  C   LIG    1        1.673   4.197   3.356  0.00  0.00    +0.002 A 
ATOM      8  C   LIG    1        3.019   3.908   3.457  0.00  0.00    +0.000 A 
ATOM      9  C   LIG    1        3.526   2.763   2.888  0.00  0.00    +0.006 A 
ATOM     10  C   LIG    1        2.727   1.861   2.198  0.00  0.00    -0.019 A 
ATOM     11  C   LIG    1        3.016   0.574   1.504  0.00  0.00    +0.007 C 
ATOM     12  C   LIG    1        3.712  -0.314   2.516  0.00  0.00    -0.006 C 
ATOM     13  C   LIG    1        5.124  -0.413   2.046  0.00  0.00    -0.073 C 
ATOM     14  N   LIG    1        5.013  -0.313   0.603  0.00  0.00    +0.387 N 
ATOM     15  C   LIG    1        4.511  -1.595   0.141  0.00  0.00    -0.042 C 
ATOM     16  C   LIG    1        3.745  -1.435  -1.134  0.00  0.00    -0.080 C 
ATOM     17  C   LIG    1        2.755  -0.356  -1.309  0.00  0.00    +0.040 C 
ATOM     18  C   LIG    1        1.635  -0.393  -0.332  0.00  0.00    -0.027 C 
ATOM     19  C   LIG    1        0.633  -0.916  -1.009  0.00  0.00    +0.077 C 
ATOM     20  C   LIG    1        3.518   0.937  -0.927  0.00  0.00    -0.002 C 
ATOM     21  C   LIG    1        3.999  -2.277  -2.110  0.00  0.00    -0.002 C 
ATOM     22  C   LIG    1        4.063   0.745   0.440  0.00  0.00    -0.051 C 
ATOM     23  C   LIG    1        1.719   0.069   1.051  0.00  0.00    +0.115 C 
ATOM     24  C   LIG    1       -2.768   1.401   0.523  0.00  0.00    +0.040 C 
ATOM     25  C   LIG    1       -4.012   1.032   1.142  0.00  0.00    -0.080 C 
ATOM     26  C   LIG    1       -4.214   0.667   2.375  0.00  0.00    -0.002 C 
ATOM     27  C   LIG    1       -5.243   1.102   0.241  0.00  0.00    -0.042 C 
ATOM     28  N   LIG    1       -5.083   0.015  -0.702  0.00  0.00    +0.387 N 
ATOM     29  C   LIG    1       -5.338  -1.212  -0.027  0.00  0.00    -0.073 C 
ATOM     30  C   LIG    1       -4.045  -1.895   0.241  0.00  0.00    -0.006 C 
ATOM     31  C   LIG    1       -3.714   0.006  -1.197  0.00  0.00    -0.051 C 
ATOM     32  C   LIG    1       -3.063   1.347  -1.019  0.00  0.00    -0.002 C 
ATOM     33  C   LIG    1       -3.030  -1.162  -0.624  0.00  0.00    +0.007 C 
ATOM     34  C   LIG    1       -2.651  -2.147  -1.682  0.00  0.00    -0.019 A 
ATOM     35  C   LIG    1       -1.295  -2.205  -1.788  0.00  0.00    +0.038 A 
ATOM     36  C   LIG    1       -0.733  -3.058  -2.708  0.00  0.00    +0.024 A 
ATOM     37  C   LIG    1       -1.544  -3.856  -3.522  0.00  0.00    +0.002 A 
ATOM     38  C   LIG    1       -2.910  -3.787  -3.403  0.00  0.00    +0.000 A 
ATOM     39  C   LIG    1       -3.480  -2.930  -2.480  0.00  0.00    +0.006 A 
ATOM     40  N   LIG    1       -0.735  -1.284  -0.841  0.00  0.00    -0.298 N 
ENDROOT
BRANCH  21  41
ATOM     41  C   LIG    1        3.387  -2.287  -3.448  0.00  0.00    +0.183 C 
BRANCH  41  42
ATOM     42  O   LIG    1        4.375  -2.122  -4.457  0.00  0.00    -0.391 OA
ATOM     43  H   LIG    1        3.966  -1.746  -5.277  0.00  0.00    +0.210 HD
ENDBRANCH  41  42
ENDBRANCH  21  41
BRANCH  14  44
ATOM     44  C   LIG    1        6.284  -0.050  -0.002  0.00  0.00    -0.047 C 
BRANCH  44  45
ATOM     45  C   LIG    1        6.716   1.348  -0.019  0.00  0.00    -0.053 C 
ATOM     46  C   LIG    1        7.823   1.709   0.582  0.00  0.00    +0.002 C 
ENDBRANCH  44  45
ENDBRANCH  14  44
BRANCH  26  47
ATOM     47  C   LIG    1       -3.149   0.573   3.366  0.00  0.00    +0.183 C 
BRANCH  47  48
ATOM     48  O   LIG    1       -3.379   1.439   4.466  0.00  0.00    -0.391 OA
ATOM     49  H   LIG    1       -2.560   1.971   4.606  0.00  0.00    +0.210 HD
ENDBRANCH  47  48
ENDBRANCH  26  47
BRANCH  28  50
ATOM     50  C   LIG    1       -6.043   0.224  -1.783  0.00  0.00    -0.047 C 
BRANCH  50  51
ATOM     51  C   LIG    1       -7.346   0.641  -1.252  0.00  0.00    -0.053 C 
ATOM     52  C   LIG    1       -7.856   1.815  -1.619  0.00  0.00    +0.002 C 
ENDBRANCH  50  51
ENDBRANCH  28  50
TORSDOF 8
