REMARK  Name = molecules/MUTNCGKQJGXKEM-UHFFFAOYSA-N.pdb
REMARK                            x       y       z     vdW  Elec       q    Type
REMARK                         _______ _______ _______ _____ _____    ______ ____
ROOT
ATOM      1  C   LIG    1       -0.545  -0.319   0.089  0.00  0.00    +0.027 A 
ATOM      2  C   LIG    1        0.300   0.742   0.261  0.00  0.00    +0.034 A 
ATOM      3  C   LIG    1       -0.230   2.042   0.351  0.00  0.00    +0.023 A 
ATOM      4  C   LIG    1       -1.591   2.183   0.260  0.00  0.00    +0.006 A 
ATOM      5  C   LIG    1       -2.436   1.099   0.085  0.00  0.00    -0.038 A 
ATOM      6  C   LIG    1       -3.888   1.385   0.001  0.00  0.00    -0.010 C 
ATOM      7  C   LIG    1       -4.484   1.736   1.335  0.00  0.00    +0.016 C 
ATOM      8  C   LIG    1       -4.615   0.206  -0.562  0.00  0.00    +0.012 C 
ATOM      9  C   LIG    1       -4.209  -1.067   0.152  0.00  0.00    +0.012 C 
ATOM     10  C   LIG    1       -2.791  -1.388  -0.195  0.00  0.00    -0.009 C 
ATOM     11  C   LIG    1       -2.324  -2.515   0.696  0.00  0.00    +0.016 C 
ATOM     12  C   LIG    1       -2.624  -1.831  -1.628  0.00  0.00    +0.016 C 
ATOM     13  C   LIG    1       -4.120   2.574  -0.923  0.00  0.00    +0.016 C 
ATOM     14  C   LIG    1       -1.937  -0.176  -0.005  0.00  0.00    -0.036 A 
ENDROOT
BRANCH   2  15
ATOM     15  N   LIG    1        1.707   0.668   0.348  0.00  0.00    -0.281 N 
ATOM     16  H   LIG    1        2.269   1.518   0.668  0.00  0.00    +0.155 HD
ATOM     17  C   LIG    1        2.481  -0.467   0.041  0.00  0.00    +0.248 C 
ATOM     18  O   LIG    1        1.926  -1.520  -0.350  0.00  0.00    -0.270 OA
BRANCH  17  19
ATOM     19  C   LIG    1        3.942  -0.474   0.160  0.00  0.00    +0.037 A 
ATOM     20  C   LIG    1        4.640   0.517   0.807  0.00  0.00    +0.014 A 
ATOM     21  C   LIG    1        6.038   0.465   0.901  0.00  0.00    +0.016 A 
ATOM     22  C   LIG    1        6.744  -0.579   0.349  0.00  0.00    +0.059 A 
ATOM     23  C   LIG    1        6.026  -1.561  -0.294  0.00  0.00    +0.016 A 
ATOM     24  C   LIG    1        4.656  -1.516  -0.390  0.00  0.00    +0.014 A 
BRANCH  22  25
ATOM     25  C   LIG    1        8.211  -0.635   0.446  0.00  0.00    +0.337 C 
ATOM     26  O   LIG    1        8.866  -1.579  -0.052  0.00  0.00    -0.245 OA
BRANCH  25  27
ATOM     27  O   LIG    1        8.867   0.374   1.099  0.00  0.00    -0.477 OA
ATOM     28  H   LIG    1        9.654   0.172   1.731  0.00  0.00    +0.295 HD
ENDBRANCH  25  27
ENDBRANCH  22  25
ENDBRANCH  17  19
ENDBRANCH   2  15
TORSDOF 4
