REMARK  Name = molecules/MUXFZBHBYYYLTH-SNVBAGLBSA-N.pdb
REMARK                            x       y       z     vdW  Elec       q    Type
REMARK                         _______ _______ _______ _____ _____    ______ ____
ROOT
ATOM      1  C   LIG    1       -2.286  -0.259   0.360  0.00  0.00    -0.034 A 
ATOM      2  C   LIG    1       -1.935   0.391   1.532  0.00  0.00    +0.005 A 
ATOM      3  C   LIG    1       -0.642   0.412   2.011  0.00  0.00    +0.015 A 
ATOM      4  C   LIG    1        0.332  -0.242   1.287  0.00  0.00    +0.016 A 
ATOM      5  S   LIG    1        1.934  -0.106   2.057  0.00  0.00    -0.088 S 
ATOM      6  C   LIG    1        3.158   0.197   0.773  0.00  0.00    +0.023 A 
ATOM      7  C   LIG    1        4.295   0.808   1.260  0.00  0.00    +0.016 A 
ATOM      8  C   LIG    1        5.329   1.106   0.392  0.00  0.00    +0.001 A 
ATOM      9  C   LIG    1        5.278   0.819  -0.957  0.00  0.00    +0.001 A 
ATOM     10  C   LIG    1        4.146   0.212  -1.436  0.00  0.00    +0.012 A 
ATOM     11  C   LIG    1        3.102  -0.094  -0.585  0.00  0.00    +0.031 A 
ATOM     12  C   LIG    1        1.989  -0.736  -1.286  0.00  0.00    +0.169 C 
ATOM     13  C   LIG    1        0.954  -1.662  -0.801  0.00  0.00    +0.116 C 
ATOM     14  O   LIG    1        1.954  -0.406  -2.521  0.00  0.00    -0.292 OA
ATOM     15  C   LIG    1        0.040  -0.903   0.115  0.00  0.00    -0.026 A 
ATOM     16  C   LIG    1       -1.269  -0.893  -0.319  0.00  0.00    +0.009 A 
ENDROOT
BRANCH   1  17
ATOM     17  C   LIG    1       -3.643  -0.302  -0.177  0.00  0.00    +0.124 C 
ATOM     18  C   LIG    1       -4.642  -0.929   0.764  0.00  0.00    +0.024 C 
BRANCH  17  19
ATOM     19  C   LIG    1       -4.050   1.097  -0.538  0.00  0.00    +0.312 C 
ATOM     20  O   LIG    1       -4.365   1.429  -1.703  0.00  0.00    -0.250 OA
BRANCH  19  21
ATOM     21  O   LIG    1       -4.092   2.098   0.432  0.00  0.00    -0.480 OA
ATOM     22  H   LIG    1       -4.976   2.557   0.575  0.00  0.00    +0.295 HD
ENDBRANCH  19  21
ENDBRANCH  17  19
ENDBRANCH   1  17
TORSDOF 3
