REMARK  Name = molecules/MVCQKIKWYUURMU-UHFFFAOYSA-N.pdb
REMARK                            x       y       z     vdW  Elec       q    Type
REMARK                         _______ _______ _______ _____ _____    ______ ____
ROOT
ATOM      1  C   LIG    1       -2.277  -0.836  -0.247  0.00  0.00    +0.041 C 
ENDROOT
BRANCH   1   2
ATOM      2  C   LIG    1       -0.885  -1.048   0.286  0.00  0.00    +0.003 C 
BRANCH   2   3
ATOM      3  C   LIG    1       -0.722  -2.216   1.194  0.00  0.00    +0.000 C 
BRANCH   3   4
ATOM      4  C   LIG    1        0.630  -2.469   1.718  0.00  0.00    +0.000 C 
BRANCH   4   5
ATOM      5  C   LIG    1        1.753  -2.849   0.866  0.00  0.00    +0.000 C 
BRANCH   5   6
ATOM      6  C   LIG    1        2.236  -1.983  -0.224  0.00  0.00    -0.000 C 
BRANCH   6   7
ATOM      7  C   LIG    1        2.632  -0.597   0.217  0.00  0.00    -0.000 C 
BRANCH   7   8
ATOM      8  C   LIG    1        3.117   0.251  -0.922  0.00  0.00    -0.000 C 
BRANCH   8   9
ATOM      9  C   LIG    1        4.312  -0.307  -1.617  0.00  0.00    -0.000 C 
BRANCH   9  10
ATOM     10  C   LIG    1        5.504  -0.454  -0.681  0.00  0.00    -0.000 C 
BRANCH  10  11
ATOM     11  C   LIG    1        5.899   0.888  -0.102  0.00  0.00    -0.000 C 
BRANCH  11  12
ATOM     12  C   LIG    1        7.078   0.747   0.827  0.00  0.00    -0.000 C 
BRANCH  12  13
ATOM     13  C   LIG    1        8.307   0.184   0.170  0.00  0.00    -0.000 C 
BRANCH  13  14
ATOM     14  C   LIG    1        8.728   1.080  -0.949  0.00  0.00    -0.003 C 
ATOM     15  C   LIG    1        9.023   2.459  -0.404  0.00  0.00    +0.004 C 
ENDBRANCH  13  14
ENDBRANCH  12  13
ENDBRANCH  11  12
ENDBRANCH  10  11
ENDBRANCH   9  10
ENDBRANCH   8   9
ENDBRANCH   7   8
ENDBRANCH   6   7
ENDBRANCH   5   6
ENDBRANCH   4   5
ENDBRANCH   3   4
ENDBRANCH   2   3
ENDBRANCH   1   2
BRANCH   1  16
ATOM     16  C   LIG    1       -3.244  -0.595   0.904  0.00  0.00    +0.234 C 
BRANCH  16  17
ATOM     17  O   LIG    1       -4.436  -0.375   0.488  0.00  0.00    -0.449 OA
BRANCH  17  26
ATOM     18  C   LIG    1       -8.565   1.784   1.082  0.00  0.00    +0.029 A 
ATOM     19  C   LIG    1       -9.814   2.117   0.599  0.00  0.00    +0.005 A 
ATOM     20  C   LIG    1      -10.235   1.708  -0.648  0.00  0.00    -0.050 A 
ATOM     21  C   LIG    1      -11.576   2.048  -1.204  0.00  0.00    +0.044 C 
ATOM     22  C   LIG    1       -9.346   0.950  -1.386  0.00  0.00    +0.020 A 
ATOM     23  C   LIG    1       -8.098   0.612  -0.914  0.00  0.00    +0.085 A 
ATOM     24  C   LIG    1       -7.207  -0.142  -1.641  0.00  0.00    +0.350 A 
ATOM     25  O   LIG    1       -6.036  -0.459  -1.197  0.00  0.00    -0.374 OA
ATOM     26  C   LIG    1       -5.591  -0.075   0.022  0.00  0.00    +0.399 A 
ATOM     27  N   LIG    1       -6.475   0.684   0.766  0.00  0.00    -0.178 NA
ATOM     28  O   LIG    1       -7.561  -0.535  -2.792  0.00  0.00    -0.244 OA
ATOM     29  C   LIG    1       -7.681   1.022   0.331  0.00  0.00    +0.085 A 
ENDBRANCH  17  26
ENDBRANCH  16  17
ENDBRANCH   1  16
TORSDOF 16
