REMARK  Name = molecules/MVFGUOIZUNYYSO-LLVKDONJSA-N.pdb
REMARK                            x       y       z     vdW  Elec       q    Type
REMARK                         _______ _______ _______ _____ _____    ______ ____
ROOT
ATOM      1  N   LIG    1        1.208   0.425  -0.544  0.00  0.00    -0.284 N 
ATOM      2  C   LIG    1       -0.091  -0.092  -0.502  0.00  0.00    +0.234 C 
ATOM      3  O   LIG    1       -0.356  -1.115   0.155  0.00  0.00    -0.274 OA
ATOM      4  H   LIG    1        1.315   1.308  -1.142  0.00  0.00    +0.155 HD
ENDROOT
BRANCH   1   5
ATOM      5  C   LIG    1        2.371  -0.058   0.086  0.00  0.00    +0.036 A 
ATOM      6  C   LIG    1        2.427  -1.168   0.883  0.00  0.00    +0.023 A 
ATOM      7  C   LIG    1        3.584  -1.614   1.486  0.00  0.00    +0.002 A 
ATOM      8  C   LIG    1        4.743  -0.900   1.270  0.00  0.00    +0.000 A 
ATOM      9  C   LIG    1        4.738   0.225   0.475  0.00  0.00    +0.005 A 
ATOM     10  C   LIG    1        3.570   0.645  -0.112  0.00  0.00    -0.029 A 
ATOM     11  C   LIG    1        3.544   1.874  -0.986  0.00  0.00    +0.045 C 
ENDBRANCH   1   5
BRANCH   2  12
ATOM     12  C   LIG    1       -1.230   0.534  -1.227  0.00  0.00    +0.138 C 
ATOM     13  C   LIG    1       -0.976   0.599  -2.716  0.00  0.00    +0.034 C 
BRANCH  12  14
ATOM     14  N   LIG    1       -2.479  -0.118  -1.014  0.00  0.00    -0.306 NA
ATOM     15  H   LIG    1       -3.208   0.135  -1.704  0.00  0.00    +0.123 HD
BRANCH  14  16
ATOM     16  C   LIG    1       -3.010  -0.097   0.300  0.00  0.00    +0.081 C 
BRANCH  16  17
ATOM     17  C   LIG    1       -4.351  -0.817   0.394  0.00  0.00    +0.012 C 
ATOM     18  C   LIG    1       -4.863  -0.763   1.798  0.00  0.00    +0.005 C 
ENDBRANCH  16  17
ENDBRANCH  14  16
ENDBRANCH  12  14
ENDBRANCH   2  12
TORSDOF 5
