REMARK  Name = molecules/MVMXJBMAGBRAHD-UHFFFAOYSA-N.pdb
REMARK                            x       y       z     vdW  Elec       q    Type
REMARK                         _______ _______ _______ _____ _____    ______ ____
ROOT
ATOM      1  N   LIG    1       -1.220   0.521  -0.512  0.00  0.00    -0.323 N 
ENDROOT
BRANCH   1   2
ATOM      2  C   LIG    1       -1.213   1.816   0.029  0.00  0.00    +0.030 A 
ATOM      3  C   LIG    1       -1.277   2.015   1.392  0.00  0.00    +0.023 A 
ATOM      4  C   LIG    1       -1.336   3.307   1.859  0.00  0.00    +0.002 A 
ATOM      5  C   LIG    1       -1.334   4.418   1.012  0.00  0.00    +0.000 A 
ATOM      6  C   LIG    1       -1.269   4.233  -0.345  0.00  0.00    +0.002 A 
ATOM      7  C   LIG    1       -1.209   2.947  -0.817  0.00  0.00    +0.023 A 
ENDBRANCH   1   2
BRANCH   1   8
ATOM      8  C   LIG    1       -0.145  -0.395  -0.447  0.00  0.00    +0.121 C 
BRANCH   8   9
ATOM      9  C   LIG    1        1.060   0.048   0.288  0.00  0.00    +0.103 C 
BRANCH   9  10
ATOM     10  N   LIG    1        2.106  -0.945   0.341  0.00  0.00    -0.301 NA
ATOM     11  C   LIG    1        3.252  -0.513   1.084  0.00  0.00    +0.084 C 
ATOM     12  C   LIG    1        4.345   0.071   0.275  0.00  0.00    +0.015 C 
ATOM     13  C   LIG    1        4.659  -0.599  -1.014  0.00  0.00    +0.002 C 
ATOM     14  C   LIG    1        3.388  -0.907  -1.749  0.00  0.00    +0.015 C 
ATOM     15  C   LIG    1        2.407  -1.632  -0.864  0.00  0.00    +0.084 C 
ENDBRANCH   9  10
ENDBRANCH   8   9
ENDBRANCH   1   8
BRANCH   1  16
ATOM     16  C   LIG    1       -2.433   0.083  -1.200  0.00  0.00    +0.160 C 
BRANCH  16  17
ATOM     17  C   LIG    1       -3.059  -1.109  -0.610  0.00  0.00    +0.058 A 
ATOM     18  C   LIG    1       -3.050  -1.312   0.741  0.00  0.00    +0.025 A 
ATOM     19  C   LIG    1       -3.658  -2.462   1.258  0.00  0.00    +0.003 A 
ATOM     20  C   LIG    1       -4.262  -3.386   0.402  0.00  0.00    +0.020 A 
ATOM     21  C   LIG    1       -4.238  -3.125  -0.952  0.00  0.00    +0.111 A 
ATOM     22  N   LIG    1       -3.649  -2.011  -1.453  0.00  0.00    -0.258 NA
ENDBRANCH  16  17
ENDBRANCH   1  16
TORSDOF 6
