REMARK  Name = molecules/MVOUIYUWRXPNKD-UHFFFAOYSA-N.pdb
REMARK                            x       y       z     vdW  Elec       q    Type
REMARK                         _______ _______ _______ _____ _____    ______ ____
ROOT
ATOM      1  C   LIG    1       -0.007  -0.719  -0.044  0.00  0.00    +0.010 A 
ATOM      2  C   LIG    1       -0.929  -1.073   0.918  0.00  0.00    +0.060 A 
ATOM      3  C   LIG    1       -2.217  -0.576   0.919  0.00  0.00    +0.166 A 
ATOM      4  C   LIG    1       -2.638   0.305  -0.054  0.00  0.00    +0.204 A 
ATOM      5  C   LIG    1       -1.719   0.665  -1.022  0.00  0.00    +0.166 A 
ATOM      6  C   LIG    1       -0.424   0.163  -1.019  0.00  0.00    +0.060 A 
ENDROOT
BRANCH   1   7
ATOM      7  C   LIG    1        1.361  -1.255  -0.034  0.00  0.00    +0.082 C 
ATOM      8  S   LIG    1        1.646  -2.860   0.054  0.00  0.00    -0.035 S 
BRANCH   7   9
ATOM      9  N   LIG    1        2.493  -0.394  -0.100  0.00  0.00    -0.319 N 
ATOM     10  C   LIG    1        3.850  -0.898  -0.091  0.00  0.00    +0.133 C 
ATOM     11  C   LIG    1        4.522  -0.310   1.141  0.00  0.00    +0.178 C 
ATOM     12  O   LIG    1        3.797   0.780   1.633  0.00  0.00    -0.377 OA
ATOM     13  C   LIG    1        3.547   1.636   0.562  0.00  0.00    +0.178 C 
ATOM     14  C   LIG    1        2.342   1.059  -0.182  0.00  0.00    +0.133 C 
ENDBRANCH   7   9
ENDBRANCH   1   7
BRANCH   3  15
ATOM     15  O   LIG    1       -3.149  -0.930   1.886  0.00  0.00    -0.491 OA
ATOM     16  C   LIG    1       -2.899  -1.806   2.941  0.00  0.00    +0.277 C 
ENDBRANCH   3  15
BRANCH   4  17
ATOM     17  O   LIG    1       -3.931   0.821  -0.075  0.00  0.00    -0.488 OA
ATOM     18  C   LIG    1       -4.896   0.078  -0.807  0.00  0.00    +0.277 C 
ENDBRANCH   4  17
BRANCH   5  19
ATOM     19  O   LIG    1       -2.171   1.559  -1.995  0.00  0.00    -0.491 OA
ATOM     20  C   LIG    1       -1.244   1.938  -2.993  0.00  0.00    +0.277 C 
ENDBRANCH   5  19
TORSDOF 5
