REMARK  Name = molecules/MVWVFYHBGMAFLY-UHFFFAOYSA-N.pdb
REMARK                            x       y       z     vdW  Elec       q    Type
REMARK                         _______ _______ _______ _____ _____    ______ ____
ROOT
ATOM      1  N   LIG    1        0.186   0.094  -0.080  0.00  0.00    -0.299 NA
ATOM      2  C   LIG    1       -0.643  -0.134   1.052  0.00  0.00    +0.103 C 
ATOM      3  C   LIG    1       -2.070  -0.484   0.683  0.00  0.00    +0.122 C 
ATOM      4  N   LIG    1       -2.526   0.208  -0.476  0.00  0.00    -0.312 N 
ATOM      5  C   LIG    1       -1.760   1.206  -1.127  0.00  0.00    +0.122 C 
ATOM      6  C   LIG    1       -0.286   1.077  -0.996  0.00  0.00    +0.103 C 
ENDROOT
BRANCH   4   7
ATOM      7  C   LIG    1       -3.849  -0.143  -0.977  0.00  0.00    +0.138 A 
ATOM      8  C   LIG    1       -5.011   0.177  -0.352  0.00  0.00    +0.031 A 
ATOM      9  C   LIG    1       -5.190   0.918   0.839  0.00  0.00    +0.012 A 
ATOM     10  C   LIG    1       -6.431   1.162   1.337  0.00  0.00    +0.001 A 
ATOM     11  C   LIG    1       -7.587   0.730   0.757  0.00  0.00    +0.001 A 
ATOM     12  C   LIG    1       -7.429   0.000  -0.415  0.00  0.00    +0.017 A 
ATOM     13  C   LIG    1       -6.159  -0.267  -0.953  0.00  0.00    +0.041 A 
ATOM     14  S   LIG    1       -5.567  -1.087  -2.327  0.00  0.00    +0.014 S 
ATOM     15  N   LIG    1       -3.927  -0.848  -2.101  0.00  0.00    -0.194 NA
ENDBRANCH   4   7
BRANCH   1  16
ATOM     16  C   LIG    1        0.792  -1.038  -0.676  0.00  0.00    +0.089 C 
BRANCH  16  17
ATOM     17  C   LIG    1        1.917  -1.724  -0.023  0.00  0.00    +0.052 C 
BRANCH  17  18
ATOM     18  C   LIG    1        3.173  -1.014   0.152  0.00  0.00    -0.027 A 
ATOM     19  C   LIG    1        3.428  -0.178   1.190  0.00  0.00    +0.046 A 
ATOM     20 CL   LIG    1        2.321   0.083   2.529  0.00  0.00    -0.083 Cl
ATOM     21  C   LIG    1        4.636   0.518   1.290  0.00  0.00    +0.043 A 
ATOM     22  C   LIG    1        5.616   0.384   0.342  0.00  0.00    +0.038 A 
ATOM     23  N   LIG    1        6.906   1.001   0.246  0.00  0.00    -0.285 N 
ATOM     24  H   LIG    1        7.296   1.673   0.929  0.00  0.00    +0.155 HD
ATOM     25  C   LIG    1        7.516   0.531  -0.925  0.00  0.00    +0.222 C 
ATOM     26  O   LIG    1        8.658   0.863  -1.358  0.00  0.00    -0.275 OA
ATOM     27  C   LIG    1        6.601  -0.425  -1.580  0.00  0.00    +0.133 C 
ATOM     28  C   LIG    1        5.388  -0.457  -0.720  0.00  0.00    -0.017 A 
ATOM     29  C   LIG    1        4.191  -1.141  -0.812  0.00  0.00    +0.011 A 
ENDBRANCH  17  18
ENDBRANCH  16  17
ENDBRANCH   1  16
TORSDOF 4
