REMARK  Name = molecules/MWLSOWXNZPKENC-ZETCQYMHSA-N.pdb
REMARK                            x       y       z     vdW  Elec       q    Type
REMARK                         _______ _______ _______ _____ _____    ______ ____
ROOT
ATOM      1  C   LIG    1        1.671   0.948   0.303  0.00  0.00    +0.140 C 
ATOM      2  C   LIG    1        1.670   2.030  -0.741  0.00  0.00    +0.036 C 
ENDROOT
BRANCH   1   3
ATOM      3  C   LIG    1        0.269   0.398   0.440  0.00  0.00    +0.013 A 
ATOM      4  S   LIG    1       -0.252  -1.062   1.145  0.00  0.00    -0.091 S 
ATOM      5  C   LIG    1       -1.932  -0.911   0.887  0.00  0.00    +0.020 A 
ATOM      6  C   LIG    1       -3.063  -1.689   1.172  0.00  0.00    +0.015 A 
ATOM      7  C   LIG    1       -4.337  -1.304   0.836  0.00  0.00    +0.001 A 
ATOM      8  C   LIG    1       -4.419  -0.076   0.188  0.00  0.00    +0.001 A 
ATOM      9  C   LIG    1       -3.339   0.698  -0.100  0.00  0.00    +0.009 A 
ATOM     10  C   LIG    1       -2.042   0.288   0.251  0.00  0.00    -0.010 A 
ATOM     11  C   LIG    1       -0.898   0.975   0.015  0.00  0.00    +0.021 A 
ENDBRANCH   1   3
BRANCH   1  12
ATOM     12  N   LIG    1        2.526  -0.131  -0.149  0.00  0.00    -0.160 N 
ATOM     13  C   LIG    1        3.580  -0.549   0.684  0.00  0.00    +0.323 C 
ATOM     14  O   LIG    1        3.765   0.002   1.784  0.00  0.00    -0.251 OA
ATOM     15  N   LIG    1        4.426  -1.599   0.260  0.00  0.00    -0.312 N 
ATOM     16  H   LIG    1        5.290  -1.876   0.806  0.00  0.00    +0.147 HD
ATOM     17  H   LIG    1        4.260  -2.163  -0.602  0.00  0.00    +0.147 HD
BRANCH  12  18
ATOM     18  O   LIG    1        2.312  -0.730  -1.367  0.00  0.00    -0.291 OA
ATOM     19  H   LIG    1        1.324  -0.773  -1.542  0.00  0.00    +0.242 HD
ENDBRANCH  12  18
ENDBRANCH   1  12
TORSDOF 3
