REMARK  Name = molecules/MWQCHHACWWAQLJ-UHFFFAOYSA-N.pdb
REMARK                            x       y       z     vdW  Elec       q    Type
REMARK                         _______ _______ _______ _____ _____    ______ ____
ROOT
ATOM      1  N   LIG    1        1.490   0.647  -0.135  0.00  0.00    -0.269 N 
ATOM      2  C   LIG    1        0.701  -0.526  -0.074  0.00  0.00    +0.046 A 
ATOM      3  C   LIG    1        1.442  -1.615   0.301  0.00  0.00    +0.025 A 
ATOM      4  C   LIG    1        0.830  -2.839   0.316  0.00  0.00    +0.022 A 
ATOM      5  C   LIG    1       -0.514  -2.963  -0.044  0.00  0.00    +0.042 A 
ATOM      6 CL   LIG    1       -1.329  -4.509  -0.036  0.00  0.00    -0.084 Cl
ATOM      7  C   LIG    1       -1.256  -1.874  -0.417  0.00  0.00    +0.032 A 
ATOM      8  C   LIG    1       -0.651  -0.646  -0.429  0.00  0.00    +0.023 A 
ATOM      9  C   LIG    1       -1.588   0.411  -0.776  0.00  0.00    +0.075 C 
ATOM     10  N   LIG    1       -1.265   1.471  -1.490  0.00  0.00    -0.273 NA
ATOM     11  C   LIG    1        0.030   1.814  -2.055  0.00  0.00    +0.238 C 
ATOM     12  C   LIG    1        1.082   1.784  -0.967  0.00  0.00    +0.241 C 
ATOM     13  O   LIG    1        1.689   2.836  -0.728  0.00  0.00    -0.273 OA
ENDROOT
BRANCH   9  14
ATOM     14  C   LIG    1       -2.962   0.326  -0.351  0.00  0.00    +0.001 A 
ATOM     15  C   LIG    1       -3.431  -0.499   0.619  0.00  0.00    +0.010 A 
ATOM     16  C   LIG    1       -4.762  -0.422   1.076  0.00  0.00    +0.001 A 
ATOM     17  C   LIG    1       -5.618   0.498   0.547  0.00  0.00    +0.000 A 
ATOM     18  C   LIG    1       -5.175   1.359  -0.442  0.00  0.00    +0.001 A 
ATOM     19  C   LIG    1       -3.886   1.252  -0.857  0.00  0.00    +0.010 A 
ENDBRANCH   9  14
BRANCH   1  20
ATOM     20  C   LIG    1        2.663   0.815   0.633  0.00  0.00    +0.117 C 
BRANCH  20  21
ATOM     21  C   LIG    1        3.986   0.521  -0.004  0.00  0.00    +0.007 C 
ATOM     22  C   LIG    1        5.244   0.788   0.761  0.00  0.00    +0.005 C 
ATOM     23  C   LIG    1        4.819  -0.606   0.547  0.00  0.00    +0.005 C 
ENDBRANCH  20  21
ENDBRANCH   1  20
TORSDOF 3
