REMARK  Name = molecules/MXAYKZJJDUDWDS-LBPRGKRZSA-N.pdb
REMARK                            x       y       z     vdW  Elec       q    Type
REMARK                         _______ _______ _______ _____ _____    ______ ____
ROOT
ATOM      1  C   LIG    1        0.159   0.254  -0.815  0.00  0.00    +0.000 C 
ATOM      2  O   LIG    1        0.485   0.269   0.406  0.00  0.00    +0.000 OA
ATOM      3  N   LIG    1       -1.194   0.179  -1.211  0.00  0.00    +0.000 N 
ATOM      4  H   LIG    1       -1.430   0.168  -2.217  0.00  0.00    +0.000 HD
ENDROOT
BRANCH   1   5
ATOM      5  C   LIG    1        1.200   0.314  -1.864  0.00  0.00    +0.000 C 
BRANCH   5   8
ATOM      6  C   LIG    1        2.954  -0.641  -0.402  0.00  0.00    +0.000 C 
ATOM      7  O   LIG    1        2.216  -1.629  -0.159  0.00  0.00    +0.000 OA
ATOM      8  N   LIG    1        2.500   0.386  -1.254  0.00  0.00    +0.000 N 
ATOM      9  H   LIG    1        3.116   1.200  -1.439  0.00  0.00    +0.000 HD
BRANCH   6  11
ATOM     10  C   LIG    1        5.371  -1.097  -0.493  0.00  0.00    +0.000 A 
ATOM     11  C   LIG    1        4.274  -0.553   0.188  0.00  0.00    +0.000 A 
ATOM     12  C   LIG    1        4.484   0.045   1.391  0.00  0.00    +0.000 A 
ATOM     13 CL   LIG    1        3.162   0.736   2.281  0.00  0.00    +0.000 Cl
ATOM     14  C   LIG    1        5.762   0.129   1.960  0.00  0.00    +0.000 A 
ATOM     15  C   LIG    1        6.817  -0.416   1.263  0.00  0.00    +0.000 A 
ATOM     16  C   LIG    1        6.640  -1.029   0.041  0.00  0.00    +0.000 A 
ATOM     17 CL   LIG    1        8.011  -1.711  -0.815  0.00  0.00    +0.000 Cl
ENDBRANCH   6  11
ENDBRANCH   5   8
ENDBRANCH   1   5
BRANCH   3  18
ATOM     18  C   LIG    1       -2.286   0.115  -0.227  0.00  0.00    +0.000 C 
BRANCH  18  19
ATOM     19  B   LIG    1       -3.015  -1.284  -0.449  0.00  0.00    +0.000 B 
BRANCH  19  20
ATOM     20  O   LIG    1       -2.962  -2.300   0.628  0.00  0.00    +0.000 OA
ATOM     21  H   LIG    1       -3.875  -2.694   0.721  0.00  0.00    +0.000 HD
ENDBRANCH  19  20
BRANCH  19  22
ATOM     22  O   LIG    1       -3.022  -1.866  -1.812  0.00  0.00    +0.000 OA
ATOM     23  H   LIG    1       -2.232  -2.494  -1.814  0.00  0.00    +0.000 HD
ENDBRANCH  19  22
ENDBRANCH  18  19
BRANCH  18  24
ATOM     24  C   LIG    1       -3.180   1.275  -0.514  0.00  0.00    +0.000 C 
BRANCH  24  25
ATOM     25  C   LIG    1       -4.364   1.375   0.402  0.00  0.00    +0.000 C 
ATOM     26  C   LIG    1       -3.984   1.525   1.849  0.00  0.00    +0.000 C 
ATOM     27  C   LIG    1       -5.314   0.234   0.204  0.00  0.00    +0.000 C 
ENDBRANCH  24  25
ENDBRANCH  18  24
ENDBRANCH   3  18
TORSDOF 9
