REMARK  Name = molecules/MXFWWQICDIZSOA-QGZVFWFLSA-N.pdb
REMARK                            x       y       z     vdW  Elec       q    Type
REMARK                         _______ _______ _______ _____ _____    ______ ____
ROOT
ATOM      1  C   LIG    1       -1.083   0.949  -0.972  0.00  0.00    +0.121 A 
ATOM      2  C   LIG    1       -1.030   0.145   0.139  0.00  0.00    +0.047 A 
ATOM      3  C   LIG    1        0.117  -0.344   0.680  0.00  0.00    +0.027 A 
ATOM      4  C   LIG    1        1.363  -0.035   0.102  0.00  0.00    +0.035 A 
ATOM      5  C   LIG    1        1.325   0.766  -1.006  0.00  0.00    +0.027 A 
ATOM      6  C   LIG    1        0.154   1.257  -1.547  0.00  0.00    +0.047 A 
ENDROOT
BRANCH   4   7
ATOM      7  N   LIG    1        2.536  -0.553   0.693  0.00  0.00    -0.269 N 
ATOM      8  H   LIG    1        2.413  -1.228   1.509  0.00  0.00    +0.156 HD
ATOM      9  C   LIG    1        3.847  -0.252   0.290  0.00  0.00    +0.304 C 
ATOM     10  N   LIG    1        4.956  -0.861   0.986  0.00  0.00    -0.296 N 
ATOM     11  H   LIG    1        4.735  -1.503   1.763  0.00  0.00    +0.151 HD
ATOM     12  O   LIG    1        4.152   0.516  -0.640  0.00  0.00    -0.253 OA
BRANCH  10  13
ATOM     13  C   LIG    1        6.295  -0.574   0.601  0.00  0.00    +0.074 C 
ATOM     14  C   LIG    1        7.120   0.045   1.717  0.00  0.00    +0.022 C 
ATOM     15  C   LIG    1        8.401   0.558   1.159  0.00  0.00    +0.002 C 
ATOM     16  C   LIG    1        9.141  -0.383   0.274  0.00  0.00    +0.000 C 
ATOM     17  C   LIG    1        8.299  -1.259  -0.583  0.00  0.00    +0.002 C 
ATOM     18  C   LIG    1        7.070  -1.790   0.118  0.00  0.00    +0.022 C 
ENDBRANCH  10  13
ENDBRANCH   4   7
BRANCH   1  19
ATOM     19  O   LIG    1       -2.195   1.470  -1.556  0.00  0.00    -0.489 OA
BRANCH  19  20
ATOM     20  C   LIG    1       -3.538   1.374  -1.306  0.00  0.00    +0.261 C 
BRANCH  20  21
ATOM     21  C   LIG    1       -4.053  -0.013  -1.487  0.00  0.00    +0.166 C 
BRANCH  21  22
ATOM     22  O   LIG    1       -3.805  -0.370  -2.832  0.00  0.00    -0.387 OA
ATOM     23  H   LIG    1       -2.952  -0.863  -2.914  0.00  0.00    +0.210 HD
ENDBRANCH  21  22
BRANCH  21  24
ATOM     24  C   LIG    1       -5.543  -0.125  -1.203  0.00  0.00    +0.116 C 
BRANCH  24  25
ATOM     25  N   LIG    1       -5.859   0.224   0.150  0.00  0.00    -0.309 NA
ATOM     26  H   LIG    1       -5.557   1.204   0.390  0.00  0.00    +0.123 HD
BRANCH  25  27
ATOM     27  C   LIG    1       -7.248   0.133   0.464  0.00  0.00    +0.011 C 
ATOM     28  C   LIG    1       -7.422   0.633   1.902  0.00  0.00    +0.027 C 
ATOM     29  C   LIG    1       -7.836  -1.229   0.319  0.00  0.00    +0.027 C 
ATOM     30  C   LIG    1       -7.994   1.130  -0.410  0.00  0.00    +0.027 C 
ENDBRANCH  25  27
ENDBRANCH  24  25
ENDBRANCH  21  24
ENDBRANCH  20  21
ENDBRANCH  19  20
ENDBRANCH   1  19
TORSDOF 9
