REMARK  Name = molecules/MXHODDGKGSGCDI-UHFFFAOYSA-N.pdb
REMARK                            x       y       z     vdW  Elec       q    Type
REMARK                         _______ _______ _______ _____ _____    ______ ____
ROOT
ATOM      1  N   LIG    1       -0.634  -0.585   0.088  0.00  0.00    -0.324 N 
ENDROOT
BRANCH   1   2
ATOM      2  C   LIG    1       -1.264  -1.819  -0.281  0.00  0.00    +0.030 A 
ATOM      3  C   LIG    1       -2.519  -2.178   0.228  0.00  0.00    +0.023 A 
ATOM      4  C   LIG    1       -3.147  -3.359  -0.121  0.00  0.00    +0.002 A 
ATOM      5  C   LIG    1       -2.562  -4.228  -0.983  0.00  0.00    +0.000 A 
ATOM      6  C   LIG    1       -1.340  -3.929  -1.511  0.00  0.00    +0.002 A 
ATOM      7  C   LIG    1       -0.720  -2.735  -1.147  0.00  0.00    +0.023 A 
ENDBRANCH   1   2
BRANCH   1   8
ATOM      8  C   LIG    1       -1.277   0.290   1.014  0.00  0.00    +0.140 C 
BRANCH   8   9
ATOM      9  C   LIG    1       -2.143   1.350   0.500  0.00  0.00    -0.030 A 
ATOM     10  C   LIG    1       -3.512   1.310   0.835  0.00  0.00    +0.005 A 
ATOM     11  C   LIG    1       -4.400   2.258   0.399  0.00  0.00    +0.000 A 
ATOM     12  C   LIG    1       -3.983   3.300  -0.395  0.00  0.00    +0.000 A 
ATOM     13  C   LIG    1       -2.665   3.376  -0.742  0.00  0.00    +0.000 A 
ATOM     14  C   LIG    1       -1.773   2.393  -0.283  0.00  0.00    +0.005 A 
ENDBRANCH   8   9
ENDBRANCH   1   8
BRANCH   1  15
ATOM     15  C   LIG    1        0.636  -0.269  -0.497  0.00  0.00    +0.121 C 
BRANCH  15  16
ATOM     16  C   LIG    1        1.686  -0.348   0.601  0.00  0.00    +0.103 C 
BRANCH  16  17
ATOM     17  N   LIG    1        3.012  -0.086   0.169  0.00  0.00    -0.301 NA
ATOM     18  C   LIG    1        4.010  -0.135   1.178  0.00  0.00    +0.084 C 
ATOM     19  C   LIG    1        5.135   0.735   0.741  0.00  0.00    +0.017 C 
ATOM     20  C   LIG    1        4.735   1.324  -0.560  0.00  0.00    +0.017 C 
ATOM     21  C   LIG    1        3.220   1.099  -0.604  0.00  0.00    +0.084 C 
ENDBRANCH  16  17
ENDBRANCH  15  16
ENDBRANCH   1  15
TORSDOF 6
