REMARK  Name = molecules/MXJWRABVEGLYDG-UHFFFAOYSA-N.pdb
REMARK                            x       y       z     vdW  Elec       q    Type
REMARK                         _______ _______ _______ _____ _____    ______ ____
ROOT
ATOM      1  C   LIG    1        2.155   0.662  -0.041  0.00  0.00    -0.038 A 
ATOM      2  C   LIG    1        1.434   0.545   1.139  0.00  0.00    +0.007 A 
ATOM      3  C   LIG    1        0.103   0.183   1.151  0.00  0.00    +0.046 A 
ATOM      4  C   LIG    1       -0.567  -0.077  -0.011  0.00  0.00    +0.121 A 
ATOM      5  C   LIG    1        0.134   0.034  -1.197  0.00  0.00    +0.046 A 
ATOM      6  C   LIG    1        1.464   0.396  -1.206  0.00  0.00    +0.007 A 
ENDROOT
BRANCH   1   7
ATOM      7  C   LIG    1        3.589   1.052  -0.045  0.00  0.00    +0.133 C 
BRANCH   7   8
ATOM      8  C   LIG    1        4.493  -0.095   0.041  0.00  0.00    +0.240 C 
ATOM      9  O   LIG    1        4.058  -1.270   0.109  0.00  0.00    -0.273 OA
ATOM     10  N   LIG    1        5.892   0.101   0.049  0.00  0.00    -0.197 N 
ATOM     11  H   LIG    1        6.274   1.066  -0.007  0.00  0.00    +0.182 HD
BRANCH  10  12
ATOM     12  O   LIG    1        6.737  -0.946   0.127  0.00  0.00    -0.295 OA
ATOM     13  H   LIG    1        6.399  -1.615  -0.547  0.00  0.00    +0.241 HD
ENDBRANCH  10  12
ENDBRANCH   7   8
ENDBRANCH   1   7
BRANCH   4  14
ATOM     14  O   LIG    1       -1.895  -0.444  -0.079  0.00  0.00    -0.492 OA
BRANCH  14  15
ATOM     15  C   LIG    1       -2.746  -0.603   1.007  0.00  0.00    +0.229 C 
BRANCH  15  16
ATOM     16  C   LIG    1       -4.120  -1.006   0.576  0.00  0.00    +0.041 C 
BRANCH  16  17
ATOM     17  C   LIG    1       -4.743   0.027  -0.331  0.00  0.00    -0.000 C 
ATOM     18  C   LIG    1       -3.876   0.182  -1.561  0.00  0.00    +0.004 C 
ENDBRANCH  16  17
ENDBRANCH  15  16
ENDBRANCH  14  15
ENDBRANCH   4  14
TORSDOF 7
