REMARK  Name = molecules/MYEJFUXQJGHEQK-ALRJYLEOSA-N.pdb
REMARK                            x       y       z     vdW  Elec       q    Type
REMARK                         _______ _______ _______ _____ _____    ______ ____
ROOT
ATOM      1  C   LIG    1       -3.014  -0.233  -0.917  0.00  0.00    +0.144 C 
ATOM      2  C   LIG    1       -2.212  -1.155  -0.096  0.00  0.00    +0.004 C 
ATOM      3  C   LIG    1       -0.894  -1.090   0.063  0.00  0.00    -0.065 C 
ATOM      4  C   LIG    1       -0.257  -2.100   0.925  0.00  0.00    +0.031 C 
ATOM      5  C   LIG    1        1.239  -2.200   0.726  0.00  0.00    +0.011 C 
ATOM      6  C   LIG    1        1.752  -0.753   0.623  0.00  0.00    +0.025 C 
ATOM      7  C   LIG    1        3.199  -0.680   0.911  0.00  0.00    +0.075 C 
ATOM      8  C   LIG    1        3.849  -2.070   0.911  0.00  0.00    +0.036 C 
ATOM      9  C   LIG    1        5.272  -1.868   0.483  0.00  0.00    +0.012 C 
ATOM     10  C   LIG    1        5.386  -0.512  -0.115  0.00  0.00    +0.031 C 
ATOM     11  C   LIG    1        4.046   0.195   0.077  0.00  0.00    +0.004 C 
ATOM     12  C   LIG    1        4.340   1.526   0.740  0.00  0.00    +0.014 C 
ATOM     13  C   LIG    1        3.507   0.511  -1.292  0.00  0.00    +0.010 C 
ATOM     14  C   LIG    1        2.080   0.928  -1.204  0.00  0.00    +0.005 C 
ATOM     15  C   LIG    1        1.309  -0.256  -0.701  0.00  0.00    +0.005 C 
ATOM     16  C   LIG    1       -0.179   0.000  -0.648  0.00  0.00    -0.008 C 
ATOM     17  C   LIG    1       -0.372   1.350   0.009  0.00  0.00    +0.016 C 
ATOM     18  C   LIG    1       -0.784   0.081  -2.033  0.00  0.00    +0.014 C 
ATOM     19  C   LIG    1       -2.202   0.586  -1.870  0.00  0.00    +0.037 C 
ENDROOT
BRANCH  10  20
ATOM     20  C   LIG    1        6.529   0.275   0.416  0.00  0.00    -0.009 A 
ATOM     21  C   LIG    1        6.729   0.378   1.760  0.00  0.00    +0.203 A 
ATOM     22  O   LIG    1        7.721   1.066   2.261  0.00  0.00    -0.430 OA
ATOM     23  C   LIG    1        8.568   1.688   1.484  0.00  0.00    +0.337 A 
ATOM     24  O   LIG    1        9.529   2.354   2.000  0.00  0.00    -0.245 OA
ATOM     25  C   LIG    1        8.438   1.635   0.115  0.00  0.00    +0.092 A 
ATOM     26  C   LIG    1        7.409   0.922  -0.438  0.00  0.00    +0.014 A 
ENDBRANCH  10  20
BRANCH   7  27
ATOM     27  O   LIG    1        3.332  -0.231   2.250  0.00  0.00    -0.388 OA
ATOM     28  H   LIG    1        2.496   0.203   2.560  0.00  0.00    +0.210 HD
ENDBRANCH   7  27
BRANCH   1  29
ATOM     29  O   LIG    1       -3.830   0.509  -0.099  0.00  0.00    -0.341 OA
BRANCH  29  35
ATOM     30  C   LIG    1       -7.436   0.738  -2.127  0.00  0.00    +0.041 C 
ATOM     31  C   LIG    1       -7.126   1.395  -0.806  0.00  0.00    +0.149 C 
ATOM     32  C   LIG    1       -7.885   0.761   0.336  0.00  0.00    +0.174 C 
ATOM     33  C   LIG    1       -7.218  -0.466   0.868  0.00  0.00    +0.179 C 
ATOM     34  C   LIG    1       -5.757  -0.148   1.086  0.00  0.00    +0.201 C 
ATOM     35  C   LIG    1       -5.176   0.281  -0.244  0.00  0.00    +0.282 C 
ATOM     36  O   LIG    1       -5.769   1.513  -0.554  0.00  0.00    -0.343 OA
BRANCH  32  37
ATOM     37  O   LIG    1       -8.024   1.684   1.372  0.00  0.00    -0.387 OA
ATOM     38  H   LIG    1       -8.006   1.282   2.262  0.00  0.00    +0.210 HD
ENDBRANCH  32  37
BRANCH  34  39
ATOM     39  O   LIG    1       -5.068  -1.170   1.690  0.00  0.00    -0.384 OA
ATOM     40  H   LIG    1       -5.606  -1.933   1.979  0.00  0.00    +0.210 HD
ENDBRANCH  34  39
BRANCH  33  41
ATOM     41  O   LIG    1       -7.405  -1.505  -0.035  0.00  0.00    -0.386 OA
ATOM     42  H   LIG    1       -6.893  -2.304   0.201  0.00  0.00    +0.210 HD
ENDBRANCH  33  41
ENDBRANCH  29  35
ENDBRANCH   1  29
TORSDOF 7
