REMARK  Name = molecules/MYUHSNVSHMCUMD-UHFFFAOYSA-N.pdb
REMARK                            x       y       z     vdW  Elec       q    Type
REMARK                         _______ _______ _______ _____ _____    ______ ____
ROOT
ATOM      1  O   LIG    1        2.031  -1.605  -0.009  0.00  0.00    -0.267 OA
ATOM      2  C   LIG    1        1.020  -0.848  -0.004  0.00  0.00    +0.265 A 
ATOM      3  N   LIG    1       -0.243  -1.321   0.011  0.00  0.00    -0.302 N 
ATOM      4  H   LIG    1       -0.421  -2.350   0.019  0.00  0.00    +0.171 HD
ATOM      5  C   LIG    1       -1.326  -0.521   0.015  0.00  0.00    +0.158 A 
ATOM      6  S   LIG    1       -2.845  -1.147   0.034  0.00  0.00    -0.013 S 
ATOM      7  N   LIG    1       -1.119   0.811   0.005  0.00  0.00    -0.341 N 
ATOM      8  H   LIG    1       -1.967   1.431   0.009  0.00  0.00    +0.167 HD
ATOM      9  C   LIG    1        0.126   1.330  -0.010  0.00  0.00    +0.104 A 
ATOM     10  C   LIG    1        1.240   0.515  -0.015  0.00  0.00    +0.093 A 
ATOM     11  I   LIG    1        3.201   1.302  -0.038  0.00  0.00    -0.037 I 
ENDROOT
TORSDOF 0
