REMARK  Name = molecules/MYWUZJCMWCOHBA-SECBINFHSA-N.pdb
REMARK                            x       y       z     vdW  Elec       q    Type
REMARK                         _______ _______ _______ _____ _____    ______ ____
ROOT
ATOM      1  C   LIG    1       -0.441   0.641  -0.309  0.00  0.00    +0.053 C 
ENDROOT
BRANCH   1   2
ATOM      2  C   LIG    1        0.978   0.396  -0.006  0.00  0.00    -0.046 A 
ATOM      3  C   LIG    1        1.516   0.381   1.255  0.00  0.00    +0.004 A 
ATOM      4  C   LIG    1        2.864   0.148   1.490  0.00  0.00    +0.000 A 
ATOM      5  C   LIG    1        3.723  -0.081   0.441  0.00  0.00    +0.000 A 
ATOM      6  C   LIG    1        3.193  -0.068  -0.833  0.00  0.00    +0.000 A 
ATOM      7  C   LIG    1        1.856   0.164  -1.055  0.00  0.00    +0.004 A 
ENDBRANCH   1   2
BRANCH   1   8
ATOM      8  C   LIG    1       -1.302  -0.570  -0.395  0.00  0.00    +0.055 C 
ATOM      9  C   LIG    1       -1.395  -1.367   0.881  0.00  0.00    +0.024 C 
BRANCH   8  10
ATOM     10  N   LIG    1       -2.651  -0.125  -0.702  0.00  0.00    -0.316 NA
ATOM     11  C   LIG    1       -3.166   0.703   0.362  0.00  0.00    +0.101 C 
ATOM     12  H   LIG    1       -2.738   0.311  -1.639  0.00  0.00    +0.122 HD
ENDBRANCH   8  10
ENDBRANCH   1   8
TORSDOF 3
