REMARK  Name = molecules/MYWUZJCMWCOHBA-VIFPVBQESA-N.pdb
REMARK                            x       y       z     vdW  Elec       q    Type
REMARK                         _______ _______ _______ _____ _____    ______ ____
ROOT
ATOM      1  C   LIG    1       -0.354  -0.667  -0.649  0.00  0.00    +0.053 C 
ENDROOT
BRANCH   1   2
ATOM      2  C   LIG    1        1.023  -0.191  -0.305  0.00  0.00    -0.046 A 
ATOM      3  C   LIG    1        1.999  -1.103   0.082  0.00  0.00    +0.004 A 
ATOM      4  C   LIG    1        3.242  -0.602   0.384  0.00  0.00    +0.000 A 
ATOM      5  C   LIG    1        3.557   0.736   0.321  0.00  0.00    +0.000 A 
ATOM      6  C   LIG    1        2.597   1.643  -0.060  0.00  0.00    +0.000 A 
ATOM      7  C   LIG    1        1.329   1.149  -0.370  0.00  0.00    +0.004 A 
ENDBRANCH   1   2
BRANCH   1   8
ATOM      8  C   LIG    1       -1.265  -0.737   0.535  0.00  0.00    +0.055 C 
ATOM      9  C   LIG    1       -2.501  -1.522   0.205  0.00  0.00    +0.024 C 
BRANCH   8  11
ATOM     10  C   LIG    1       -2.271   1.445   0.484  0.00  0.00    +0.101 C 
ATOM     11  N   LIG    1       -1.496   0.495   1.216  0.00  0.00    -0.316 NA
ATOM     12  H   LIG    1       -1.923   0.306   2.127  0.00  0.00    +0.122 HD
ENDBRANCH   8  11
ENDBRANCH   1   8
TORSDOF 3
