REMARK  Name = molecules/NARHAGIVSFTMIG-OAHLLOKOSA-N.pdb
REMARK                            x       y       z     vdW  Elec       q    Type
REMARK                         _______ _______ _______ _____ _____    ______ ____
ROOT
ATOM      1  C   LIG    1       -0.407   0.353   0.606  0.00  0.00    +0.098 C 
ENDROOT
BRANCH   1   2
ATOM      2  C   LIG    1       -1.162   1.590   0.141  0.00  0.00    -0.028 A 
ATOM      3  C   LIG    1       -0.584   2.824   0.145  0.00  0.00    +0.005 A 
ATOM      4  C   LIG    1       -1.320   3.947  -0.276  0.00  0.00    +0.000 A 
ATOM      5  C   LIG    1       -2.623   3.792  -0.689  0.00  0.00    +0.000 A 
ATOM      6  C   LIG    1       -3.216   2.544  -0.694  0.00  0.00    +0.000 A 
ATOM      7  C   LIG    1       -2.471   1.449  -0.275  0.00  0.00    +0.005 A 
ENDBRANCH   1   2
BRANCH   1   8
ATOM      8  C   LIG    1       -1.079  -0.802  -0.062  0.00  0.00    -0.028 A 
ATOM      9  C   LIG    1       -1.599  -1.816   0.699  0.00  0.00    +0.005 A 
ATOM     10  C   LIG    1       -2.232  -2.856   0.029  0.00  0.00    +0.000 A 
ATOM     11  C   LIG    1       -2.336  -2.874  -1.347  0.00  0.00    +0.000 A 
ATOM     12  C   LIG    1       -1.788  -1.816  -2.074  0.00  0.00    +0.000 A 
ATOM     13  C   LIG    1       -1.157  -0.773  -1.440  0.00  0.00    +0.005 A 
ENDBRANCH   1   8
BRANCH   1  14
ATOM     14  C   LIG    1       -0.597   0.361   2.058  0.00  0.00    +0.225 C 
ATOM     15  O   LIG    1        0.386   0.389   2.816  0.00  0.00    -0.275 OA
ATOM     16  N   LIG    1       -1.891   0.339   2.606  0.00  0.00    -0.328 N 
ATOM     17  H   LIG    1       -2.028  -0.077   3.573  0.00  0.00    +0.145 HD
ATOM     18  H   LIG    1       -2.754   0.696   2.155  0.00  0.00    +0.145 HD
ENDBRANCH   1  14
BRANCH   1  19
ATOM     19  C   LIG    1        0.993   0.463   0.152  0.00  0.00    +0.044 C 
BRANCH  19  20
ATOM     20  C   LIG    1        1.979  -0.558   0.589  0.00  0.00    +0.055 C 
ATOM     21  C   LIG    1        1.683  -1.987   0.247  0.00  0.00    +0.024 C 
BRANCH  20  22
ATOM     22  N   LIG    1        3.256  -0.159  -0.015  0.00  0.00    -0.306 NA
ATOM     23  C   LIG    1        4.402  -0.664   0.645  0.00  0.00    +0.104 C 
ATOM     24  C   LIG    1        3.258  -0.165  -1.433  0.00  0.00    +0.104 C 
ENDBRANCH  20  22
ENDBRANCH  19  20
ENDBRANCH   1  19
TORSDOF 6
