REMARK  Name = molecules/NARQSHREEUXZBT-UHFFFAOYSA-N.pdb
REMARK                            x       y       z     vdW  Elec       q    Type
REMARK                         _______ _______ _______ _____ _____    ______ ____
ROOT
ATOM      1  C   LIG    1        1.041  -0.428  -0.151  0.00  0.00    +0.059 C 
ATOM      2  C   LIG    1       -0.335  -0.378   0.039  0.00  0.00    -0.005 C 
ATOM      3  C   LIG    1       -1.151  -1.403   0.453  0.00  0.00    +0.121 C 
ATOM      4  C   LIG    1       -2.475  -0.943   0.525  0.00  0.00    +0.034 C 
ATOM      5  C   LIG    1       -2.536   0.368   0.164  0.00  0.00    -0.039 C 
ATOM      6  C   LIG    1       -1.255   0.769  -0.145  0.00  0.00    -0.019 C 
ATOM      7  C   LIG    1       -0.846   2.033  -0.556  0.00  0.00    -0.010 C 
ATOM      8  C   LIG    1        0.451   2.515  -0.628  0.00  0.00    +0.045 C 
ATOM      9  C   LIG    1        1.637   1.970  -0.164  0.00  0.00    -0.018 C 
ATOM     10  C   LIG    1        1.946   0.607  -0.059  0.00  0.00    -0.062 C 
ENDROOT
BRANCH   3  11
ATOM     11  S   LIG    1       -0.543  -3.003   0.819  0.00  0.00    +0.110 S 
ATOM     12  O   LIG    1        0.451  -2.891   1.966  0.00  0.00    -0.142 OA
ATOM     13  O   LIG    1        0.147  -3.652  -0.320  0.00  0.00    -0.142 OA
BRANCH  11  14
ATOM     14  O   LIG    1       -1.858  -3.945   1.291  0.00  0.00    -0.250 OA
ATOM     15  H   LIG    1       -2.383  -4.154   0.473  0.00  0.00    +0.245 HD
ENDBRANCH  11  14
ENDBRANCH   3  11
BRANCH  10  16
ATOM     16  C   LIG    1        3.351   0.330   0.153  0.00  0.00    +0.009 C 
ATOM     17  C   LIG    1        3.831  -1.062   0.099  0.00  0.00    +0.012 C 
ATOM     18  C   LIG    1        4.238   1.098  -0.859  0.00  0.00    +0.012 C 
ENDBRANCH  10  16
BRANCH   5  19
ATOM     19  C   LIG    1       -3.749   1.213   0.099  0.00  0.00    +0.032 C 
ATOM     20  C   LIG    1       -4.974   0.388  -0.110  0.00  0.00    +0.009 C 
ENDBRANCH   5  19
TORSDOF 4
