REMARK  Name = molecules/NASXCEITKQITLD-UHFFFAOYSA-N.pdb
REMARK                            x       y       z     vdW  Elec       q    Type
REMARK                         _______ _______ _______ _____ _____    ______ ____
ROOT
ATOM      1  O   LIG    1       -0.078  -2.246  -0.203  0.00  0.00    -0.291 OA
ATOM      2  C   LIG    1       -0.467  -1.069  -0.358  0.00  0.00    +0.179 C 
ATOM      3  C   LIG    1       -1.843  -0.619  -0.180  0.00  0.00    +0.029 A 
ATOM      4  C   LIG    1       -1.862   0.758  -0.003  0.00  0.00    +0.029 A 
ATOM      5  C   LIG    1       -3.079   1.417   0.188  0.00  0.00    +0.012 A 
ATOM      6  C   LIG    1       -4.280   0.739   0.207  0.00  0.00    +0.001 A 
ATOM      7  C   LIG    1       -4.249  -0.627   0.031  0.00  0.00    +0.001 A 
ATOM      8  C   LIG    1       -0.478   1.208  -0.067  0.00  0.00    +0.179 C 
ATOM      9  O   LIG    1       -0.104   2.317   0.403  0.00  0.00    -0.291 OA
ATOM     10  C   LIG    1       -3.057  -1.287  -0.158  0.00  0.00    +0.012 A 
ATOM     11  C   LIG    1        0.287   0.156  -0.745  0.00  0.00    +0.161 C 
ENDROOT
BRANCH  11  12
ATOM     12  C   LIG    1        1.673   0.027  -0.257  0.00  0.00    -0.029 A 
ATOM     13  C   LIG    1        1.935  -0.171   1.089  0.00  0.00    +0.007 A 
ATOM     14  C   LIG    1        3.249  -0.284   1.487  0.00  0.00    +0.038 A 
ATOM     15  C   LIG    1        4.307  -0.209   0.607  0.00  0.00    +0.123 A 
ATOM     16  F   LIG    1        5.593  -0.323   1.015  0.00  0.00    -0.205 F 
ATOM     17  C   LIG    1        4.052  -0.013  -0.733  0.00  0.00    +0.038 A 
ATOM     18  C   LIG    1        2.720   0.104  -1.151  0.00  0.00    +0.007 A 
ENDBRANCH  11  12
TORSDOF 1
