REMARK  Name = molecules/NAVMQTYZDKMPEU-UHFFFAOYSA-N.pdb
REMARK                            x       y       z     vdW  Elec       q    Type
REMARK                         _______ _______ _______ _____ _____    ______ ____
ROOT
ATOM      1  C   LIG    1       -2.822   1.432  -0.840  0.00  0.00    -0.010 C 
ATOM      2  C   LIG    1       -1.723   0.674  -0.196  0.00  0.00    -0.037 A 
ATOM      3  C   LIG    1       -1.946  -0.532   0.405  0.00  0.00    -0.038 A 
ATOM      4  C   LIG    1       -0.874  -1.179   0.985  0.00  0.00    +0.008 A 
ATOM      5  C   LIG    1        0.412  -0.616   0.960  0.00  0.00    -0.042 A 
ATOM      6  C   LIG    1        1.528  -1.339   1.642  0.00  0.00    +0.044 C 
ATOM      7  C   LIG    1        0.642   0.592   0.358  0.00  0.00    -0.015 A 
ATOM      8  C   LIG    1       -3.262  -1.171   0.465  0.00  0.00    -0.010 C 
ATOM      9  C   LIG    1       -3.602  -1.384   1.933  0.00  0.00    +0.016 C 
ATOM     10  C   LIG    1       -3.103  -2.575  -0.136  0.00  0.00    +0.016 C 
ATOM     11  C   LIG    1       -4.340  -0.488  -0.285  0.00  0.00    +0.012 C 
ATOM     12  C   LIG    1       -0.463   1.229  -0.223  0.00  0.00    +0.013 A 
ATOM     13  C   LIG    1       -4.182   0.996  -0.417  0.00  0.00    +0.012 C 
ATOM     14  C   LIG    1       -2.659   2.894  -0.437  0.00  0.00    +0.016 C 
ATOM     15  C   LIG    1       -2.610   1.371  -2.333  0.00  0.00    +0.016 C 
ENDROOT
BRANCH   7  16
ATOM     16  C   LIG    1        1.935   1.276   0.302  0.00  0.00    -0.018 C 
ATOM     17  C   LIG    1        1.961   2.605   0.501  0.00  0.00    +0.018 C 
BRANCH  16  18
ATOM     18  C   LIG    1        3.173   0.591   0.028  0.00  0.00    -0.018 A 
ATOM     19  C   LIG    1        4.351   1.117   0.504  0.00  0.00    +0.009 A 
ATOM     20  C   LIG    1        5.554   0.473   0.200  0.00  0.00    +0.015 A 
ATOM     21  C   LIG    1        5.593  -0.672  -0.562  0.00  0.00    +0.059 A 
ATOM     22  C   LIG    1        4.391  -1.168  -1.020  0.00  0.00    +0.015 A 
ATOM     23  C   LIG    1        3.183  -0.547  -0.732  0.00  0.00    +0.009 A 
BRANCH  21  24
ATOM     24  C   LIG    1        6.852  -1.329  -0.868  0.00  0.00    +0.337 C 
ATOM     25  O   LIG    1        7.920  -0.841  -0.429  0.00  0.00    -0.245 OA
BRANCH  24  26
ATOM     26  O   LIG    1        6.915  -2.481  -1.631  0.00  0.00    -0.477 OA
ATOM     27  H   LIG    1        6.677  -2.505  -2.603  0.00  0.00    +0.295 HD
ENDBRANCH  24  26
ENDBRANCH  21  24
ENDBRANCH  16  18
ENDBRANCH   7  16
TORSDOF 4
