REMARK  Name = molecules/NBOMNTLFRHMDEZ-UHFFFAOYSA-N.pdb
REMARK                            x       y       z     vdW  Elec       q    Type
REMARK                         _______ _______ _______ _____ _____    ______ ____
ROOT
ATOM      1  C   LIG    1        0.581   0.021   0.144  0.00  0.00    +0.072 A 
ATOM      2  C   LIG    1       -0.406   0.942   0.415  0.00  0.00    +0.019 A 
ATOM      3  C   LIG    1       -1.731   0.637   0.144  0.00  0.00    +0.015 A 
ATOM      4  C   LIG    1       -2.103  -0.581  -0.397  0.00  0.00    +0.001 A 
ATOM      5  C   LIG    1       -1.109  -1.511  -0.670  0.00  0.00    +0.001 A 
ATOM      6  C   LIG    1        0.209  -1.210  -0.402  0.00  0.00    +0.016 A 
ENDROOT
BRANCH   1   7
ATOM      7  C   LIG    1        1.980   0.312   0.417  0.00  0.00    +0.338 C 
ATOM      8  O   LIG    1        2.273   1.428   0.908  0.00  0.00    -0.245 OA
BRANCH   7   9
ATOM      9  O   LIG    1        3.009  -0.579   0.164  0.00  0.00    -0.477 OA
ATOM     10  H   LIG    1        2.867  -1.571   0.059  0.00  0.00    +0.295 HD
ENDBRANCH   7   9
ENDBRANCH   1   7
BRANCH   2  11
ATOM     11  S   LIG    1        0.086   2.514   1.115  0.00  0.00    -0.142 S 
ATOM     12  H   LIG    1        0.343   3.376   0.026  0.00  0.00    +0.107 HD
ENDBRANCH   2  11
TORSDOF 3
