REMARK  Name = molecules/NBQNWMBBSKPBAY-LTFXXXRZSA-N.pdb
REMARK                            x       y       z     vdW  Elec       q    Type
REMARK                         _______ _______ _______ _____ _____    ______ ____
ROOT
ATOM      1  C   LIG    1        0.638  -2.085   1.162  0.00  0.00    +0.150 C 
ENDROOT
BRANCH   1   2
ATOM      2  O   LIG    1        0.589  -1.095   0.198  0.00  0.00    -0.389 OA
ATOM      3  H   LIG    1        0.402  -0.232   0.663  0.00  0.00    +0.210 HD
ENDBRANCH   1   2
BRANCH   1   4
ATOM      4  C   LIG    1       -0.642  -2.479   1.807  0.00  0.00    +0.146 C 
BRANCH   4   5
ATOM      5  N   LIG    1       -1.712  -2.947   1.010  0.00  0.00    -0.267 N 
ATOM      6  C   LIG    1       -1.763  -4.324   0.708  0.00  0.00    +0.217 C 
ATOM      7  O   LIG    1       -0.860  -5.153   1.007  0.00  0.00    -0.276 OA
ATOM      8  C   LIG    1       -2.975  -4.834  -0.015  0.00  0.00    +0.109 C 
BRANCH   5   9
ATOM      9  C   LIG    1       -2.815  -2.160   0.549  0.00  0.00    +0.064 A 
ATOM     10  C   LIG    1       -3.802  -1.833   1.513  0.00  0.00    +0.049 A 
ATOM     11  I   LIG    1       -3.569  -2.704   3.435  0.00  0.00    -0.041 I 
ATOM     12  C   LIG    1       -4.891  -1.066   1.222  0.00  0.00    +0.065 A 
ATOM     13  C   LIG    1       -4.976  -0.618  -0.092  0.00  0.00    +0.040 A 
ATOM     14  I   LIG    1       -6.614   0.581  -0.646  0.00  0.00    -0.042 I 
ATOM     15  C   LIG    1       -3.998  -0.941  -1.049  0.00  0.00    +0.065 A 
ATOM     16  C   LIG    1       -2.930  -1.712  -0.724  0.00  0.00    +0.049 A 
ATOM     17  I   LIG    1       -1.560  -2.420  -2.147  0.00  0.00    -0.041 I 
BRANCH  15  18
ATOM     18  C   LIG    1       -4.116  -0.293  -2.339  0.00  0.00    +0.246 C 
ATOM     19  O   LIG    1       -5.292  -0.096  -2.808  0.00  0.00    -0.270 OA
ATOM     20  N   LIG    1       -3.047   0.165  -3.136  0.00  0.00    -0.309 N 
ATOM     21  H   LIG    1       -2.067   0.038  -2.758  0.00  0.00    +0.149 HD
BRANCH  20  22
ATOM     22  C   LIG    1       -3.210   0.810  -4.377  0.00  0.00    +0.138 C 
BRANCH  22  23
ATOM     23  C   LIG    1       -3.821   0.115  -5.532  0.00  0.00    +0.157 C 
BRANCH  23  24
ATOM     24  O   LIG    1       -5.074  -0.394  -5.351  0.00  0.00    -0.388 OA
ATOM     25  H   LIG    1       -5.792   0.214  -5.603  0.00  0.00    +0.210 HD
ENDBRANCH  23  24
BRANCH  23  26
ATOM     26  C   LIG    1       -2.911  -0.875  -6.237  0.00  0.00    +0.188 C 
BRANCH  26  27
ATOM     27  O   LIG    1       -2.837  -2.034  -5.491  0.00  0.00    -0.392 OA
ATOM     28  H   LIG    1       -2.745  -2.825  -6.097  0.00  0.00    +0.210 HD
ENDBRANCH  26  27
ENDBRANCH  23  26
ENDBRANCH  22  23
ENDBRANCH  20  22
ENDBRANCH  15  18
BRANCH  12  29
ATOM     29  C   LIG    1       -5.947  -0.665   2.155  0.00  0.00    +0.246 C 
ATOM     30  N   LIG    1       -5.740  -0.504   3.526  0.00  0.00    -0.309 N 
ATOM     31  H   LIG    1       -4.783  -0.589   3.954  0.00  0.00    +0.149 HD
ATOM     32  O   LIG    1       -7.089  -0.471   1.607  0.00  0.00    -0.270 OA
BRANCH  30  33
ATOM     33  C   LIG    1       -6.793  -0.156   4.449  0.00  0.00    +0.138 C 
BRANCH  33  34
ATOM     34  C   LIG    1       -7.912  -1.137   4.550  0.00  0.00    +0.157 C 
BRANCH  34  35
ATOM     35  O   LIG    1       -8.630  -1.341   3.383  0.00  0.00    -0.388 OA
ATOM     36  H   LIG    1       -8.620  -2.274   3.066  0.00  0.00    +0.210 HD
ENDBRANCH  34  35
BRANCH  34  37
ATOM     37  C   LIG    1       -8.883  -0.671   5.621  0.00  0.00    +0.188 C 
BRANCH  37  38
ATOM     38  O   LIG    1       -9.470   0.516   5.205  0.00  0.00    -0.392 OA
ATOM     39  H   LIG    1      -10.370   0.327   4.833  0.00  0.00    +0.210 HD
ENDBRANCH  37  38
ENDBRANCH  34  37
ENDBRANCH  33  34
ENDBRANCH  30  33
ENDBRANCH  12  29
ENDBRANCH   5   9
ENDBRANCH   4   5
ENDBRANCH   1   4
BRANCH   1  40
ATOM     40  C   LIG    1        1.542  -1.430   2.254  0.00  0.00    +0.146 C 
BRANCH  40  41
ATOM     41  N   LIG    1        2.860  -1.206   1.804  0.00  0.00    -0.267 N 
ATOM     42  C   LIG    1        3.841  -2.249   2.062  0.00  0.00    +0.217 C 
ATOM     43  C   LIG    1        3.445  -3.499   2.740  0.00  0.00    +0.109 C 
ATOM     44  O   LIG    1        5.046  -2.154   1.734  0.00  0.00    -0.276 OA
BRANCH  41  45
ATOM     45  C   LIG    1        3.402  -0.115   1.086  0.00  0.00    +0.064 A 
ATOM     46  C   LIG    1        3.480   1.162   1.572  0.00  0.00    +0.049 A 
ATOM     47  I   LIG    1        2.565   1.504   3.437  0.00  0.00    -0.041 I 
ATOM     48  C   LIG    1        4.048   2.202   0.893  0.00  0.00    +0.065 A 
ATOM     49  C   LIG    1        4.577   1.908  -0.398  0.00  0.00    +0.040 A 
ATOM     50  C   LIG    1        4.529   0.663  -0.947  0.00  0.00    +0.065 A 
ATOM     51  I   LIG    1        5.551   3.553  -1.338  0.00  0.00    -0.042 I 
ATOM     52  C   LIG    1        3.925  -0.351  -0.168  0.00  0.00    +0.049 A 
ATOM     53  I   LIG    1        3.847  -2.276  -1.075  0.00  0.00    -0.041 I 
BRANCH  48  54
ATOM     54  C   LIG    1        4.221   3.542   1.409  0.00  0.00    +0.246 C 
ATOM     55  N   LIG    1        4.394   3.964   2.728  0.00  0.00    -0.309 N 
ATOM     56  H   LIG    1        4.439   3.224   3.490  0.00  0.00    +0.149 HD
ATOM     57  O   LIG    1        4.223   4.472   0.521  0.00  0.00    -0.270 OA
BRANCH  55  58
ATOM     58  C   LIG    1        4.569   5.313   3.191  0.00  0.00    +0.138 C 
BRANCH  58  59
ATOM     59  C   LIG    1        5.781   6.027   2.714  0.00  0.00    +0.157 C 
BRANCH  59  60
ATOM     60  O   LIG    1        5.846   6.185   1.355  0.00  0.00    -0.388 OA
ATOM     61  H   LIG    1        6.631   5.761   0.942  0.00  0.00    +0.210 HD
ENDBRANCH  59  60
BRANCH  59  62
ATOM     62  C   LIG    1        5.749   7.446   3.303  0.00  0.00    +0.188 C 
BRANCH  62  63
ATOM     63  O   LIG    1        4.651   8.146   2.854  0.00  0.00    -0.392 OA
ATOM     64  H   LIG    1        4.878   8.549   1.976  0.00  0.00    +0.210 HD
ENDBRANCH  62  63
ENDBRANCH  59  62
ENDBRANCH  58  59
ENDBRANCH  55  58
ENDBRANCH  48  54
BRANCH  50  65
ATOM     65  C   LIG    1        5.098   0.320  -2.222  0.00  0.00    +0.246 C 
ATOM     66  O   LIG    1        5.498  -0.899  -2.307  0.00  0.00    -0.270 OA
ATOM     67  N   LIG    1        5.277   1.090  -3.368  0.00  0.00    -0.309 N 
ATOM     68  H   LIG    1        4.900   2.097  -3.293  0.00  0.00    +0.149 HD
BRANCH  67  69
ATOM     69  C   LIG    1        5.842   0.715  -4.623  0.00  0.00    +0.138 C 
BRANCH  69  70
ATOM     70  C   LIG    1        5.176  -0.276  -5.468  0.00  0.00    +0.157 C 
BRANCH  70  71
ATOM     71  O   LIG    1        3.864   0.055  -5.876  0.00  0.00    -0.388 OA
ATOM     72  H   LIG    1        3.260  -0.182  -5.133  0.00  0.00    +0.210 HD
ENDBRANCH  70  71
BRANCH  70  73
ATOM     73  C   LIG    1        5.272  -1.715  -5.086  0.00  0.00    +0.188 C 
BRANCH  73  74
ATOM     74  O   LIG    1        4.995  -2.515  -6.242  0.00  0.00    -0.392 OA
ATOM     75  H   LIG    1        4.486  -3.325  -5.936  0.00  0.00    +0.210 HD
ENDBRANCH  73  74
ENDBRANCH  70  73
ENDBRANCH  69  70
ENDBRANCH  67  69
ENDBRANCH  50  65
ENDBRANCH  41  45
ENDBRANCH  40  41
ENDBRANCH   1  40
TORSDOF 31
