REMARK  Name = molecules/NBRBXGKOEOGLOI-UHFFFAOYSA-N.pdb
REMARK                            x       y       z     vdW  Elec       q    Type
REMARK                         _______ _______ _______ _____ _____    ______ ____
ROOT
ATOM      1  C   LIG    1       -0.783   0.188  -0.312  0.00  0.00    +0.026 A 
ATOM      2  C   LIG    1       -1.442  -0.981   0.108  0.00  0.00    +0.132 A 
ATOM      3  C   LIG    1       -2.786  -0.973   0.333  0.00  0.00    +0.002 A 
ATOM      4  C   LIG    1       -3.460   0.235   0.128  0.00  0.00    +0.034 A 
ATOM      5  C   LIG    1       -2.812   1.366  -0.280  0.00  0.00    +0.052 A 
ATOM      6  C   LIG    1       -1.463   1.369  -0.509  0.00  0.00    +0.038 A 
ENDROOT
BRANCH   1  13
ATOM      7  C   LIG    1        3.414  -0.078  -0.930  0.00  0.00    -0.016 A 
ATOM      8  C   LIG    1        2.821  -0.620   0.186  0.00  0.00    -0.017 A 
ATOM      9  C   LIG    1        3.635  -1.266   1.120  0.00  0.00    +0.010 A 
ATOM     10  C   LIG    1        5.005  -1.337   0.891  0.00  0.00    +0.025 A 
ATOM     11  C   LIG    1        5.577  -0.786  -0.234  0.00  0.00    +0.048 A 
ATOM     12  C   LIG    1        1.454  -0.535   0.389  0.00  0.00    +0.017 A 
ATOM     13  C   LIG    1        0.661   0.100  -0.532  0.00  0.00    -0.014 A 
ATOM     14  C   LIG    1        1.228   0.648  -1.650  0.00  0.00    +0.009 A 
ATOM     15  C   LIG    1        4.791  -0.149  -1.162  0.00  0.00    +0.033 A 
ATOM     16  C   LIG    1        2.587   0.552  -1.834  0.00  0.00    +0.009 A 
BRANCH  11  17
ATOM     17  N   LIG    1        6.972  -0.862  -0.461  0.00  0.00    -0.221 N 
ATOM     18  H   LIG    1        7.437  -1.783  -0.298  0.00  0.00    +0.173 HD
BRANCH  17  19
ATOM     19  S   LIG    1        7.831   0.517  -0.981  0.00  0.00    +0.040 S 
ATOM     20  C   LIG    1        7.667   1.772   0.292  0.00  0.00    +0.218 C 
ATOM     21  O   LIG    1        9.274   0.148  -1.173  0.00  0.00    -0.155 OA
ATOM     22  O   LIG    1        7.344   1.099  -2.261  0.00  0.00    -0.155 OA
ENDBRANCH  17  19
ENDBRANCH  11  17
ENDBRANCH   1  13
BRANCH   5  23
ATOM     23  N   LIG    1       -3.521   2.578  -0.481  0.00  0.00    -0.269 N 
ATOM     24  C   LIG    1       -3.088   3.717   0.098  0.00  0.00    +0.334 A 
ATOM     25  O   LIG    1       -2.072   3.711   0.806  0.00  0.00    -0.246 OA
ATOM     26  N   LIG    1       -3.755   4.876  -0.086  0.00  0.00    -0.275 N 
ATOM     27  H   LIG    1       -3.414   5.743   0.362  0.00  0.00    +0.173 HD
ATOM     28  C   LIG    1       -4.860   4.947  -0.841  0.00  0.00    +0.254 A 
ATOM     29  O   LIG    1       -5.486   6.044  -1.012  0.00  0.00    -0.268 OA
ATOM     30  C   LIG    1       -5.321   3.806  -1.440  0.00  0.00    +0.088 A 
ATOM     31  C   LIG    1       -4.628   2.633  -1.241  0.00  0.00    +0.101 A 
ENDBRANCH   5  23
BRANCH   3  32
ATOM     32  C   LIG    1       -3.564  -2.115   0.778  0.00  0.00    -0.009 C 
ATOM     33  C   LIG    1       -3.032  -2.560   2.137  0.00  0.00    +0.015 C 
ATOM     34  C   LIG    1       -5.023  -1.714   1.054  0.00  0.00    +0.015 C 
ATOM     35  C   LIG    1       -3.576  -3.314  -0.098  0.00  0.00    +0.015 C 
ENDBRANCH   3  32
BRANCH   2  36
ATOM     36  O   LIG    1       -0.728  -2.148   0.297  0.00  0.00    -0.494 OA
ATOM     37  C   LIG    1       -0.509  -3.022  -0.782  0.00  0.00    +0.277 C 
ENDBRANCH   2  36
TORSDOF 6
