REMARK  Name = molecules/NCDNCNXCDXHOMX-XGKFQTDJSA-N.pdb
REMARK                            x       y       z     vdW  Elec       q    Type
REMARK                         _______ _______ _______ _____ _____    ______ ____
ROOT
ATOM      1  C   LIG    1       -1.382  -1.758  -1.797  0.00  0.00    +0.080 C 
ENDROOT
BRANCH   1   2
ATOM      2  N   LIG    1        0.021  -1.664  -1.975  0.00  0.00    -0.311 N 
ATOM      3  C   LIG    1        0.901  -0.659  -1.548  0.00  0.00    +0.234 C 
ATOM      4  O   LIG    1        0.420   0.314  -0.867  0.00  0.00    -0.274 OA
ATOM      5  H   LIG    1        0.461  -2.479  -2.534  0.00  0.00    +0.149 HD
BRANCH   3   6
ATOM      6  C   LIG    1        2.365  -0.640  -1.831  0.00  0.00    +0.163 C 
BRANCH   6   7
ATOM      7  N   LIG    1        3.114  -0.272  -0.657  0.00  0.00    -0.288 N 
ATOM      8  H   LIG    1        3.173  -1.007   0.118  0.00  0.00    +0.151 HD
ATOM      9  C   LIG    1        3.779   0.940  -0.405  0.00  0.00    +0.303 C 
ATOM     10  N   LIG    1        4.489   1.186   0.800  0.00  0.00    -0.283 N 
ATOM     11  C   LIG    1        4.515   0.140   1.814  0.00  0.00    +0.134 C 
ATOM     12  O   LIG    1        3.739   1.841  -1.293  0.00  0.00    -0.253 OA
BRANCH  10  13
ATOM     13  C   LIG    1        5.206   2.400   1.109  0.00  0.00    +0.164 C 
BRANCH  13  14
ATOM     14  C   LIG    1        6.651   2.261   0.658  0.00  0.00    +0.066 A 
ATOM     15  N   LIG    1        7.628   2.891   1.220  0.00  0.00    -0.247 NA
ATOM     16  C   LIG    1        8.860   2.738   0.782  0.00  0.00    +0.081 A 
ATOM     17  S   LIG    1        8.649   1.633  -0.510  0.00  0.00    -0.080 S 
ATOM     18  C   LIG    1        6.957   1.437  -0.400  0.00  0.00    +0.071 A 
BRANCH  16  19
ATOM     19  C   LIG    1       10.143   3.353   1.289  0.00  0.00    +0.038 C 
ATOM     20  C   LIG    1       11.267   2.378   1.200  0.00  0.00    +0.014 C 
ATOM     21  C   LIG    1       10.434   4.483   0.289  0.00  0.00    +0.014 C 
ENDBRANCH  16  19
ENDBRANCH  13  14
ENDBRANCH  10  13
ENDBRANCH   6   7
BRANCH   6  22
ATOM     22  C   LIG    1        2.935  -1.794  -2.541  0.00  0.00    +0.012 C 
ATOM     23  C   LIG    1        2.749  -3.064  -1.760  0.00  0.00    +0.009 C 
ATOM     24  C   LIG    1        4.426  -1.565  -2.845  0.00  0.00    +0.009 C 
ENDBRANCH   6  22
ENDBRANCH   3   6
ENDBRANCH   1   2
BRANCH   1  25
ATOM     25  C   LIG    1       -1.824  -3.163  -1.824  0.00  0.00    +0.057 C 
BRANCH  25  26
ATOM     26  C   LIG    1       -1.474  -3.995  -0.660  0.00  0.00    -0.046 A 
ATOM     27  C   LIG    1       -2.257  -4.125   0.447  0.00  0.00    +0.004 A 
ATOM     28  C   LIG    1       -1.903  -4.915   1.544  0.00  0.00    +0.000 A 
ATOM     29  C   LIG    1       -0.721  -5.607   1.542  0.00  0.00    +0.000 A 
ATOM     30  C   LIG    1        0.092  -5.500   0.442  0.00  0.00    +0.000 A 
ATOM     31  C   LIG    1       -0.271  -4.718  -0.629  0.00  0.00    +0.004 A 
ENDBRANCH  25  26
ENDBRANCH   1  25
BRANCH   1  32
ATOM     32  C   LIG    1       -1.959  -0.913  -0.660  0.00  0.00    +0.055 C 
BRANCH  32  33
ATOM     33  C   LIG    1       -3.461  -0.930  -0.835  0.00  0.00    +0.137 C 
BRANCH  33  34
ATOM     34  O   LIG    1       -3.791  -0.402  -2.113  0.00  0.00    -0.390 OA
ATOM     35  H   LIG    1       -4.687  -0.697  -2.387  0.00  0.00    +0.210 HD
ENDBRANCH  33  34
BRANCH  33  36
ATOM     36  C   LIG    1       -4.247  -0.141   0.143  0.00  0.00    +0.109 C 
BRANCH  36  37
ATOM     37  N   LIG    1       -5.660  -0.371  -0.169  0.00  0.00    -0.275 N 
ATOM     38  H   LIG    1       -6.031  -1.290   0.193  0.00  0.00    +0.152 HD
ATOM     39  C   LIG    1       -6.502   0.482  -0.867  0.00  0.00    +0.401 C 
ATOM     40  O   LIG    1       -6.098   1.570  -1.311  0.00  0.00    -0.226 OA
BRANCH  39  41
ATOM     41  O   LIG    1       -7.826   0.132  -1.086  0.00  0.00    -0.445 OA
BRANCH  41  42
ATOM     42  C   LIG    1       -8.667   0.978  -1.799  0.00  0.00    +0.278 C 
BRANCH  42  43
ATOM     43  C   LIG    1       -8.810   2.350  -1.202  0.00  0.00    +0.046 A 
ATOM     44  S   LIG    1       -9.684   2.902   0.157  0.00  0.00    -0.077 S 
ATOM     45  C   LIG    1       -9.271   4.556   0.075  0.00  0.00    +0.156 A 
ATOM     46  N   LIG    1       -8.484   4.604  -0.990  0.00  0.00    -0.255 NA
ATOM     47  C   LIG    1       -8.234   3.520  -1.650  0.00  0.00    +0.125 A 
ENDBRANCH  42  43
ENDBRANCH  41  42
ENDBRANCH  39  41
ENDBRANCH  36  37
BRANCH  36  48
ATOM     48  C   LIG    1       -4.029  -0.377   1.581  0.00  0.00    +0.060 C 
BRANCH  48  49
ATOM     49  C   LIG    1       -4.907   0.499   2.438  0.00  0.00    -0.046 A 
ATOM     50  C   LIG    1       -6.142  -0.018   2.843  0.00  0.00    +0.004 A 
ATOM     51  C   LIG    1       -6.979   0.780   3.622  0.00  0.00    +0.000 A 
ATOM     52  C   LIG    1       -6.555   2.045   3.957  0.00  0.00    +0.000 A 
ATOM     53  C   LIG    1       -5.325   2.550   3.549  0.00  0.00    +0.000 A 
ATOM     54  C   LIG    1       -4.487   1.774   2.781  0.00  0.00    +0.004 A 
ENDBRANCH  48  49
ENDBRANCH  36  48
ENDBRANCH  33  36
ENDBRANCH  32  33
ENDBRANCH   1  32
TORSDOF 19
