REMARK  Name = molecules/NCNRHFGMJRPRSK-UHFFFAOYSA-N.pdb
REMARK                            x       y       z     vdW  Elec       q    Type
REMARK                         _______ _______ _______ _____ _____    ______ ____
ROOT
ATOM      1  C   LIG    1       -0.347  -2.203  -0.203  0.00  0.00    +0.109 A 
ATOM      2  C   LIG    1        0.521  -2.899   0.609  0.00  0.00    +0.029 A 
ATOM      3  C   LIG    1        1.809  -2.495   0.811  0.00  0.00    +0.002 A 
ATOM      4  C   LIG    1        2.274  -1.343   0.182  0.00  0.00    +0.008 A 
ATOM      5  C   LIG    1        1.464  -0.607  -0.635  0.00  0.00    -0.023 A 
ATOM      6  C   LIG    1        0.125  -1.074  -0.813  0.00  0.00    +0.036 A 
ENDROOT
BRANCH   1   7
ATOM      7  S   LIG    1       -1.970  -2.792  -0.401  0.00  0.00    +0.072 S 
ATOM      8  O   LIG    1       -1.937  -4.302  -0.214  0.00  0.00    -0.150 OA
ATOM      9  O   LIG    1       -2.499  -2.535  -1.775  0.00  0.00    -0.150 OA
BRANCH   7  10
ATOM     10  N   LIG    1       -3.052  -2.167   0.764  0.00  0.00    -0.216 N 
ATOM     11  H   LIG    1       -3.571  -2.757   1.450  0.00  0.00    +0.174 HD
BRANCH  10  13
ATOM     12  C   LIG    1       -3.461   0.014  -0.325  0.00  0.00    +0.024 A 
ATOM     13  C   LIG    1       -3.256  -0.760   0.800  0.00  0.00    +0.048 A 
ATOM     14  C   LIG    1       -3.250  -0.133   2.030  0.00  0.00    +0.024 A 
ATOM     15  C   LIG    1       -3.442   1.245   2.166  0.00  0.00    +0.002 A 
ATOM     16  C   LIG    1       -3.646   2.014   1.037  0.00  0.00    +0.000 A 
ATOM     17  C   LIG    1       -3.652   1.386  -0.192  0.00  0.00    +0.002 A 
ENDBRANCH  10  13
ENDBRANCH   7  10
ENDBRANCH   1   7
BRANCH   5  18
ATOM     18  C   LIG    1        1.874   0.558  -1.334  0.00  0.00    +0.013 C 
ATOM     19  C   LIG    1        2.880   1.321  -1.351  0.00  0.00    +0.070 C 
BRANCH  19  20
ATOM     20  C   LIG    1        4.149   1.478  -0.714  0.00  0.00    +0.259 C 
ATOM     21  O   LIG    1        4.623   0.774   0.165  0.00  0.00    -0.269 OA
ATOM     22  N   LIG    1        5.019   2.587  -1.119  0.00  0.00    -0.194 N 
ATOM     23  H   LIG    1        4.683   3.221  -1.856  0.00  0.00    +0.183 HD
BRANCH  22  24
ATOM     24  O   LIG    1        6.215   2.787  -0.561  0.00  0.00    -0.295 OA
ATOM     25  H   LIG    1        6.804   2.014  -0.603  0.00  0.00    +0.241 HD
ENDBRANCH  22  24
ENDBRANCH  19  20
ENDBRANCH   5  18
TORSDOF 6
