REMARK  Name = molecules/NCUCGYYHUFIYNU-QGZVFWFLSA-N.pdb
REMARK                            x       y       z     vdW  Elec       q    Type
REMARK                         _______ _______ _______ _____ _____    ______ ____
ROOT
ATOM      1  C   LIG    1        0.694   0.180   0.353  0.00  0.00    +0.065 C 
ATOM      2  C   LIG    1       -0.764  -0.012   0.556  0.00  0.00    +0.098 C 
ATOM      3  C   LIG    1       -1.552   1.201   0.447  0.00  0.00    +0.065 C 
ATOM      4  C   LIG    1       -0.978   2.380   0.230  0.00  0.00    +0.016 C 
ATOM      5  C   LIG    1       -1.868   3.584   0.145  0.00  0.00    +0.061 C 
ATOM      6  N   LIG    1        0.412   2.542   0.081  0.00  0.00    -0.321 N 
ATOM      7  H   LIG    1        0.869   3.483  -0.082  0.00  0.00    +0.152 HD
ATOM      8  C   LIG    1        1.222   1.354   0.159  0.00  0.00    +0.016 C 
ATOM      9  C   LIG    1        2.700   1.528  -0.019  0.00  0.00    +0.061 C 
ENDROOT
BRANCH   2  10
ATOM     10  C   LIG    1       -1.304  -1.187  -0.112  0.00  0.00    -0.005 A 
ATOM     11  C   LIG    1       -1.983  -2.133   0.670  0.00  0.00    +0.007 A 
ATOM     12  C   LIG    1       -2.475  -3.308   0.183  0.00  0.00    +0.000 A 
ATOM     13  C   LIG    1       -2.310  -3.614  -1.155  0.00  0.00    +0.002 A 
ATOM     14  C   LIG    1       -1.663  -2.736  -1.954  0.00  0.00    +0.033 A 
ATOM     15  C   LIG    1       -1.171  -1.543  -1.433  0.00  0.00    +0.130 A 
BRANCH  15  16
ATOM     16  N   LIG    1       -0.517  -0.688  -2.316  0.00  0.00    +0.057 N 
ATOM     17  O   LIG    1       -0.535   0.537  -2.307  0.00  0.00    -0.126 OA
ATOM     18  O   LIG    1        0.216  -1.262  -3.352  0.00  0.00    -0.126 OA
ENDBRANCH  15  16
ENDBRANCH   2  10
BRANCH   1  19
ATOM     19  C   LIG    1        1.559  -0.994   0.398  0.00  0.00    +0.338 C 
ATOM     20  O   LIG    1        1.082  -2.157   0.584  0.00  0.00    -0.245 OA
BRANCH  19  21
ATOM     21  O   LIG    1        2.915  -0.916   0.244  0.00  0.00    -0.454 OA
BRANCH  21  22
ATOM     22  C   LIG    1        3.763  -2.045   0.284  0.00  0.00    +0.306 C 
BRANCH  22  23
ATOM     23  C   LIG    1        5.156  -1.620   0.092  0.00  0.00    +0.167 C 
ATOM     24  O   LIG    1        5.987  -2.547   0.105  0.00  0.00    -0.294 OA
ATOM     25  C   LIG    1        5.635  -0.254  -0.105  0.00  0.00    +0.089 C 
ENDBRANCH  22  23
ENDBRANCH  21  22
ENDBRANCH  19  21
ENDBRANCH   1  19
BRANCH   3  26
ATOM     26  C   LIG    1       -3.030   1.142   0.567  0.00  0.00    +0.337 C 
ATOM     27  O   LIG    1       -3.562   0.041   0.765  0.00  0.00    -0.245 OA
BRANCH  26  28
ATOM     28  O   LIG    1       -3.850   2.227   0.475  0.00  0.00    -0.465 OA
ATOM     29  C   LIG    1       -5.260   2.176   0.590  0.00  0.00    +0.280 C 
ENDBRANCH  26  28
ENDBRANCH   3  26
TORSDOF 8
