REMARK  Name = molecules/NCXMLFZGDNKEPB-UDMGDOCSSA-N.pdb
REMARK                            x       y       z     vdW  Elec       q    Type
REMARK                         _______ _______ _______ _____ _____    ______ ____
ROOT
ATOM      1  C   LIG    1       -2.375   2.557   1.172  0.00  0.00    +0.155 C 
ATOM      2  C   LIG    1       -1.448   3.641   1.593  0.00  0.00    +0.136 C 
ATOM      3  C   LIG    1       -0.998   4.402   0.389  0.00  0.00    +0.097 C 
ATOM      4  C   LIG    1       -0.518   3.487  -0.716  0.00  0.00    +0.172 C 
ATOM      5  C   LIG    1        0.894   3.013  -0.435  0.00  0.00    +0.096 C 
ATOM      6  C   LIG    1        1.887   4.090  -0.847  0.00  0.00    +0.122 C 
ATOM      7  C   LIG    1        3.125   3.474  -1.476  0.00  0.00    +0.065 C 
ATOM      8  C   LIG    1        3.603   2.320  -0.658  0.00  0.00    +0.150 C 
ATOM      9  C   LIG    1        4.829   1.685  -1.137  0.00  0.00    +0.152 C 
ATOM     10  C   LIG    1        5.654   1.203  -0.005  0.00  0.00    +0.041 C 
ATOM     11  C   LIG    1        6.865   0.660  -0.155  0.00  0.00    +0.118 C 
ATOM     12  C   LIG    1        7.173  -0.362  -1.147  0.00  0.00    +0.312 C 
ATOM     13  O   LIG    1        6.358  -1.473  -1.370  0.00  0.00    -0.461 OA
ATOM     14  C   LIG    1        5.867  -2.308  -0.345  0.00  0.00    +0.174 C 
ATOM     15  C   LIG    1        6.710  -3.564  -0.320  0.00  0.00    +0.052 C 
ATOM     16  C   LIG    1        4.436  -2.683  -0.690  0.00  0.00    +0.048 C 
ATOM     17  C   LIG    1        3.852  -3.553   0.387  0.00  0.00    -0.000 C 
ATOM     18  C   LIG    1        3.347  -3.025   1.494  0.00  0.00    -0.000 C 
ATOM     19  C   LIG    1        2.616  -1.756   1.519  0.00  0.00    -0.000 C 
ATOM     20  C   LIG    1        1.727  -1.411   0.593  0.00  0.00    -0.000 C 
ATOM     21  C   LIG    1        0.664  -2.310   0.126  0.00  0.00    +0.000 C 
ATOM     22  C   LIG    1       -0.126  -2.996   0.908  0.00  0.00    +0.000 C 
ATOM     23  C   LIG    1       -0.794  -2.446   2.095  0.00  0.00    +0.002 C 
ATOM     24  C   LIG    1       -1.261  -1.209   2.136  0.00  0.00    +0.027 C 
ATOM     25  C   LIG    1       -1.898  -0.516   1.000  0.00  0.00    +0.128 C 
ATOM     26  C   LIG    1       -1.066   0.621   0.456  0.00  0.00    +0.064 C 
ATOM     27  O   LIG    1        8.244  -0.214  -1.833  0.00  0.00    -0.250 OA
ATOM     28  O   LIG    1        3.631   1.024  -1.306  0.00  0.00    -0.368 OA
ATOM     29  O   LIG    1       -1.386   2.491  -1.033  0.00  0.00    -0.344 OA
ATOM     30  C   LIG    1       -1.939   1.781  -0.025  0.00  0.00    +0.140 C 
ENDROOT
BRANCH   1  31
ATOM     31  C   LIG    1       -3.764   3.080   0.925  0.00  0.00    +0.313 C 
ATOM     32  O   LIG    1       -4.356   2.842  -0.138  0.00  0.00    -0.251 OA
BRANCH  31  33
ATOM     33  O   LIG    1       -4.318   3.835   1.962  0.00  0.00    -0.480 OA
ATOM     34  H   LIG    1       -5.305   3.757   2.211  0.00  0.00    +0.295 HD
ENDBRANCH  31  33
ENDBRANCH   1  31
BRANCH   2  35
ATOM     35  O   LIG    1       -0.404   3.210   2.403  0.00  0.00    -0.391 OA
ATOM     36  H   LIG    1       -0.763   3.018   3.296  0.00  0.00    +0.210 HD
ENDBRANCH   2  35
BRANCH   6  37
ATOM     37  O   LIG    1        2.232   4.914   0.223  0.00  0.00    -0.392 OA
ATOM     38  H   LIG    1        2.237   5.878  -0.025  0.00  0.00    +0.210 HD
ENDBRANCH   6  37
BRANCH   4  39
ATOM     39  O   LIG    1       -0.408   4.320  -1.858  0.00  0.00    -0.364 OA
ATOM     40  H   LIG    1       -0.081   3.832  -2.629  0.00  0.00    +0.213 HD
ENDBRANCH   4  39
BRANCH  25  41
ATOM     41  O   LIG    1       -2.251  -1.421  -0.025  0.00  0.00    -0.345 OA
BRANCH  41  42
ATOM     42  C   LIG    1       -3.600  -1.446  -0.273  0.00  0.00    +0.281 C 
ATOM     43  O   LIG    1       -4.169  -2.703   0.015  0.00  0.00    -0.343 OA
ATOM     44  C   LIG    1       -5.527  -2.507   0.214  0.00  0.00    +0.148 C 
ATOM     45  C   LIG    1       -6.181  -3.775   0.727  0.00  0.00    +0.041 C 
ATOM     46  C   LIG    1       -6.150  -2.018  -1.065  0.00  0.00    +0.162 C 
ATOM     47  C   LIG    1       -5.118  -1.981  -2.180  0.00  0.00    +0.116 C 
ATOM     48  C   LIG    1       -3.974  -1.100  -1.697  0.00  0.00    +0.189 C 
BRANCH  47  49
ATOM     49  N   LIG    1       -4.663  -3.286  -2.557  0.00  0.00    -0.323 NA
ATOM     50  H   LIG    1       -4.838  -3.982  -1.828  0.00  0.00    +0.119 HD
ATOM     51  H   LIG    1       -5.138  -3.589  -3.437  0.00  0.00    +0.119 HD
ENDBRANCH  47  49
BRANCH  46  52
ATOM     52  O   LIG    1       -6.593  -0.696  -0.911  0.00  0.00    -0.388 OA
ATOM     53  H   LIG    1       -7.309  -0.537  -1.573  0.00  0.00    +0.210 HD
ENDBRANCH  46  52
BRANCH  48  54
ATOM     54  O   LIG    1       -2.862  -1.254  -2.493  0.00  0.00    -0.385 OA
ATOM     55  H   LIG    1       -2.681  -0.486  -3.091  0.00  0.00    +0.210 HD
ENDBRANCH  48  54
ENDBRANCH  41  42
ENDBRANCH  25  41
TORSDOF 10
