REMARK  Name = molecules/NDCUAPJVLWFHHB-UHNVWZDZSA-N.pdb
REMARK                            x       y       z     vdW  Elec       q    Type
REMARK                         _______ _______ _______ _____ _____    ______ ____
ROOT
ATOM      1  C   LIG    1       -1.666   0.066  -1.255  0.00  0.00    +0.163 C 
ATOM      2  C   LIG    1       -1.928  -1.372  -0.587  0.00  0.00    +0.034 C 
ATOM      3  C   LIG    1       -0.594  -1.950  -0.153  0.00  0.00    +0.029 C 
ATOM      4  C   LIG    1        0.226  -1.186   0.836  0.00  0.00    +0.127 C 
ATOM      5  C   LIG    1       -0.489   0.219   0.867  0.00  0.00    +0.135 C 
ATOM      6  N   LIG    1        1.487  -0.711   0.219  0.00  0.00    -0.132 N 
ATOM      7  C   LIG    1        0.969   0.223  -0.806  0.00  0.00    +0.331 C 
ATOM      8  O   LIG    1        1.617   0.868  -1.655  0.00  0.00    -0.250 OA
ATOM      9  N   LIG    1       -0.408   0.228  -0.629  0.00  0.00    -0.270 N 
ENDROOT
BRANCH   1  10
ATOM     10  C   LIG    1       -2.650   1.015  -0.758  0.00  0.00    +0.231 C 
ATOM     11  N   LIG    1       -2.353   2.020   0.201  0.00  0.00    -0.328 N 
ATOM     12  H   LIG    1       -2.914   2.043   1.073  0.00  0.00    +0.145 HD
ATOM     13  H   LIG    1       -1.580   2.704   0.001  0.00  0.00    +0.145 HD
ATOM     14  O   LIG    1       -3.837   0.969  -1.182  0.00  0.00    -0.274 OA
ENDBRANCH   1  10
BRANCH   6  15
ATOM     15  O   LIG    1        2.759  -1.009   0.472  0.00  0.00    -0.096 OA
BRANCH  15  16
ATOM     16  S   LIG    1        3.793   0.257   0.192  0.00  0.00    +0.227 S 
ATOM     17  O   LIG    1        4.945   0.161   1.168  0.00  0.00    -0.116 OA
ATOM     18  O   LIG    1        4.377   0.183  -1.180  0.00  0.00    -0.116 OA
BRANCH  16  19
ATOM     19  O   LIG    1        3.056   1.745   0.365  0.00  0.00    -0.230 OA
ATOM     20  H   LIG    1        3.717   2.434   0.102  0.00  0.00    +0.247 HD
ENDBRANCH  16  19
ENDBRANCH  15  16
ENDBRANCH   6  15
TORSDOF 4
