REMARK  Name = molecules/NDNKHWUXXOFHTD-UHFFFAOYSA-N.pdb
REMARK                            x       y       z     vdW  Elec       q    Type
REMARK                         _______ _______ _______ _____ _____    ______ ____
ROOT
ATOM      1  C   LIG    1       -0.622   0.984  -0.234  0.00  0.00    -0.027 A 
ATOM      2  C   LIG    1       -0.884   2.038   0.595  0.00  0.00    -0.009 A 
ATOM      3  S   LIG    1       -2.375   1.629   1.293  0.00  0.00    -0.093 S 
ATOM      4  C   LIG    1       -2.643   0.133   0.524  0.00  0.00    +0.020 A 
ATOM      5  C   LIG    1       -3.685  -0.792   0.594  0.00  0.00    +0.015 A 
ATOM      6  C   LIG    1       -3.645  -1.952  -0.181  0.00  0.00    +0.001 A 
ATOM      7  C   LIG    1       -2.549  -2.103  -0.979  0.00  0.00    +0.001 A 
ATOM      8  C   LIG    1       -1.540  -1.196  -1.038  0.00  0.00    +0.009 A 
ATOM      9  C   LIG    1       -0.040   3.269   0.830  0.00  0.00    +0.052 C 
ATOM     10  C   LIG    1       -1.542  -0.012  -0.271  0.00  0.00    -0.007 A 
ENDROOT
BRANCH   1  11
ATOM     11  C   LIG    1        0.672   0.966  -1.034  0.00  0.00    +0.079 C 
BRANCH  11  12
ATOM     12  C   LIG    1        1.724   0.196  -0.354  0.00  0.00    +0.124 C 
ATOM     13  N   LIG    1        2.785   0.781   0.177  0.00  0.00    -0.214 NA
ATOM     14  C   LIG    1        3.621  -0.245   0.762  0.00  0.00    +0.119 C 
ATOM     15  C   LIG    1        3.185  -1.538   0.092  0.00  0.00    +0.099 C 
ATOM     16  N   LIG    1        1.768  -1.198  -0.156  0.00  0.00    -0.293 NA
ATOM     17  H   LIG    1        1.023  -1.922  -0.162  0.00  0.00    +0.124 HD
ENDBRANCH  11  12
ENDBRANCH   1  11
TORSDOF 2
