REMARK  Name = molecules/NEMGRZFTLSKBAP-LBPRGKRZSA-N.pdb
REMARK                            x       y       z     vdW  Elec       q    Type
REMARK                         _______ _______ _______ _____ _____    ______ ____
ROOT
ATOM      1  C   LIG    1        1.273  -0.939   0.961  0.00  0.00    +0.121 A 
ATOM      2  C   LIG    1        1.131   0.404   0.997  0.00  0.00    +0.046 A 
ATOM      3  C   LIG    1       -0.130   1.000   0.846  0.00  0.00    +0.008 A 
ATOM      4  C   LIG    1       -1.263   0.271   0.651  0.00  0.00    -0.033 A 
ATOM      5  C   LIG    1       -1.147  -1.084   0.599  0.00  0.00    +0.008 A 
ATOM      6  C   LIG    1        0.061  -1.684   0.740  0.00  0.00    +0.046 A 
ENDROOT
BRANCH   1   7
ATOM      7  O   LIG    1        2.408  -1.679   1.113  0.00  0.00    -0.487 OA
BRANCH   7   8
ATOM      8  C   LIG    1        3.724  -1.442   1.347  0.00  0.00    +0.264 C 
BRANCH   8  10
ATOM      9  C   LIG    1        4.680   0.651   0.423  0.00  0.00    +0.007 A 
ATOM     10  C   LIG    1        4.538  -0.708   0.378  0.00  0.00    -0.008 A 
ATOM     11  C   LIG    1        5.212  -1.396  -0.650  0.00  0.00    +0.045 A 
ATOM     12  C   LIG    1        5.979  -0.705  -1.556  0.00  0.00    +0.124 A 
ATOM     13  C   LIG    1        6.116   0.658  -1.500  0.00  0.00    +0.038 A 
ATOM     14  F   LIG    1        6.669  -1.386  -2.526  0.00  0.00    -0.205 F 
ATOM     15  C   LIG    1        5.452   1.304  -0.493  0.00  0.00    +0.003 A 
ENDBRANCH   8  10
ENDBRANCH   7   8
ENDBRANCH   1   7
BRANCH   4  16
ATOM     16  C   LIG    1       -2.540   0.997   0.421  0.00  0.00    +0.117 C 
BRANCH  16  17
ATOM     17  N   LIG    1       -3.670   0.138   0.355  0.00  0.00    -0.302 NA
ATOM     18  H   LIG    1       -3.528  -0.757  -0.182  0.00  0.00    +0.123 HD
BRANCH  17  19
ATOM     19  C   LIG    1       -4.782   0.876  -0.278  0.00  0.00    +0.137 C 
ATOM     20  C   LIG    1       -4.432   1.249  -1.655  0.00  0.00    +0.034 C 
BRANCH  19  21
ATOM     21  C   LIG    1       -6.068   0.308   0.059  0.00  0.00    +0.227 C 
ATOM     22  O   LIG    1       -6.918   1.050   0.695  0.00  0.00    -0.274 OA
ATOM     23  N   LIG    1       -6.514  -0.980  -0.220  0.00  0.00    -0.328 N 
ATOM     24  H   LIG    1       -6.368  -1.673   0.594  0.00  0.00    +0.145 HD
ATOM     25  H   LIG    1       -6.907  -1.319  -1.063  0.00  0.00    +0.145 HD
ENDBRANCH  19  21
ENDBRANCH  17  19
ENDBRANCH  16  17
ENDBRANCH   4  16
TORSDOF 7
