REMARK  Name = molecules/NEMLPWNINZELKP-GOSISDBHSA-N.pdb
REMARK                            x       y       z     vdW  Elec       q    Type
REMARK                         _______ _______ _______ _____ _____    ______ ____
ROOT
ATOM      1  C   LIG    1       -2.354   0.499  -0.179  0.00  0.00    +0.196 C 
ENDROOT
BRANCH   1   2
ATOM      2  C   LIG    1       -2.950  -0.521   0.764  0.00  0.00    +0.037 C 
ATOM      3  C   LIG    1       -4.433  -0.606   0.628  0.00  0.00    +0.007 C 
ATOM      4  C   LIG    1       -4.760  -1.959   0.038  0.00  0.00    +0.000 C 
ATOM      5  C   LIG    1       -3.481  -2.710  -0.117  0.00  0.00    +0.000 C 
ATOM      6  C   LIG    1       -2.386  -1.875   0.494  0.00  0.00    +0.007 C 
ENDBRANCH   1   2
BRANCH   1   7
ATOM      7  C   LIG    1       -2.951   1.861   0.080  0.00  0.00    +0.032 A 
ATOM      8  C   LIG    1       -2.651   2.746   1.077  0.00  0.00    +0.014 A 
ATOM      9  C   LIG    1       -3.321   3.903   1.101  0.00  0.00    +0.008 A 
ATOM     10  C   LIG    1       -4.257   4.105   0.119  0.00  0.00    +0.045 A 
ATOM     11  S   LIG    1       -4.165   2.672  -0.799  0.00  0.00    -0.098 S 
ENDBRANCH   1   7
BRANCH   1  12
ATOM     12  C   LIG    1       -0.898   0.602  -0.054  0.00  0.00    +0.345 C 
ATOM     13  O   LIG    1       -0.351   0.926   1.024  0.00  0.00    -0.247 OA
BRANCH  12  14
ATOM     14  O   LIG    1       -0.107   0.335  -1.152  0.00  0.00    -0.464 OA
BRANCH  14  15
ATOM     15  C   LIG    1        1.296   0.391  -1.180  0.00  0.00    +0.214 C 
BRANCH  15  16
ATOM     16  C   LIG    1        1.936  -0.569  -0.204  0.00  0.00    -0.034 C 
BRANCH  16  17
ATOM     17  N   LIG    1        3.368  -0.515  -0.229  0.00  0.00    +0.380 N 
ATOM     18  C   LIG    1        3.886   0.020  -1.474  0.00  0.00    -0.092 C 
BRANCH  17  19
ATOM     19  C   LIG    1        3.937   0.244   0.844  0.00  0.00    -0.079 C 
ATOM     20  C   LIG    1        3.391   1.638   0.962  0.00  0.00    -0.016 C 
ENDBRANCH  17  19
BRANCH  17  21
ATOM     21  C   LIG    1        3.855  -1.885  -0.093  0.00  0.00    -0.079 C 
ATOM     22  C   LIG    1        5.262  -2.027  -0.619  0.00  0.00    -0.016 C 
ENDBRANCH  17  21
ENDBRANCH  16  17
ENDBRANCH  15  16
ENDBRANCH  14  15
ENDBRANCH  12  14
ENDBRANCH   1  12
BRANCH   1  23
ATOM     23  O   LIG    1       -2.705   0.117  -1.465  0.00  0.00    -0.373 OA
ATOM     24  H   LIG    1       -2.733   0.885  -2.096  0.00  0.00    +0.211 HD
ENDBRANCH   1  23
TORSDOF 10
