REMARK  Name = molecules/NENBAISIHCWPKP-UHFFFAOYSA-N.pdb
REMARK                            x       y       z     vdW  Elec       q    Type
REMARK                         _______ _______ _______ _____ _____    ______ ____
ROOT
ATOM      1  C   LIG    1       -1.107  -0.256  -0.081  0.00  0.00    +0.125 A 
ATOM      2  C   LIG    1        0.112   0.019   0.525  0.00  0.00    +0.058 A 
ATOM      3  C   LIG    1        1.232   0.351  -0.208  0.00  0.00    +0.107 A 
ATOM      4  C   LIG    1        1.089   0.399  -1.578  0.00  0.00    +0.030 A 
ATOM      5  C   LIG    1       -0.117   0.127  -2.192  0.00  0.00    +0.024 A 
ATOM      6  C   LIG    1       -1.238  -0.206  -1.455  0.00  0.00    +0.067 A 
ATOM      7 CL   LIG    1       -2.781  -0.556  -2.197  0.00  0.00    -0.082 Cl
ENDROOT
BRANCH   1   8
ATOM      8  S   LIG    1       -2.530  -0.679   0.860  0.00  0.00    +0.057 S 
ATOM      9  O   LIG    1       -2.188  -0.636   2.312  0.00  0.00    -0.153 OA
ATOM     10  O   LIG    1       -2.948  -2.069   0.513  0.00  0.00    -0.153 OA
BRANCH   8  11
ATOM     11  N   LIG    1       -3.735   0.491   0.535  0.00  0.00    -0.203 NA
ATOM     12  H   LIG    1       -4.072   0.996   1.366  0.00  0.00    +0.144 HD
ATOM     13  H   LIG    1       -4.446   0.201  -0.141  0.00  0.00    +0.144 HD
ENDBRANCH   8  11
ENDBRANCH   1   8
BRANCH   3  14
ATOM     14  S   LIG    1        2.764   0.697   0.576  0.00  0.00    +0.056 S 
ATOM     15  O   LIG    1        2.438   1.228   1.962  0.00  0.00    -0.153 OA
ATOM     16  O   LIG    1        3.586   1.661  -0.194  0.00  0.00    -0.153 OA
BRANCH  14  17
ATOM     17  N   LIG    1        3.621  -0.789   0.710  0.00  0.00    -0.204 NA
ATOM     18  H   LIG    1        4.100  -0.923   1.603  0.00  0.00    +0.144 HD
ATOM     19  H   LIG    1        4.291  -0.853  -0.088  0.00  0.00    +0.144 HD
ENDBRANCH  14  17
ENDBRANCH   3  14
TORSDOF 4
