REMARK  Name = molecules/NETZHAKZCGBWSS-CEDHKZHLSA-N.pdb
REMARK                            x       y       z     vdW  Elec       q    Type
REMARK                         _______ _______ _______ _____ _____    ______ ____
ROOT
ATOM      1  C   LIG    1       -0.419  -0.995  -0.491  0.00  0.00    +0.095 C 
ATOM      2  C   LIG    1       -1.220  -0.220   0.489  0.00  0.00    +0.070 C 
ATOM      3  C   LIG    1       -0.306   0.547   1.403  0.00  0.00    +0.033 C 
ATOM      4  C   LIG    1        1.142   0.491   1.073  0.00  0.00    +0.086 C 
ATOM      5  N   LIG    1        1.520   0.425  -0.280  0.00  0.00    -0.296 NA
ATOM      6  C   LIG    1       -2.319  -0.914   1.197  0.00  0.00    +0.215 C 
ATOM      7  O   LIG    1       -3.350   0.088   1.285  0.00  0.00    -0.481 OA
ATOM      8  C   LIG    1       -3.230   0.951   0.213  0.00  0.00    +0.166 A 
ATOM      9  C   LIG    1       -4.032   1.897  -0.423  0.00  0.00    +0.159 A 
ATOM     10  C   LIG    1       -3.588   2.614  -1.527  0.00  0.00    +0.049 A 
ATOM     11  C   LIG    1       -2.303   2.369  -2.001  0.00  0.00    +0.008 A 
ATOM     12  C   LIG    1       -1.487   1.438  -1.387  0.00  0.00    -0.038 A 
ATOM     13  C   LIG    1       -0.142   1.132  -1.855  0.00  0.00    +0.057 C 
ATOM     14  C   LIG    1       -2.758  -2.191   0.591  0.00  0.00    +0.156 C 
ATOM     15  C   LIG    1       -2.541  -2.327  -0.882  0.00  0.00    +0.038 C 
ATOM     16  C   LIG    1       -1.984   0.778  -0.314  0.00  0.00    +0.014 A 
ATOM     17  C   LIG    1        0.492  -0.053  -1.181  0.00  0.00    +0.094 C 
ATOM     18  C   LIG    1       -1.250  -1.840  -1.412  0.00  0.00    +0.040 C 
ENDROOT
BRANCH   1  19
ATOM     19  O   LIG    1        0.402  -1.885   0.240  0.00  0.00    -0.386 OA
ATOM     20  H   LIG    1       -0.019  -2.101   1.111  0.00  0.00    +0.210 HD
ENDBRANCH   1  19
BRANCH   9  21
ATOM     21  O   LIG    1       -5.295   2.122   0.059  0.00  0.00    -0.503 OA
ATOM     22  H   LIG    1       -5.705   1.663   0.847  0.00  0.00    +0.292 HD
ENDBRANCH   9  21
BRANCH  14  23
ATOM     23  O   LIG    1       -4.142  -2.333   0.797  0.00  0.00    -0.388 OA
ATOM     24  H   LIG    1       -4.442  -1.943   1.650  0.00  0.00    +0.210 HD
ENDBRANCH  14  23
BRANCH   5  25
ATOM     25  C   LIG    1        2.802  -0.131  -0.573  0.00  0.00    +0.088 C 
BRANCH  25  26
ATOM     26  C   LIG    1        3.886   0.600   0.141  0.00  0.00    +0.003 C 
ATOM     27  C   LIG    1        4.116   0.194   1.561  0.00  0.00    +0.005 C 
ATOM     28  C   LIG    1        5.613   0.406   1.297  0.00  0.00    +0.001 C 
ATOM     29  C   LIG    1        5.290   0.043  -0.155  0.00  0.00    +0.005 C 
ENDBRANCH  25  26
ENDBRANCH   5  25
TORSDOF 5
