REMARK  Name = molecules/NFHVTCJKAHYEQN-WMLDXEAASA-N.pdb
REMARK                            x       y       z     vdW  Elec       q    Type
REMARK                         _______ _______ _______ _____ _____    ______ ____
ROOT
ATOM      1  N   LIG    1        0.821  -0.671  -0.417  0.00  0.00    -0.295 NA
ATOM      2  H   LIG    1        0.979  -1.479   0.193  0.00  0.00    +0.124 HD
ENDROOT
BRANCH   1   3
ATOM      3  C   LIG    1       -0.599  -0.455  -0.570  0.00  0.00    +0.056 C 
ATOM      4  C   LIG    1       -1.159  -1.790  -1.090  0.00  0.00    +0.024 C 
BRANCH   3   5
ATOM      5  C   LIG    1       -1.327  -0.074   0.654  0.00  0.00    +0.053 C 
BRANCH   5   6
ATOM      6  C   LIG    1       -2.770   0.149   0.481  0.00  0.00    -0.046 A 
ATOM      7  C   LIG    1       -3.624  -0.918   0.638  0.00  0.00    +0.004 A 
ATOM      8  C   LIG    1       -5.009  -0.769   0.493  0.00  0.00    +0.000 A 
ATOM      9  C   LIG    1       -5.492   0.486   0.187  0.00  0.00    +0.000 A 
ATOM     10  C   LIG    1       -4.611   1.552   0.031  0.00  0.00    +0.000 A 
ATOM     11  C   LIG    1       -3.252   1.412   0.172  0.00  0.00    +0.004 A 
ENDBRANCH   5   6
ENDBRANCH   3   5
ENDBRANCH   1   3
BRANCH   1  12
ATOM     12  C   LIG    1        1.523   0.522  -0.014  0.00  0.00    +0.188 C 
BRANCH  12  13
ATOM     13  C   LIG    1        2.969   0.286   0.180  0.00  0.00    -0.017 A 
ATOM     14  C   LIG    1        3.496  -0.806   0.839  0.00  0.00    +0.006 A 
ATOM     15  C   LIG    1        4.868  -0.958   0.984  0.00  0.00    +0.000 A 
ATOM     16  C   LIG    1        5.730  -0.005   0.464  0.00  0.00    +0.000 A 
ATOM     17  C   LIG    1        5.234   1.102  -0.202  0.00  0.00    +0.000 A 
ATOM     18  C   LIG    1        3.860   1.207  -0.320  0.00  0.00    +0.006 A 
ENDBRANCH  12  13
BRANCH  12  19
ATOM     19  C   LIG    1        1.369   1.558  -1.070  0.00  0.00    +0.086 C 
ATOM     20  N   LIG    1        1.244   2.365  -1.889  0.00  0.00    -0.195 NA
ENDBRANCH  12  19
ENDBRANCH   1  12
TORSDOF 6
