REMARK  Name = molecules/NGBFQHCMQULJNZ-UHFFFAOYSA-N.pdb
REMARK                            x       y       z     vdW  Elec       q    Type
REMARK                         _______ _______ _______ _____ _____    ______ ____
ROOT
ATOM      1  C   LIG    1        0.205  -2.605   1.333  0.00  0.00    +0.148 A 
ATOM      2  C   LIG    1        0.627  -3.899   1.086  0.00  0.00    +0.141 A 
ATOM      3  N   LIG    1        0.202  -4.614   0.032  0.00  0.00    -0.261 NA
ATOM      4  C   LIG    1       -0.664  -4.109  -0.850  0.00  0.00    +0.112 A 
ATOM      5  C   LIG    1       -1.121  -2.825  -0.657  0.00  0.00    +0.045 A 
ATOM      6  C   LIG    1       -0.695  -2.055   0.432  0.00  0.00    +0.061 A 
ENDROOT
BRANCH   1   7
ATOM      7  S   LIG    1        0.784  -1.718   2.719  0.00  0.00    +0.079 S 
ATOM      8  O   LIG    1       -0.346  -1.336   3.637  0.00  0.00    -0.150 OA
ATOM      9  O   LIG    1        1.725  -2.597   3.503  0.00  0.00    -0.150 OA
BRANCH   7  10
ATOM     10  N   LIG    1        1.610  -0.297   2.235  0.00  0.00    -0.169 N 
ATOM     11  H   LIG    1        1.795   0.471   2.903  0.00  0.00    +0.178 HD
ATOM     12  C   LIG    1        2.050  -0.172   0.896  0.00  0.00    +0.319 C 
ATOM     13  N   LIG    1        2.730   0.996   0.513  0.00  0.00    -0.296 N 
ATOM     14  H   LIG    1        2.913   1.748   1.196  0.00  0.00    +0.151 HD
ATOM     15  O   LIG    1        1.851  -1.078   0.032  0.00  0.00    -0.251 OA
BRANCH  13  16
ATOM     16  C   LIG    1        3.180   1.140  -0.860  0.00  0.00    +0.068 C 
ATOM     17  C   LIG    1        4.699   1.115  -0.789  0.00  0.00    +0.027 C 
ATOM     18  C   LIG    1        2.660   2.432  -1.422  0.00  0.00    +0.027 C 
ENDBRANCH  13  16
ENDBRANCH   7  10
ENDBRANCH   1   7
BRANCH   6  19
ATOM     19  N   LIG    1       -1.174  -0.750   0.677  0.00  0.00    -0.313 N 
ATOM     20  H   LIG    1       -0.943  -0.333   1.641  0.00  0.00    +0.152 HD
BRANCH  19  21
ATOM     21  C   LIG    1       -1.919   0.051  -0.210  0.00  0.00    +0.032 A 
ATOM     22  C   LIG    1       -2.914   0.858   0.306  0.00  0.00    +0.026 A 
ATOM     23  C   LIG    1       -3.666   1.698  -0.475  0.00  0.00    -0.049 A 
ATOM     24  C   LIG    1       -4.727   2.545   0.150  0.00  0.00    +0.044 C 
ATOM     25  C   LIG    1       -3.454   1.776  -1.848  0.00  0.00    +0.003 A 
ATOM     26  C   LIG    1       -2.462   0.972  -2.358  0.00  0.00    +0.002 A 
ATOM     27  C   LIG    1       -1.697   0.115  -1.551  0.00  0.00    +0.023 A 
ENDBRANCH  19  21
ENDBRANCH   6  19
TORSDOF 5
