REMARK  Name = molecules/NGGMYCMLYOUNGM-CSDLUJIJSA-N.pdb
REMARK                            x       y       z     vdW  Elec       q    Type
REMARK                         _______ _______ _______ _____ _____    ______ ____
ROOT
ATOM      1  C   LIG    1       -2.523  -0.085  -1.147  0.00  0.00    +0.090 C 
ATOM      2  C   LIG    1       -1.466  -0.880  -0.359  0.00  0.00    +0.167 C 
ATOM      3  C   LIG    1       -0.236  -1.034  -1.167  0.00  0.00    +0.206 C 
ATOM      4  C   LIG    1       -0.565  -0.834  -2.653  0.00  0.00    +0.050 C 
ATOM      5  C   LIG    1       -1.801  -1.724  -2.839  0.00  0.00    +0.041 C 
ATOM      6  C   LIG    1       -2.990  -0.985  -2.248  0.00  0.00    +0.101 C 
ATOM      7  O   LIG    1       -4.254  -1.484  -2.361  0.00  0.00    -0.368 OA
ATOM      8  C   LIG    1       -3.961  -0.461  -3.265  0.00  0.00    +0.196 C 
ENDROOT
BRANCH   1  10
ATOM      9  C   LIG    1       -3.147   1.616   0.670  0.00  0.00    +0.045 C 
ATOM     10  C   LIG    1       -3.562   0.458  -0.231  0.00  0.00    +0.101 C 
ATOM     11  C   LIG    1       -4.758  -0.256   0.110  0.00  0.00    +0.155 C 
ATOM     12  O   LIG    1       -4.850   0.743  -0.887  0.00  0.00    -0.364 OA
BRANCH  11  13
ATOM     13  C   LIG    1       -5.664   0.082   1.291  0.00  0.00    +0.061 C 
BRANCH  13  14
ATOM     14  C   LIG    1       -6.250   1.420   1.241  0.00  0.00    -0.026 C 
ATOM     15  C   LIG    1       -7.521   1.650   1.127  0.00  0.00    -0.080 C 
ATOM     16  C   LIG    1       -8.033   3.057   1.081  0.00  0.00    +0.038 C 
ATOM     17  C   LIG    1       -8.523   0.575   1.052  0.00  0.00    +0.038 C 
ENDBRANCH  13  14
ENDBRANCH  11  13
ENDBRANCH   1  10
BRANCH   2  18
ATOM     18  O   LIG    1       -1.215  -0.336   0.882  0.00  0.00    -0.376 OA
ATOM     19  C   LIG    1       -1.640  -1.193   1.887  0.00  0.00    +0.194 C 
ENDBRANCH   2  18
BRANCH   3  20
ATOM     20  O   LIG    1        0.932  -0.462  -0.738  0.00  0.00    -0.456 OA
BRANCH  20  21
ATOM     21  C   LIG    1        2.176  -1.092  -0.752  0.00  0.00    +0.332 C 
ATOM     22  O   LIG    1        2.221  -2.228  -1.219  0.00  0.00    -0.246 OA
BRANCH  21  23
ATOM     23  C   LIG    1        3.361  -0.456  -0.248  0.00  0.00    +0.091 C 
ATOM     24  C   LIG    1        4.565  -1.019  -0.333  0.00  0.00    +0.007 C 
BRANCH  24  25
ATOM     25  C   LIG    1        5.724  -0.325   0.205  0.00  0.00    +0.000 C 
ATOM     26  C   LIG    1        6.966  -0.795   0.137  0.00  0.00    +0.000 C 
BRANCH  26  27
ATOM     27  C   LIG    1        8.068  -0.036   0.710  0.00  0.00    +0.000 C 
ATOM     28  C   LIG    1        9.305  -0.461   0.645  0.00  0.00    +0.000 C 
BRANCH  28  29
ATOM     29  C   LIG    1       10.393   0.325   1.241  0.00  0.00    +0.007 C 
ATOM     30  C   LIG    1       11.647  -0.080   1.200  0.00  0.00    +0.091 C 
BRANCH  30  31
ATOM     31  C   LIG    1       12.865   0.412   1.658  0.00  0.00    +0.330 C 
ATOM     32  O   LIG    1       13.865   0.797   2.022  0.00  0.00    -0.246 OA
BRANCH  31  33
ATOM     33  O   LIG    1       12.181   1.852   2.327  0.00  0.00    -0.478 OA
ATOM     34  H   LIG    1       12.136   2.358   1.463  0.00  0.00    +0.295 HD
ENDBRANCH  31  33
ENDBRANCH  30  31
ENDBRANCH  28  29
ENDBRANCH  26  27
ENDBRANCH  24  25
ENDBRANCH  21  23
ENDBRANCH  20  21
ENDBRANCH   3  20
TORSDOF 12
