REMARK  Name = molecules/NGHTXZCKLWZPGK-UHFFFAOYSA-N.pdb
REMARK                            x       y       z     vdW  Elec       q    Type
REMARK                         _______ _______ _______ _____ _____    ______ ____
ROOT
ATOM      1  N   LIG    1       -1.046  -0.004  -1.151  0.00  0.00    -0.284 N 
ATOM      2  C   LIG    1        0.224  -0.072  -0.513  0.00  0.00    +0.235 C 
ATOM      3  O   LIG    1        0.330   0.053   0.754  0.00  0.00    -0.274 OA
ATOM      4  H   LIG    1       -1.052  -0.116  -2.195  0.00  0.00    +0.155 HD
ENDROOT
BRANCH   1   5
ATOM      5  C   LIG    1       -2.249   0.205  -0.421  0.00  0.00    +0.039 A 
ATOM      6  C   LIG    1       -2.990  -0.867   0.079  0.00  0.00    -0.029 A 
ATOM      7  C   LIG    1       -4.153  -0.634   0.783  0.00  0.00    +0.005 A 
ATOM      8  C   LIG    1       -4.540   0.677   0.966  0.00  0.00    +0.001 A 
ATOM      9  C   LIG    1       -3.805   1.734   0.471  0.00  0.00    +0.005 A 
ATOM     10  C   LIG    1       -2.518  -2.260  -0.153  0.00  0.00    +0.045 C 
ATOM     11  C   LIG    1       -2.642   1.515  -0.234  0.00  0.00    -0.029 A 
ATOM     12  C   LIG    1       -1.850   2.668  -0.768  0.00  0.00    +0.045 C 
ENDBRANCH   1   5
BRANCH   2  13
ATOM     13  C   LIG    1        1.482  -0.289  -1.258  0.00  0.00    +0.203 C 
BRANCH  13  14
ATOM     14  N   LIG    1        2.635  -0.323  -0.415  0.00  0.00    -0.293 N 
ATOM     15  C   LIG    1        3.209  -1.489   0.219  0.00  0.00    +0.109 C 
ATOM     16  C   LIG    1        4.635  -1.112   0.532  0.00  0.00    +0.028 C 
ATOM     17  C   LIG    1        4.747   0.375   0.418  0.00  0.00    +0.097 C 
ATOM     18  C   LIG    1        3.414   0.816  -0.062  0.00  0.00    +0.216 C 
ATOM     19  O   LIG    1        3.057   2.013  -0.136  0.00  0.00    -0.276 OA
ENDBRANCH  13  14
ENDBRANCH   2  13
TORSDOF 3
