REMARK  Name = molecules/NGVDGCNFYWLIFO-UHFFFAOYSA-N.pdb
REMARK                            x       y       z     vdW  Elec       q    Type
REMARK                         _______ _______ _______ _____ _____    ______ ____
ROOT
ATOM      1  C   LIG    1        0.096   0.127   0.013  0.00  0.00    +0.010 A 
ATOM      2  C   LIG    1       -0.314   1.447   0.186  0.00  0.00    +0.117 A 
ATOM      3  N   LIG    1       -1.605   1.798   0.279  0.00  0.00    -0.256 NA
ATOM      4  C   LIG    1       -2.592   0.900   0.212  0.00  0.00    +0.080 A 
ATOM      5  C   LIG    1       -4.028   1.257   0.311  0.00  0.00    +0.069 C 
ATOM      6  C   LIG    1       -2.256  -0.427   0.042  0.00  0.00    +0.148 A 
ATOM      7  C   LIG    1       -0.915  -0.803  -0.056  0.00  0.00    +0.064 A 
ENDROOT
BRANCH   6   8
ATOM      8  O   LIG    1       -3.211  -1.432  -0.039  0.00  0.00    -0.504 OA
ATOM      9  H   LIG    1       -4.181  -1.154   0.032  0.00  0.00    +0.292 HD
ENDBRANCH   6   8
BRANCH   7  10
ATOM     10  C   LIG    1       -0.579  -2.198  -0.229  0.00  0.00    +0.262 C 
ATOM     11  O   LIG    1        0.603  -2.602  -0.322  0.00  0.00    -0.296 OA
ENDBRANCH   7  10
BRANCH   1  12
ATOM     12  C   LIG    1        1.534  -0.220  -0.093  0.00  0.00    +0.210 C 
BRANCH  12  13
ATOM     13  O   LIG    1        2.253   0.966   0.030  0.00  0.00    -0.282 OA
BRANCH  13  14
ATOM     14  P   LIG    1        3.916   0.729  -0.072  0.00  0.00    +0.473 P 
ATOM     15  O   LIG    1        4.631   1.993   0.345  0.00  0.00    -0.228 OA
BRANCH  14  16
ATOM     16  O   LIG    1        4.362  -0.467   1.058  0.00  0.00    -0.303 OA
ATOM     17  H   LIG    1        3.840  -1.309   0.911  0.00  0.00    +0.222 HD
ENDBRANCH  14  16
BRANCH  14  18
ATOM     18  O   LIG    1        4.404   0.264  -1.605  0.00  0.00    -0.303 OA
ATOM     19  H   LIG    1        4.540  -0.720  -1.609  0.00  0.00    +0.222 HD
ENDBRANCH  14  18
ENDBRANCH  13  14
ENDBRANCH  12  13
ENDBRANCH   1  12
TORSDOF 7
