REMARK  Name = molecules/NHKZSTHOYNWEEZ-AFCXAGJDSA-N.pdb
REMARK                            x       y       z     vdW  Elec       q    Type
REMARK                         _______ _______ _______ _____ _____    ______ ____
ROOT
ATOM      1  C2* LIG    1       -1.100  -1.352   0.592  0.00  0.00    +0.196 C 
ATOM      2  C3* LIG    1       -2.537  -0.814   0.595  0.00  0.00    +0.178 C 
ATOM      3  C4* LIG    1       -2.408   0.468  -0.163  0.00  0.00    +0.177 C 
ATOM      4  O4* LIG    1       -1.068   0.827   0.028  0.00  0.00    -0.344 OA
ATOM      5  C1* LIG    1       -0.424  -0.351  -0.318  0.00  0.00    +0.270 C 
ENDROOT
BRANCH   5   6
ATOM      6  N   LIG    1        0.994  -0.307  -0.165  0.00  0.00    -0.220 N 
ATOM      7  N   LIG    1        1.829   0.703  -0.006  0.00  0.00    -0.139 NA
ATOM      8  C   LIG    1        3.080   0.283   0.097  0.00  0.00    +0.264 A 
ATOM      9  N   LIG    1        3.034  -1.076  -0.005  0.00  0.00    -0.209 NA
ATOM     10  C   LIG    1        1.766  -1.414  -0.163  0.00  0.00    +0.223 A 
BRANCH   8  11
ATOM     11  C   LIG    1        4.323   1.024   0.280  0.00  0.00    +0.346 C 
ATOM     12  N   LIG    1        5.582   0.377   0.367  0.00  0.00    -0.283 N 
ATOM     13  H   LIG    1        6.102   0.417   1.258  0.00  0.00    +0.301 HD
ATOM     14  H   LIG    1        5.999  -0.135  -0.439  0.00  0.00    +0.301 HD
BRANCH  11  15
ATOM     15  N   LIG    1        4.317   2.310   0.371  0.00  0.00    -0.066 NA
ATOM     16  H   LIG    1        3.481   2.896   0.324  0.00  0.00    +0.348 HD
ENDBRANCH  11  15
ENDBRANCH   8  11
ENDBRANCH   5   6
BRANCH   1  17
ATOM     17  O2* LIG    1       -1.036  -2.625   0.055  0.00  0.00    -0.385 OA
ATOM     18  H2* LIG    1       -1.666  -2.723  -0.714  0.00  0.00    +0.210 HD
ENDBRANCH   1  17
BRANCH   2  19
ATOM     19  O3* LIG    1       -3.316  -1.700  -0.161  0.00  0.00    -0.386 OA
ATOM     20  H3* LIG    1       -3.345  -1.396  -1.113  0.00  0.00    +0.210 HD
ENDBRANCH   2  19
BRANCH   3  21
ATOM     21  C5* LIG    1       -3.351   1.541   0.322  0.00  0.00    +0.190 C 
BRANCH  21  22
ATOM     22  O5* LIG    1       -3.210   1.813   1.659  0.00  0.00    -0.392 OA
ATOM     23  H5* LIG    1       -4.042   2.305   1.946  0.00  0.00    +0.210 HD
ENDBRANCH  21  22
ENDBRANCH   3  21
TORSDOF 7
