REMARK  Name = molecules/NHTGHBARYWONDQ-JTQLQIEISA-N.pdb
REMARK                            x       y       z     vdW  Elec       q    Type
REMARK                         _______ _______ _______ _____ _____    ______ ____
ROOT
ATOM      1  C   LIG    1       -0.809   0.523  -0.903  0.00  0.00    +0.068 C 
ENDROOT
BRANCH   1   2
ATOM      2  C   LIG    1        0.601   0.313  -0.482  0.00  0.00    -0.045 A 
ATOM      3  C   LIG    1        1.231   1.112   0.453  0.00  0.00    +0.007 A 
ATOM      4  C   LIG    1        2.543   0.869   0.805  0.00  0.00    +0.045 A 
ATOM      5  C   LIG    1        3.276  -0.159   0.255  0.00  0.00    +0.117 A 
ATOM      6  C   LIG    1        2.647  -0.957  -0.679  0.00  0.00    +0.045 A 
ATOM      7  C   LIG    1        1.335  -0.731  -1.045  0.00  0.00    +0.007 A 
BRANCH   5   8
ATOM      8  O   LIG    1        4.599  -0.377   0.633  0.00  0.00    -0.507 OA
ATOM      9  H   LIG    1        5.308   0.107   0.092  0.00  0.00    +0.292 HD
ENDBRANCH   5   8
ENDBRANCH   1   2
BRANCH   1  10
ATOM     10  C   LIG    1       -1.739  -0.278  -0.007  0.00  0.00    +0.116 C 
ATOM     11  C   LIG    1       -1.539   0.279   1.406  0.00  0.00    +0.040 C 
BRANCH  10  12
ATOM     12  N   LIG    1       -1.349  -1.663  -0.003  0.00  0.00    -0.316 NA
ATOM     13  H   LIG    1       -1.686  -2.106   0.892  0.00  0.00    +0.119 HD
ATOM     14  H   LIG    1       -1.782  -2.193  -0.788  0.00  0.00    +0.119 HD
ENDBRANCH  10  12
BRANCH  10  15
ATOM     15  C   LIG    1       -3.135  -0.079  -0.412  0.00  0.00    +0.325 C 
ATOM     16  O   LIG    1       -3.849  -1.056  -0.708  0.00  0.00    -0.249 OA
BRANCH  15  17
ATOM     17  O   LIG    1       -3.668   1.188  -0.469  0.00  0.00    -0.479 OA
ATOM     18  H   LIG    1       -3.193   1.874  -1.036  0.00  0.00    +0.295 HD
ENDBRANCH  15  17
ENDBRANCH  10  15
ENDBRANCH   1  10
TORSDOF 6
