REMARK  Name = molecules/NHUHCSRWZMLRLA-UHFFFAOYSA-N.pdb
REMARK                            x       y       z     vdW  Elec       q    Type
REMARK                         _______ _______ _______ _____ _____    ______ ____
ROOT
ATOM      1  S   LIG    1        0.343  -2.169   0.049  0.00  0.00    +0.075 S 
ATOM      2  O   LIG    1       -0.403  -2.248   1.351  0.00  0.00    -0.150 OA
ATOM      3  O   LIG    1        0.837  -3.490  -0.395  0.00  0.00    -0.150 OA
ENDROOT
BRANCH   1   4
ATOM      4  C   LIG    1        1.677  -1.065   0.228  0.00  0.00    +0.109 A 
ATOM      5  C   LIG    1        1.569  -0.065   1.189  0.00  0.00    +0.030 A 
ATOM      6  C   LIG    1        2.579   0.851   1.398  0.00  0.00    +0.024 A 
ATOM      7  C   LIG    1        3.707   0.737   0.611  0.00  0.00    +0.025 A 
ATOM      8  C   LIG    1        3.838  -0.258  -0.360  0.00  0.00    +0.024 A 
ATOM      9  C   LIG    1        2.816  -1.161  -0.549  0.00  0.00    +0.030 A 
BRANCH   7  10
ATOM     10  N   LIG    1        4.754   1.671   0.813  0.00  0.00    -0.358 N 
ATOM     11  H   LIG    1        5.631   1.348   1.267  0.00  0.00    +0.142 HD
ATOM     12  H   LIG    1        4.592   2.661   0.491  0.00  0.00    +0.142 HD
ENDBRANCH   7  10
ENDBRANCH   1   4
BRANCH   1  13
ATOM     13  N   LIG    1       -0.728  -1.463  -1.138  0.00  0.00    -0.183 N 
ATOM     14  H   LIG    1       -0.914  -1.978  -2.026  0.00  0.00    +0.177 HD
BRANCH  13  15
ATOM     15  C   LIG    1       -1.343  -0.204  -0.907  0.00  0.00    +0.240 A 
ATOM     16  C   LIG    1       -2.567  -0.029  -0.292  0.00  0.00    +0.035 A 
ATOM     17  C   LIG    1       -3.490  -1.077   0.251  0.00  0.00    +0.051 C 
ATOM     18  C   LIG    1       -2.823   1.333  -0.252  0.00  0.00    +0.085 A 
ATOM     19  C   LIG    1       -4.040   1.974   0.328  0.00  0.00    +0.069 C 
ATOM     20  N   LIG    1       -1.764   1.906  -0.833  0.00  0.00    -0.081 NA
ATOM     21  O   LIG    1       -0.912   0.999  -1.208  0.00  0.00    -0.338 OA
ENDBRANCH  13  15
ENDBRANCH   1  13
TORSDOF 4
