REMARK  Name = molecules/NIJJYAXOARWZEE-UHFFFAOYSA-N.pdb
REMARK                            x       y       z     vdW  Elec       q    Type
REMARK                         _______ _______ _______ _____ _____    ______ ____
ROOT
ATOM      1  C   LIG    1        0.130   0.666  -0.732  0.00  0.00    +0.098 C 
ENDROOT
BRANCH   1   2
ATOM      2  C   LIG    1        0.324   2.171  -0.896  0.00  0.00    +0.308 C 
ATOM      3  O   LIG    1        1.295   2.759  -0.366  0.00  0.00    -0.251 OA
BRANCH   2   4
ATOM      4  O   LIG    1       -0.563   2.939  -1.633  0.00  0.00    -0.480 OA
ATOM      5  H   LIG    1       -1.141   3.668  -1.204  0.00  0.00    +0.295 HD
ENDBRANCH   2   4
ENDBRANCH   1   2
BRANCH   1   6
ATOM      6  C   LIG    1       -1.161   0.498  -0.074  0.00  0.00    +0.014 C 
BRANCH   6   8
ATOM      7  C   LIG    1       -3.115  -0.568   0.850  0.00  0.00    +0.004 C 
ATOM      8  C   LIG    1       -1.739  -0.828   0.193  0.00  0.00    -0.003 C 
ENDBRANCH   6   8
ENDBRANCH   1   6
BRANCH   1   9
ATOM      9  C   LIG    1        1.381   0.148  -0.187  0.00  0.00    +0.014 C 
BRANCH   9  10
ATOM     10  C   LIG    1        1.570  -1.303   0.031  0.00  0.00    -0.003 C 
ATOM     11  C   LIG    1        3.024  -1.448   0.566  0.00  0.00    +0.004 C 
ENDBRANCH   9  10
ENDBRANCH   1   9
TORSDOF 6
