REMARK  Name = molecules/NJMYODHXAKYRHW-UHFFFAOYSA-N.pdb
REMARK                            x       y       z     vdW  Elec       q    Type
REMARK                         _______ _______ _______ _____ _____    ______ ____
ROOT
ATOM      1  C   LIG    1       -3.117  -3.987   0.069  0.00  0.00    +0.001 A 
ATOM      2  C   LIG    1       -2.593  -2.718   0.221  0.00  0.00    +0.009 A 
ATOM      3  C   LIG    1       -3.234  -1.558  -0.223  0.00  0.00    -0.007 A 
ATOM      4  C   LIG    1       -2.727  -0.240   0.100  0.00  0.00    -0.027 C 
ATOM      5  C   LIG    1       -3.523   0.997  -0.186  0.00  0.00    -0.007 A 
ATOM      6  C   LIG    1       -3.046   2.230   0.251  0.00  0.00    +0.021 A 
ATOM      7  C   LIG    1       -3.792   3.401   0.093  0.00  0.00    +0.055 A 
ATOM      8  C   LIG    1       -5.014   3.394  -0.489  0.00  0.00    +0.013 A 
ATOM      9  C   LIG    1       -5.480   2.175  -0.921  0.00  0.00    +0.016 A 
ATOM     10  C   LIG    1       -4.750   1.025  -0.769  0.00  0.00    +0.020 A 
ATOM     11  S   LIG    1       -5.448  -0.459  -1.455  0.00  0.00    -0.088 S 
ATOM     12  C   LIG    1       -4.437  -1.808  -0.822  0.00  0.00    +0.020 A 
ATOM     13  C   LIG    1       -4.979  -3.062  -0.982  0.00  0.00    +0.015 A 
ATOM     14  C   LIG    1       -4.307  -4.170  -0.532  0.00  0.00    +0.001 A 
ENDROOT
BRANCH   7  15
ATOM     15  C   LIG    1       -3.258   4.702   0.571  0.00  0.00    +0.417 C 
ATOM     16  F   LIG    1       -4.135   5.177   1.550  0.00  0.00    -0.166 F 
ATOM     17  F   LIG    1       -2.014   4.567   1.097  0.00  0.00    -0.166 F 
ATOM     18  F   LIG    1       -3.303   5.608  -0.487  0.00  0.00    -0.166 F 
ENDBRANCH   7  15
BRANCH   4  19
ATOM     19  C   LIG    1       -1.457  -0.058   0.393  0.00  0.00    +0.029 C 
BRANCH  19  20
ATOM     20  C   LIG    1       -0.260  -0.911   0.471  0.00  0.00    +0.024 C 
BRANCH  20  21
ATOM     21  C   LIG    1        0.870   0.017  -0.046  0.00  0.00    +0.085 C 
BRANCH  21  22
ATOM     22  N   LIG    1        2.141  -0.477  -0.122  0.00  0.00    -0.300 NA
ATOM     23  C   LIG    1        2.605  -1.667   0.377  0.00  0.00    +0.100 C 
ATOM     24  C   LIG    1        4.048  -1.780   0.775  0.00  0.00    +0.100 C 
ATOM     25  N   LIG    1        4.809  -0.562   0.821  0.00  0.00    -0.298 NA
ATOM     26  C   LIG    1        3.937   0.580   0.926  0.00  0.00    +0.100 C 
ATOM     27  C   LIG    1        3.089   0.603  -0.314  0.00  0.00    +0.100 C 
BRANCH  25  28
ATOM     28  C   LIG    1        5.691  -0.498  -0.303  0.00  0.00    +0.112 C 
BRANCH  28  29
ATOM     29  C   LIG    1        6.696   0.618  -0.221  0.00  0.00    +0.171 C 
BRANCH  29  30
ATOM     30  O   LIG    1        7.474   0.560  -1.398  0.00  0.00    -0.394 OA
ATOM     31  H   LIG    1        6.912   1.015  -2.104  0.00  0.00    +0.209 HD
ENDBRANCH  29  30
ENDBRANCH  28  29
ENDBRANCH  25  28
ENDBRANCH  21  22
ENDBRANCH  20  21
ENDBRANCH  19  20
ENDBRANCH   4  19
TORSDOF 8
