REMARK  Name = molecules/NJNWEGFJCGYWQT-VSXGLTOVSA-N.pdb
REMARK                            x       y       z     vdW  Elec       q    Type
REMARK                         _______ _______ _______ _____ _____    ______ ____
ROOT
ATOM      1  C   LIG    1       -2.423   0.326   0.225  0.00  0.00    +0.164 C 
ATOM      2  C   LIG    1       -1.076   0.128   0.866  0.00  0.00    +0.011 C 
ATOM      3  C   LIG    1       -1.073   0.733   2.205  0.00  0.00    +0.015 C 
ATOM      4  C   LIG    1       -0.619  -1.309   0.818  0.00  0.00    +0.031 C 
ATOM      5  C   LIG    1        0.842  -1.491   1.008  0.00  0.00    +0.103 C 
ATOM      6 CL   LIG    1        1.136  -1.587   2.752  0.00  0.00    -0.120 Cl
ATOM      7  C   LIG    1        1.704  -0.568   0.247  0.00  0.00    +0.077 C 
ATOM      8  C   LIG    1        3.173  -0.649   0.506  0.00  0.00    +0.031 C 
ATOM      9  C   LIG    1        3.540  -0.518   1.974  0.00  0.00    +0.022 C 
ATOM     10  C   LIG    1        3.716  -1.940   0.087  0.00  0.00    -0.010 C 
ATOM     11  C   LIG    1        4.698  -2.164  -0.758  0.00  0.00    +0.047 C 
ATOM     12  C   LIG    1        5.349  -1.023  -1.377  0.00  0.00    +0.179 C 
ATOM     13  C   LIG    1        4.842   0.287  -0.997  0.00  0.00    +0.054 C 
ATOM     14  O   LIG    1        6.295  -1.157  -2.191  0.00  0.00    -0.288 OA
ATOM     15  C   LIG    1        3.870   0.467  -0.160  0.00  0.00    -0.021 C 
ATOM     16  C   LIG    1        3.404   1.884   0.114  0.00  0.00    +0.193 C 
ATOM     17  C   LIG    1        1.973   1.855  -0.449  0.00  0.00    +0.047 C 
ATOM     18  F   LIG    1        4.206   2.750  -0.553  0.00  0.00    -0.241 F 
ATOM     19  C   LIG    1        1.192   0.880   0.373  0.00  0.00    +0.019 C 
ATOM     20 CL   LIG    1        1.497  -0.964  -1.487  0.00  0.00    -0.115 Cl
ATOM     21  C   LIG    1       -0.194   0.843  -0.143  0.00  0.00    +0.006 C 
ATOM     22  C   LIG    1       -0.910   2.110  -0.391  0.00  0.00    +0.039 C 
ATOM     23  O   LIG    1       -2.715  -0.762  -0.609  0.00  0.00    -0.332 OA
ATOM     24  C   LIG    1       -2.774  -0.283  -1.895  0.00  0.00    +0.166 C 
ATOM     25  O   LIG    1       -2.215   0.965  -1.941  0.00  0.00    -0.343 OA
ATOM     26  C   LIG    1       -4.243  -0.271  -2.319  0.00  0.00    +0.074 C 
ATOM     27  C   LIG    1       -2.046  -1.299  -2.787  0.00  0.00    +0.074 C 
ATOM     28  C   LIG    1       -2.312   1.541  -0.681  0.00  0.00    +0.162 C 
ENDROOT
BRANCH   1  29
ATOM     29  C   LIG    1       -3.529   0.576   1.177  0.00  0.00    +0.193 C 
ATOM     30  O   LIG    1       -3.515   1.532   1.926  0.00  0.00    -0.292 OA
BRANCH  29  31
ATOM     31  C   LIG    1       -4.720  -0.315   1.284  0.00  0.00    +0.233 C 
BRANCH  31  32
ATOM     32  O   LIG    1       -5.612   0.112   2.252  0.00  0.00    -0.387 OA
ATOM     33  H   LIG    1       -6.140   0.898   1.975  0.00  0.00    +0.210 HD
ENDBRANCH  31  32
ENDBRANCH  29  31
ENDBRANCH   1  29
TORSDOF 3
