REMARK  Name = molecules/NJSMWLQOCQIOPE-OCHFTUDZSA-N.pdb
REMARK                            x       y       z     vdW  Elec       q    Type
REMARK                         _______ _______ _______ _____ _____    ______ ____
ROOT
ATOM      1  C   LIG    1       -1.236  -0.525  -0.923  0.00  0.00    +0.010 A 
ATOM      2  C   LIG    1       -0.781  -0.825   0.345  0.00  0.00    -0.008 A 
ATOM      3  C   LIG    1       -1.644  -0.969   1.418  0.00  0.00    +0.009 A 
ATOM      4  C   LIG    1       -1.214  -1.271   2.711  0.00  0.00    +0.001 A 
ATOM      5  C   LIG    1        0.117  -1.433   2.940  0.00  0.00    +0.001 A 
ATOM      6  C   LIG    1        0.983  -1.287   1.856  0.00  0.00    +0.009 A 
ATOM      7  C   LIG    1        0.559  -0.989   0.579  0.00  0.00    -0.008 A 
ATOM      8  C   LIG    1        1.473  -0.852  -0.481  0.00  0.00    +0.011 A 
ATOM      9  C   LIG    1        1.053  -0.553  -1.762  0.00  0.00    -0.008 A 
ATOM     10  C   LIG    1        1.925  -0.413  -2.817  0.00  0.00    +0.009 A 
ATOM     11  C   LIG    1        1.446  -0.113  -4.083  0.00  0.00    +0.001 A 
ATOM     12  C   LIG    1        0.118   0.055  -4.338  0.00  0.00    +0.001 A 
ATOM     13  C   LIG    1       -0.741  -0.092  -3.252  0.00  0.00    +0.009 A 
ATOM     14  C   LIG    1       -0.322  -0.389  -1.978  0.00  0.00    -0.008 A 
ENDROOT
BRANCH   1  15
ATOM     15  C   LIG    1       -2.654  -0.346  -1.196  0.00  0.00    +0.139 C 
ATOM     16  N   LIG    1       -3.632  -0.426  -0.392  0.00  0.00    -0.192 NA
BRANCH  16  17
ATOM     17  N   LIG    1       -4.940  -0.227  -0.809  0.00  0.00    -0.230 N 
ATOM     18  H   LIG    1       -5.207  -0.579  -1.754  0.00  0.00    +0.172 HD
BRANCH  17  19
ATOM     19  C   LIG    1       -5.931   0.427  -0.025  0.00  0.00    +0.222 C 
ATOM     20  N   LIG    1       -5.918   0.496   1.280  0.00  0.00    -0.195 NA
ATOM     21  C   LIG    1       -7.053   1.221   1.767  0.00  0.00    +0.121 C 
ATOM     22  C   LIG    1       -7.692   1.851   0.546  0.00  0.00    +0.101 C 
ATOM     23  N   LIG    1       -7.073   1.095  -0.527  0.00  0.00    -0.276 NA
ATOM     24  H   LIG    1       -7.390   1.026  -1.537  0.00  0.00    +0.125 HD
ENDBRANCH  17  19
ENDBRANCH  16  17
ENDBRANCH   1  15
BRANCH   8  25
ATOM     25  C   LIG    1        2.888  -1.036  -0.182  0.00  0.00    +0.155 C 
ATOM     26  N   LIG    1        3.879  -0.961  -0.973  0.00  0.00    -0.128 NA
BRANCH  26  27
ATOM     27  N   LIG    1        5.168  -1.169  -0.501  0.00  0.00    -0.118 N 
ATOM     28  H   LIG    1        5.663  -2.105  -0.589  0.00  0.00    +0.278 HD
BRANCH  27  29
ATOM     29  C   LIG    1        5.932  -0.145   0.139  0.00  0.00    +0.388 C 
ATOM     30  N   LIG    1        5.974   0.085   1.540  0.00  0.00    -0.234 N 
ATOM     31  H   LIG    1        5.454  -0.448   2.260  0.00  0.00    +0.245 HD
ATOM     32  C   LIG    1        6.864   1.193   1.844  0.00  0.00    +0.225 C 
ATOM     33  C   LIG    1        7.317   1.605   0.453  0.00  0.00    +0.277 C 
ATOM     34  N   LIG    1        6.675   0.695  -0.470  0.00  0.00    -0.113 NA
ENDBRANCH  27  29
ENDBRANCH  26  27
ENDBRANCH   8  25
TORSDOF 6
