REMARK  Name = molecules/NKANXQFJJICGDU-QPLCGJKRSA-N.pdb
REMARK                            x       y       z     vdW  Elec       q    Type
REMARK                         _______ _______ _______ _____ _____    ______ ____
ROOT
ATOM      1  C   LIG    1       -2.025   0.489  -0.900  0.00  0.00    -0.007 C 
ATOM      2  C   LIG    1       -2.982  -0.172  -0.319  0.00  0.00    -0.032 C 
ENDROOT
BRANCH   2   3
ATOM      3  C   LIG    1       -2.803  -1.179   0.694  0.00  0.00    -0.021 A 
ATOM      4  C   LIG    1       -3.128  -0.764   2.004  0.00  0.00    +0.008 A 
ATOM      5  C   LIG    1       -2.985  -1.591   3.088  0.00  0.00    +0.001 A 
ATOM      6  C   LIG    1       -2.507  -2.880   2.908  0.00  0.00    +0.000 A 
ATOM      7  C   LIG    1       -2.191  -3.287   1.631  0.00  0.00    +0.001 A 
ATOM      8  C   LIG    1       -2.339  -2.437   0.526  0.00  0.00    +0.008 A 
ENDBRANCH   2   3
BRANCH   1   9
ATOM      9  C   LIG    1       -0.646   0.231  -0.543  0.00  0.00    -0.017 A 
ATOM     10  C   LIG    1        0.026   1.184   0.196  0.00  0.00    +0.012 A 
ATOM     11  C   LIG    1        1.321   1.031   0.618  0.00  0.00    +0.046 A 
ATOM     12  C   LIG    1        2.009  -0.124   0.302  0.00  0.00    +0.121 A 
ATOM     13  C   LIG    1        1.364  -1.094  -0.435  0.00  0.00    +0.046 A 
ATOM     14  C   LIG    1        0.033  -0.901  -0.851  0.00  0.00    +0.012 A 
BRANCH  12  15
ATOM     15  O   LIG    1        3.336  -0.295   0.726  0.00  0.00    -0.491 OA
BRANCH  15  16
ATOM     16  C   LIG    1        3.930   0.740   1.483  0.00  0.00    +0.244 C 
BRANCH  16  17
ATOM     17  C   LIG    1        5.346   0.451   1.874  0.00  0.00    +0.124 C 
BRANCH  17  18
ATOM     18  N   LIG    1        6.202   0.262   0.709  0.00  0.00    -0.305 NA
ATOM     19  C   LIG    1        7.553   0.033   1.253  0.00  0.00    +0.104 C 
ATOM     20  C   LIG    1        5.805  -1.052   0.171  0.00  0.00    +0.104 C 
ENDBRANCH  17  18
ENDBRANCH  16  17
ENDBRANCH  15  16
ENDBRANCH  12  15
ENDBRANCH   1   9
BRANCH   1  21
ATOM     21  C   LIG    1       -2.319   1.577  -1.871  0.00  0.00    -0.017 A 
ATOM     22  C   LIG    1       -3.131   2.603  -1.442  0.00  0.00    +0.008 A 
ATOM     23  C   LIG    1       -3.474   3.653  -2.270  0.00  0.00    +0.001 A 
ATOM     24  C   LIG    1       -3.002   3.686  -3.555  0.00  0.00    +0.000 A 
ATOM     25  C   LIG    1       -2.178   2.656  -4.010  0.00  0.00    +0.001 A 
ATOM     26  C   LIG    1       -1.848   1.609  -3.151  0.00  0.00    +0.008 A 
ENDBRANCH   1  21
BRANCH   2  27
ATOM     27  C   LIG    1       -4.411   0.141  -0.743  0.00  0.00    +0.033 C 
ATOM     28  C   LIG    1       -5.006  -1.235  -1.118  0.00  0.00    +0.009 C 
ENDBRANCH   2  27
TORSDOF 8
