REMARK  Name = molecules/NKGYBXHAQAKSSG-LLVKDONJSA-N.pdb
REMARK                            x       y       z     vdW  Elec       q    Type
REMARK                         _______ _______ _______ _____ _____    ______ ____
ROOT
ATOM      1  C   LIG    1        1.294   1.024   0.270  0.00  0.00    +0.051 C 
ATOM      2  C   LIG    1        1.068   1.259   1.782  0.00  0.00    +0.024 C 
ENDROOT
BRANCH   1   3
ATOM      3  N   LIG    1        2.646   0.853  -0.036  0.00  0.00    -0.311 NA
ATOM      4  H   LIG    1        3.146   1.771   0.149  0.00  0.00    +0.122 HD
BRANCH   3   5
ATOM      5  C   LIG    1        3.374  -0.282   0.341  0.00  0.00    +0.048 C 
ATOM      6  C   LIG    1        4.834  -0.080  -0.098  0.00  0.00    +0.023 C 
ATOM      7  C   LIG    1        2.884  -1.520  -0.336  0.00  0.00    +0.023 C 
ENDBRANCH   3   5
ENDBRANCH   1   3
BRANCH   1   8
ATOM      8  C   LIG    1        0.282   0.080  -0.273  0.00  0.00    +0.018 C 
BRANCH   8   9
ATOM      9  C   LIG    1       -1.136   0.472   0.185  0.00  0.00    +0.002 C 
BRANCH   9  10
ATOM     10  C   LIG    1       -2.098  -0.521  -0.400  0.00  0.00    +0.003 C 
BRANCH  10  11
ATOM     11  C   LIG    1       -3.525  -0.269  -0.027  0.00  0.00    -0.017 C 
ATOM     12  C   LIG    1       -4.064   1.047  -0.448  0.00  0.00    +0.007 C 
ATOM     13  C   LIG    1       -4.363  -1.351  -0.679  0.00  0.00    +0.007 C 
ENDBRANCH  10  11
ENDBRANCH   9  10
ENDBRANCH   8   9
ENDBRANCH   1   8
TORSDOF 6
