REMARK  Name = molecules/NKLGIWNNVDPGCA-ZDYKNUMJSA-N.pdb
REMARK                            x       y       z     vdW  Elec       q    Type
REMARK                         _______ _______ _______ _____ _____    ______ ____
ROOT
ATOM      1  C   LIG    1       -1.821  -4.891   1.675  0.00  0.00    +0.064 C 
ATOM      2  C   LIG    1       -2.726  -4.716   0.484  0.00  0.00    +0.188 C 
ATOM      3  C   LIG    1       -3.482  -3.408   0.590  0.00  0.00    +0.223 C 
ATOM      4  O   LIG    1       -3.168  -2.821   1.788  0.00  0.00    -0.457 OA
ATOM      5  C   LIG    1       -2.512  -1.718   2.200  0.00  0.00    +0.313 C 
ATOM      6  O   LIG    1       -1.659  -1.944   3.135  0.00  0.00    -0.250 OA
ATOM      7  C   LIG    1       -2.629  -0.332   1.749  0.00  0.00    +0.124 C 
ATOM      8  C   LIG    1       -1.446   0.424   1.354  0.00  0.00    +0.140 C 
ATOM      9  C   LIG    1       -0.100  -0.259   1.349  0.00  0.00    +0.047 C 
ATOM     10  C   LIG    1        0.736   0.151   2.543  0.00  0.00    +0.013 C 
ATOM     11  C   LIG    1        0.707   0.071   0.116  0.00  0.00    +0.158 C 
ATOM     12  C   LIG    1        0.364  -0.928  -1.009  0.00  0.00    +0.090 C 
ATOM     13  C   LIG    1        1.342  -2.073  -1.088  0.00  0.00    +0.048 C 
ATOM     14  C   LIG    1        0.566  -3.242  -1.705  0.00  0.00    +0.055 C 
ATOM     15  C   LIG    1        0.463  -4.367  -0.735  0.00  0.00    +0.143 C 
ATOM     16  O   LIG    1        1.351  -4.427   0.098  0.00  0.00    -0.297 OA
ATOM     17  C   LIG    1       -0.603  -5.368  -0.725  0.00  0.00    +0.097 C 
ATOM     18  C   LIG    1       -0.399  -6.371  -1.865  0.00  0.00    +0.019 C 
ATOM     19  C   LIG    1        1.331  -3.820  -2.905  0.00  0.00    +0.015 C 
ATOM     20  C   LIG    1        0.392  -0.243  -2.372  0.00  0.00    +0.044 C 
ATOM     21  C   LIG    1       -3.754  -0.184   0.695  0.00  0.00    +0.022 C 
ATOM     22  O   LIG    1       -3.650  -5.775   0.517  0.00  0.00    -0.420 OA
ATOM     23  C   LIG    1       -3.525  -6.527  -0.643  0.00  0.00    +0.511 C 
ATOM     24  O   LIG    1       -4.036  -7.669  -0.760  0.00  0.00    -0.203 OA
ATOM     25  O   LIG    1       -2.777  -5.787  -1.540  0.00  0.00    -0.426 OA
ATOM     26  C   LIG    1       -1.984  -4.834  -0.826  0.00  0.00    +0.237 C 
ENDROOT
BRANCH  12  27
ATOM     27  O   LIG    1       -0.862  -1.470  -0.728  0.00  0.00    -0.386 OA
ATOM     28  H   LIG    1       -0.762  -2.303  -0.220  0.00  0.00    +0.210 HD
ENDBRANCH  12  27
BRANCH   3  29
ATOM     29  C   LIG    1       -4.979  -3.725   0.483  0.00  0.00    +0.045 C 
ATOM     30  C   LIG    1       -5.463  -4.632   1.567  0.00  0.00    +0.007 C 
ENDBRANCH   3  29
BRANCH   8  31
ATOM     31  O   LIG    1       -1.234   1.659   1.952  0.00  0.00    -0.347 OA
BRANCH  31  32
ATOM     32  C   LIG    1       -1.272   2.740   1.155  0.00  0.00    +0.254 C 
ATOM     33  C   LIG    1       -2.455   3.601   1.542  0.00  0.00    +0.098 C 
ATOM     34  C   LIG    1       -2.803   4.447   0.352  0.00  0.00    +0.099 C 
ATOM     35  C   LIG    1       -1.568   4.733  -0.419  0.00  0.00    +0.175 C 
ATOM     36  C   LIG    1       -0.354   4.744   0.455  0.00  0.00    +0.149 C 
ATOM     37  C   LIG    1        0.836   4.778  -0.532  0.00  0.00    +0.041 C 
ATOM     38  C   LIG    1       -3.695   3.617  -0.599  0.00  0.00    +0.044 C 
ATOM     39  O   LIG    1       -0.159   3.570   1.162  0.00  0.00    -0.346 OA
BRANCH  34  40
ATOM     40  O   LIG    1       -3.574   5.547   0.667  0.00  0.00    -0.374 OA
ATOM     41  C   LIG    1       -3.038   6.448   1.537  0.00  0.00    +0.194 C 
ENDBRANCH  34  40
BRANCH  35  42
ATOM     42  O   LIG    1       -1.673   5.936  -1.117  0.00  0.00    -0.386 OA
ATOM     43  H   LIG    1       -1.032   5.918  -1.857  0.00  0.00    +0.210 HD
ENDBRANCH  35  42
ENDBRANCH  31  32
ENDBRANCH   8  31
BRANCH  11  44
ATOM     44  O   LIG    1        2.073  -0.050   0.242  0.00  0.00    -0.342 OA
BRANCH  44  45
ATOM     45  C   LIG    1        2.821   0.973  -0.336  0.00  0.00    +0.281 C 
ATOM     46  C   LIG    1        3.732   1.562   0.684  0.00  0.00    +0.187 C 
ATOM     47  C   LIG    1        4.622   2.643   0.092  0.00  0.00    +0.092 C 
ATOM     48  C   LIG    1        5.338   2.056  -1.097  0.00  0.00    +0.053 C 
ATOM     49  C   LIG    1        4.295   1.429  -2.009  0.00  0.00    +0.120 C 
ATOM     50  C   LIG    1        5.003   0.826  -3.203  0.00  0.00    +0.038 C 
ATOM     51  O   LIG    1        3.604   0.433  -1.379  0.00  0.00    -0.346 OA
BRANCH  47  52
ATOM     52  N   LIG    1        5.515   3.168   1.083  0.00  0.00    -0.303 NA
ATOM     53  C   LIG    1        6.400   2.192   1.657  0.00  0.00    +0.105 C 
ATOM     54  C   LIG    1        6.309   4.223   0.475  0.00  0.00    +0.105 C 
ENDBRANCH  47  52
BRANCH  46  55
ATOM     55  O   LIG    1        3.005   2.226   1.708  0.00  0.00    -0.385 OA
ATOM     56  H   LIG    1        3.602   2.569   2.391  0.00  0.00    +0.210 HD
ENDBRANCH  46  55
ENDBRANCH  44  45
ENDBRANCH  11  44
TORSDOF 10
