REMARK  Name = molecules/NKPPORKKCMYYTO-DHZHZOJOSA-N.pdb
REMARK                            x       y       z     vdW  Elec       q    Type
REMARK                         _______ _______ _______ _____ _____    ______ ____
ROOT
ATOM      1  C   LIG    1       -1.918  -0.820  -0.144  0.00  0.00    -0.008 A 
ATOM      2  C   LIG    1       -2.389   0.334   0.403  0.00  0.00    +0.008 A 
ATOM      3  C   LIG    1       -3.621   0.636   0.938  0.00  0.00    +0.056 A 
ATOM      4  C   LIG    1       -3.919   1.874   1.454  0.00  0.00    +0.121 A 
ATOM      5  C   LIG    1       -2.918   2.815   1.412  0.00  0.00    +0.048 A 
ATOM      6  C   LIG    1       -1.659   2.517   0.868  0.00  0.00    +0.030 A 
ATOM      7  C   LIG    1       -1.379   1.266   0.354  0.00  0.00    +0.057 A 
ATOM      8  N   LIG    1       -0.250   0.708  -0.226  0.00  0.00    -0.281 N 
ATOM      9  C   LIG    1        0.955   1.402  -0.270  0.00  0.00    +0.256 C 
ATOM     10  O   LIG    1        0.818   2.743  -0.221  0.00  0.00    -0.267 OA
ATOM     11  C   LIG    1       -0.597  -0.527  -0.514  0.00  0.00    +0.028 A 
ATOM     12  C   LIG    1        0.192  -1.554  -1.257  0.00  0.00    +0.064 C 
ENDROOT
BRANCH   4  13
ATOM     13  O   LIG    1       -5.140   2.172   1.983  0.00  0.00    -0.495 OA
ATOM     14  C   LIG    1       -6.215   1.251   2.058  0.00  0.00    +0.277 C 
ENDBRANCH   4  13
BRANCH   9  15
ATOM     15  C   LIG    1        2.339   1.088  -0.348  0.00  0.00    +0.071 C 
ATOM     16  C   LIG    1        3.019  -0.012  -0.343  0.00  0.00    +0.013 C 
BRANCH  16  17
ATOM     17  C   LIG    1        4.475  -0.164  -0.440  0.00  0.00    -0.025 A 
ATOM     18  C   LIG    1        5.061  -1.413  -0.446  0.00  0.00    +0.008 A 
ATOM     19  C   LIG    1        6.417  -1.534  -0.533  0.00  0.00    +0.001 A 
ATOM     20  C   LIG    1        7.219  -0.423  -0.617  0.00  0.00    +0.000 A 
ATOM     21  C   LIG    1        6.685   0.832  -0.615  0.00  0.00    +0.001 A 
ATOM     22  C   LIG    1        5.279   0.931  -0.523  0.00  0.00    +0.008 A 
ENDBRANCH  16  17
ENDBRANCH   9  15
BRANCH   1  23
ATOM     23  C   LIG    1       -2.571  -2.118  -0.345  0.00  0.00    +0.158 C 
BRANCH  23  24
ATOM     24  C   LIG    1       -3.507  -2.158  -1.473  0.00  0.00    +0.309 C 
ATOM     25  O   LIG    1       -3.760  -1.186  -2.223  0.00  0.00    -0.251 OA
BRANCH  24  26
ATOM     26  O   LIG    1       -4.164  -3.350  -1.735  0.00  0.00    -0.480 OA
ATOM     27  H   LIG    1       -3.986  -3.768  -2.638  0.00  0.00    +0.295 HD
ENDBRANCH  24  26
ENDBRANCH  23  24
ENDBRANCH   1  23
TORSDOF 6
