REMARK  Name = molecules/NLORYLAYLIXTID-ISLYRVAYSA-N.pdb
REMARK                            x       y       z     vdW  Elec       q    Type
REMARK                         _______ _______ _______ _____ _____    ______ ____
ROOT
ATOM      1  C   LIG    1        0.619   0.090  -0.179  0.00  0.00    -0.037 C 
ATOM      2  C   LIG    1       -0.218  -0.801   0.255  0.00  0.00    -0.037 C 
ENDROOT
BRANCH   2   3
ATOM      3  C   LIG    1       -1.663  -0.712   0.009  0.00  0.00    -0.021 A 
ATOM      4  C   LIG    1       -2.417   0.370   0.408  0.00  0.00    +0.012 A 
ATOM      5  C   LIG    1       -3.773   0.433   0.179  0.00  0.00    +0.047 A 
ATOM      6  C   LIG    1       -4.420  -0.599  -0.464  0.00  0.00    +0.132 A 
ATOM      7  C   LIG    1       -3.645  -1.676  -0.857  0.00  0.00    +0.047 A 
ATOM      8  C   LIG    1       -2.300  -1.739  -0.630  0.00  0.00    +0.012 A 
BRANCH   6   9
ATOM      9  O   LIG    1       -5.804  -0.575  -0.718  0.00  0.00    -0.404 OA
BRANCH   9  10
ATOM     10  P   LIG    1       -6.766   0.755  -0.233  0.00  0.00    +0.528 P 
ATOM     11  O   LIG    1       -6.640   1.013   1.263  0.00  0.00    -0.216 OA
BRANCH  10  12
ATOM     12  O   LIG    1       -8.388   0.363  -0.519  0.00  0.00    -0.293 OA
ATOM     13  H   LIG    1       -8.647   0.549  -1.475  0.00  0.00    +0.223 HD
ENDBRANCH  10  12
BRANCH  10  14
ATOM     14  O   LIG    1       -6.321   2.187  -1.022  0.00  0.00    -0.293 OA
ATOM     15  H   LIG    1       -5.907   2.838  -0.402  0.00  0.00    +0.223 HD
ENDBRANCH  10  14
ENDBRANCH   9  10
ENDBRANCH   6   9
ENDBRANCH   2   3
BRANCH   1  16
ATOM     16  C   LIG    1        2.084  -0.064   0.176  0.00  0.00    -0.021 A 
ATOM     17  C   LIG    1        2.643   1.052   0.760  0.00  0.00    +0.012 A 
ATOM     18  C   LIG    1        3.998   1.054   1.090  0.00  0.00    +0.047 A 
ATOM     19  C   LIG    1        4.727  -0.079   0.811  0.00  0.00    +0.132 A 
ATOM     20  C   LIG    1        4.143  -1.183   0.225  0.00  0.00    +0.047 A 
ATOM     21  C   LIG    1        2.791  -1.183  -0.103  0.00  0.00    +0.012 A 
BRANCH  19  22
ATOM     22  O   LIG    1        6.077  -0.128   1.120  0.00  0.00    -0.404 OA
BRANCH  22  23
ATOM     23  P   LIG    1        7.192   0.390  -0.055  0.00  0.00    +0.528 P 
ATOM     24  O   LIG    1        8.595  -0.043   0.283  0.00  0.00    -0.216 OA
BRANCH  23  25
ATOM     25  O   LIG    1        7.139   2.080  -0.124  0.00  0.00    -0.293 OA
ATOM     26  H   LIG    1        6.188   2.336  -0.339  0.00  0.00    +0.223 HD
ENDBRANCH  23  25
BRANCH  23  27
ATOM     27  O   LIG    1        6.780  -0.273  -1.552  0.00  0.00    -0.293 OA
ATOM     28  H   LIG    1        5.951   0.135  -1.930  0.00  0.00    +0.223 HD
ENDBRANCH  23  27
ENDBRANCH  22  23
ENDBRANCH  19  22
ENDBRANCH   1  16
BRANCH   2  29
ATOM     29  C   LIG    1        0.239  -1.923   1.150  0.00  0.00    +0.032 C 
ATOM     30  C   LIG    1       -0.630  -1.947   2.410  0.00  0.00    +0.009 C 
ENDBRANCH   2  29
BRANCH   1  31
ATOM     31  C   LIG    1        0.398   1.245  -1.049  0.00  0.00    +0.032 C 
ATOM     32  C   LIG    1       -0.861   1.419  -1.782  0.00  0.00    +0.009 C 
ENDBRANCH   1  31
TORSDOF 12
