REMARK  Name = molecules/NLYNIRQVMRLPIQ-XQLAAWPRSA-N.pdb
REMARK                            x       y       z     vdW  Elec       q    Type
REMARK                         _______ _______ _______ _____ _____    ______ ____
ROOT
ATOM      1  C   LIG    1        1.840  -2.894  -0.134  0.00  0.00    +0.013 C 
ATOM      2  C   LIG    1        1.299  -1.619   0.456  0.00  0.00    +0.048 C 
ATOM      3  C   LIG    1       -0.184  -1.498   0.384  0.00  0.00    +0.037 C 
ATOM      4  C   LIG    1       -0.591  -0.022   0.279  0.00  0.00    +0.161 C 
ATOM      5  O   LIG    1       -0.010   0.601   1.393  0.00  0.00    -0.220 OA
ATOM      6  O   LIG    1       -0.245   1.863   1.463  0.00  0.00    -0.199 OA
ATOM      7  C   LIG    1       -0.434   2.498   0.253  0.00  0.00    +0.203 C 
ATOM      8  C   LIG    1        0.064   3.946   0.380  0.00  0.00    +0.077 C 
ATOM      9  C   LIG    1       -1.922   2.608   0.018  0.00  0.00    +0.068 C 
ATOM     10  C   LIG    1       -2.546   1.354  -0.488  0.00  0.00    +0.012 C 
ATOM     11  O   LIG    1        0.253   1.940  -0.794  0.00  0.00    -0.314 OA
ATOM     12  C   LIG    1       -2.067   0.162   0.314  0.00  0.00    +0.032 C 
ATOM     13  C   LIG    1       -2.860  -1.029  -0.114  0.00  0.00    -0.008 C 
ATOM     14  C   LIG    1       -3.257  -1.919   1.042  0.00  0.00    +0.008 C 
ATOM     15  C   LIG    1       -2.151  -1.889  -1.130  0.00  0.00    +0.004 C 
ATOM     16  C   LIG    1        0.069   0.578  -0.939  0.00  0.00    +0.292 C 
ATOM     17  O   LIG    1        1.279   0.006  -1.247  0.00  0.00    -0.319 OA
ATOM     18  C   LIG    1       -0.801  -2.334  -0.683  0.00  0.00    +0.007 C 
ATOM     19  C   LIG    1        2.015  -0.413  -0.164  0.00  0.00    +0.256 C 
ENDROOT
BRANCH  19  20
ATOM     20  O   LIG    1        3.277  -0.788  -0.632  0.00  0.00    -0.351 OA
BRANCH  20  21
ATOM     21  C   LIG    1        4.296  -0.088  -0.007  0.00  0.00    +0.159 C 
ATOM     22  C   LIG    1        4.195   1.407  -0.213  0.00  0.00    +0.034 C 
ENDBRANCH  20  21
ENDBRANCH  19  20
TORSDOF 2
