REMARK  Name = molecules/NMAOJFAMEOVURT-BBWFWOEESA-N.pdb
REMARK                            x       y       z     vdW  Elec       q    Type
REMARK                         _______ _______ _______ _____ _____    ______ ____
ROOT
ATOM      1  C   LIG    1       -0.321  -0.300   0.670  0.00  0.00    +0.021 C 
ATOM      2  C   LIG    1       -0.516  -1.481   1.521  0.00  0.00    +0.118 C 
ATOM      3  C   LIG    1       -1.501  -1.126   2.625  0.00  0.00    +0.032 C 
ATOM      4  C   LIG    1       -1.712   0.365   2.566  0.00  0.00    +0.006 C 
ATOM      5  C   LIG    1       -1.022   0.875   1.359  0.00  0.00    -0.005 C 
ENDROOT
BRANCH   2   6
ATOM      6  O   LIG    1        0.618  -1.988   2.121  0.00  0.00    -0.392 OA
ATOM      7  H   LIG    1        0.559  -1.997   3.127  0.00  0.00    +0.210 HD
ENDBRANCH   2   6
BRANCH   1   8
ATOM      8  C   LIG    1        1.044   0.105   0.332  0.00  0.00    +0.006 C 
BRANCH   8   9
ATOM      9  C   LIG    1        1.916  -0.874  -0.345  0.00  0.00    +0.000 C 
BRANCH   9  10
ATOM     10  C   LIG    1        3.277  -0.196  -0.579  0.00  0.00    +0.000 C 
BRANCH  10  11
ATOM     11  C   LIG    1        4.150  -1.221  -1.274  0.00  0.00    +0.001 C 
BRANCH  11  12
ATOM     12  C   LIG    1        5.526  -0.715  -1.580  0.00  0.00    +0.011 C 
BRANCH  12  13
ATOM     13  C   LIG    1        6.255  -0.311  -0.305  0.00  0.00    +0.120 C 
BRANCH  13  14
ATOM     14  C   LIG    1        7.621   0.188  -0.633  0.00  0.00    +0.305 C 
ATOM     15  O   LIG    1        7.987   0.216  -1.827  0.00  0.00    -0.251 OA
BRANCH  14  16
ATOM     16  O   LIG    1        8.414   0.597   0.431  0.00  0.00    -0.481 OA
ATOM     17  H   LIG    1        8.186   1.409   1.004  0.00  0.00    +0.295 HD
ENDBRANCH  14  16
ENDBRANCH  13  14
ENDBRANCH  12  13
ENDBRANCH  11  12
ENDBRANCH  10  11
ENDBRANCH   9  10
ENDBRANCH   8   9
ENDBRANCH   1   8
BRANCH   5  18
ATOM     18  C   LIG    1       -1.771   1.736   0.424  0.00  0.00    +0.004 C 
BRANCH  18  19
ATOM     19  C   LIG    1       -2.845   1.154  -0.401  0.00  0.00    +0.000 C 
BRANCH  19  20
ATOM     20  C   LIG    1       -3.984   0.520   0.316  0.00  0.00    +0.000 C 
BRANCH  20  21
ATOM     21  C   LIG    1       -5.043  -0.010  -0.646  0.00  0.00    -0.000 C 
BRANCH  21  22
ATOM     22  C   LIG    1       -5.631   1.065  -1.507  0.00  0.00    -0.003 C 
ATOM     23  C   LIG    1       -6.668   0.440  -2.420  0.00  0.00    +0.004 C 
ENDBRANCH  21  22
ENDBRANCH  20  21
ENDBRANCH  19  20
ENDBRANCH  18  19
ENDBRANCH   5  18
TORSDOF 14
