REMARK  Name = molecules/NMBNQRJDEPOXCP-ZDUSSCGKSA-N.pdb
REMARK                            x       y       z     vdW  Elec       q    Type
REMARK                         _______ _______ _______ _____ _____    ______ ____
ROOT
ATOM      1  C   LIG    1        3.006  -0.403  -0.488  0.00  0.00    +0.035 A 
ATOM      2  C   LIG    1        4.037  -1.101   0.081  0.00  0.00    +0.048 A 
ATOM      3  C   LIG    1        3.817  -2.342   0.701  0.00  0.00    +0.124 A 
ATOM      4  F   LIG    1        4.870  -2.988   1.259  0.00  0.00    -0.205 F 
ATOM      5  C   LIG    1        2.597  -2.918   0.772  0.00  0.00    +0.042 A 
ATOM      6  C   LIG    1        1.533  -2.230   0.199  0.00  0.00    +0.049 A 
ATOM      7  C   LIG    1        1.708  -1.009  -0.413  0.00  0.00    +0.127 A 
ENDROOT
BRANCH   1   8
ATOM      8  C   LIG    1        3.136   0.852  -1.149  0.00  0.00    +0.169 C 
ATOM      9  O   LIG    1        2.034   1.403  -1.571  0.00  0.00    -0.219 OA
BRANCH   8  10
ATOM     10  C   LIG    1        4.311   1.641  -1.449  0.00  0.00    +0.046 C 
BRANCH  10  11
ATOM     11  C   LIG    1        5.586   1.558  -0.751  0.00  0.00    -0.000 C 
ATOM     12  C   LIG    1        5.632   1.841   0.708  0.00  0.00    +0.004 C 
ENDBRANCH  10  11
ENDBRANCH   8  10
ENDBRANCH   1   8
BRANCH   7  13
ATOM     13  O   LIG    1        0.706  -0.285  -0.989  0.00  0.00    -0.489 OA
BRANCH  13  14
ATOM     14  C   LIG    1       -0.631  -0.569  -1.061  0.00  0.00    +0.261 C 
BRANCH  14  15
ATOM     15  C   LIG    1       -1.339  -0.564   0.272  0.00  0.00    +0.166 C 
BRANCH  15  16
ATOM     16  O   LIG    1       -1.292   0.708   0.799  0.00  0.00    -0.387 OA
ATOM     17  H   LIG    1       -0.574   1.221   0.382  0.00  0.00    +0.210 HD
ENDBRANCH  15  16
BRANCH  15  18
ATOM     18  C   LIG    1       -2.612  -1.293   0.330  0.00  0.00    +0.116 C 
BRANCH  18  19
ATOM     19  N   LIG    1       -3.807  -0.887  -0.193  0.00  0.00    -0.309 NA
ATOM     20  H   LIG    1       -4.003  -1.197  -1.192  0.00  0.00    +0.123 HD
BRANCH  19  21
ATOM     21  C   LIG    1       -4.669   0.073   0.295  0.00  0.00    +0.011 C 
ATOM     22  C   LIG    1       -4.131   1.169   1.168  0.00  0.00    +0.027 C 
ATOM     23  C   LIG    1       -5.837  -0.542   1.103  0.00  0.00    +0.027 C 
ATOM     24  C   LIG    1       -5.351   0.796  -0.870  0.00  0.00    +0.027 C 
ENDBRANCH  19  21
ENDBRANCH  18  19
ENDBRANCH  15  18
ENDBRANCH  14  15
ENDBRANCH  13  14
ENDBRANCH   7  13
TORSDOF 10
