REMARK  Name = molecules/NMCHYWGKBADVMK-ZDUSSCGKSA-N.pdb
REMARK                            x       y       z     vdW  Elec       q    Type
REMARK                         _______ _______ _______ _____ _____    ______ ____
ROOT
ATOM      1  C   LIG    1       -1.000  -1.406  -1.954  0.00  0.00    +0.138 C 
ENDROOT
BRANCH   1   2
ATOM      2  N   LIG    1       -1.953  -0.329  -1.762  0.00  0.00    -0.323 N 
ATOM      3  C   LIG    1       -2.747  -0.170  -0.714  0.00  0.00    +0.151 A 
ATOM      4  C   LIG    1       -3.028  -0.857   0.447  0.00  0.00    +0.282 A 
ATOM      5  N   LIG    1       -3.938  -0.376   1.306  0.00  0.00    -0.262 N 
ATOM      6  C   LIG    1       -4.176  -1.166   2.505  0.00  0.00    +0.157 C 
ATOM      7  C   LIG    1       -4.614   0.748   1.122  0.00  0.00    +0.333 A 
ATOM      8  O   LIG    1       -5.458   1.180   1.934  0.00  0.00    -0.246 OA
ATOM      9  N   LIG    1       -4.357   1.445  -0.016  0.00  0.00    -0.280 N 
ATOM     10  C   LIG    1       -5.059   2.699  -0.279  0.00  0.00    +0.155 C 
ATOM     11  O   LIG    1       -2.424  -1.930   0.678  0.00  0.00    -0.265 OA
ATOM     12  C   LIG    1       -3.467   1.014  -0.900  0.00  0.00    +0.168 A 
ATOM     13  N   LIG    1       -3.065   1.524  -2.081  0.00  0.00    -0.218 NA
ATOM     14  C   LIG    1       -2.147   0.712  -2.608  0.00  0.00    +0.202 A 
ENDBRANCH   1   2
BRANCH   1  15
ATOM     15  C   LIG    1        0.375  -0.979  -1.505  0.00  0.00    +0.102 C 
BRANCH  15  16
ATOM     16  N   LIG    1        0.342  -0.625  -0.111  0.00  0.00    -0.312 NA
ATOM     17  H   LIG    1        0.198  -1.510   0.483  0.00  0.00    +0.122 HD
BRANCH  16  18
ATOM     18  C   LIG    1        1.606  -0.012   0.309  0.00  0.00    +0.055 C 
ATOM     19  C   LIG    1        1.393   0.468   1.726  0.00  0.00    +0.024 C 
BRANCH  18  20
ATOM     20  C   LIG    1        2.705  -1.002   0.178  0.00  0.00    +0.053 C 
BRANCH  20  21
ATOM     21  C   LIG    1        4.026  -0.462   0.566  0.00  0.00    -0.046 A 
ATOM     22  C   LIG    1        4.457  -0.496   1.858  0.00  0.00    +0.004 A 
ATOM     23  C   LIG    1        5.724   0.019   2.136  0.00  0.00    +0.000 A 
ATOM     24  C   LIG    1        6.542   0.553   1.170  0.00  0.00    +0.000 A 
ATOM     25  C   LIG    1        6.101   0.591  -0.162  0.00  0.00    +0.000 A 
ATOM     26  C   LIG    1        4.847   0.079  -0.429  0.00  0.00    +0.004 A 
ENDBRANCH  20  21
ENDBRANCH  18  20
ENDBRANCH  16  18
ENDBRANCH  15  16
ENDBRANCH   1  15
TORSDOF 6
