REMARK  Name = molecules/NMDYYWFGPIMTKO-KLCPSUAYSA-N.pdb
REMARK                            x       y       z     vdW  Elec       q    Type
REMARK                         _______ _______ _______ _____ _____    ______ ____
ROOT
ATOM      1  C   LIG    1        3.520   1.806   0.781  0.00  0.00    +0.045 C 
ATOM      2  C   LIG    1        2.557   0.896   1.530  0.00  0.00    +0.083 C 
ATOM      3  N   LIG    1        2.537   1.121   2.935  0.00  0.00    -0.294 NA
ATOM      4  C   LIG    1        2.159  -0.124   3.574  0.00  0.00    +0.086 C 
ATOM      5  C   LIG    1        2.865  -1.133   2.727  0.00  0.00    +0.030 C 
ATOM      6  C   LIG    1        3.655   1.720   3.543  0.00  0.00    +0.111 C 
ATOM      7  C   LIG    1        4.873   1.873   2.759  0.00  0.00    -0.015 C 
ATOM      8  C   LIG    1        2.707  -0.537   1.321  0.00  0.00    +0.037 C 
ATOM      9  C   LIG    1        1.520  -1.201   0.727  0.00  0.00    -0.016 A 
ATOM     10  C   LIG    1        0.139  -0.983   0.847  0.00  0.00    +0.014 A 
ATOM     11  C   LIG    1       -0.797  -1.737   0.193  0.00  0.00    +0.017 A 
ATOM     12  C   LIG    1       -0.390  -2.758  -0.621  0.00  0.00    +0.126 A 
ATOM     13  C   LIG    1        0.963  -2.988  -0.753  0.00  0.00    +0.069 A 
ATOM     14  C   LIG    1        1.920  -2.216  -0.085  0.00  0.00    +0.037 A 
ATOM     15  N   LIG    1        3.353  -2.289  -0.086  0.00  0.00    -0.325 N 
ATOM     16  C   LIG    1        4.102  -3.419  -0.541  0.00  0.00    +0.129 C 
ATOM     17  C   LIG    1        3.805  -1.018   0.452  0.00  0.00    +0.132 C 
ATOM     18  C   LIG    1        4.324  -0.086  -0.558  0.00  0.00    +0.219 C 
ATOM     19  C   LIG    1        4.830   1.917   1.437  0.00  0.00    -0.018 C 
ATOM     20  C   LIG    1        3.676   1.294  -0.605  0.00  0.00    +0.232 C 
ENDROOT
BRANCH  11  21
ATOM     21  C   LIG    1       -2.224  -1.433   0.350  0.00  0.00    +0.136 C 
ATOM     22  C   LIG    1       -2.551  -0.509   1.473  0.00  0.00    +0.034 C 
ATOM     23  C   LIG    1       -2.701   0.930   1.194  0.00  0.00    +0.005 C 
ATOM     24  C   LIG    1       -3.052   1.571   2.565  0.00  0.00    +0.015 C 
ATOM     25  C   LIG    1       -4.377   1.113   3.074  0.00  0.00    +0.072 C 
ATOM     26  C   LIG    1       -5.393   0.701   2.058  0.00  0.00    +0.094 C 
ATOM     27  N   LIG    1       -5.042   0.753   0.725  0.00  0.00    -0.297 NA
ATOM     28  C   LIG    1       -5.436  -0.312  -0.169  0.00  0.00    +0.122 C 
ATOM     29  C   LIG    1       -4.252  -0.597  -1.063  0.00  0.00    -0.004 A 
ATOM     30  C   LIG    1       -4.382  -0.333  -2.411  0.00  0.00    +0.004 A 
ATOM     31  C   LIG    1       -3.166  -0.593  -2.967  0.00  0.00    +0.047 A 
ATOM     32  N   LIG    1       -2.275  -1.007  -2.039  0.00  0.00    -0.357 N 
ATOM     33  H   LIG    1       -1.277  -1.231  -2.225  0.00  0.00    +0.166 HD
ATOM     34  C   LIG    1       -2.988  -0.419  -4.314  0.00  0.00    +0.026 A 
ATOM     35  C   LIG    1       -4.049   0.019  -5.096  0.00  0.00    +0.002 A 
ATOM     36  C   LIG    1       -5.285   0.285  -4.553  0.00  0.00    +0.001 A 
ATOM     37  C   LIG    1       -5.462   0.108  -3.183  0.00  0.00    +0.010 A 
ATOM     38  C   LIG    1       -3.817   1.377   0.333  0.00  0.00    +0.088 C 
ATOM     39  C   LIG    1       -2.929  -1.018  -0.870  0.00  0.00    +0.043 A 
BRANCH  25  40
ATOM     40  C   LIG    1       -4.897   2.184   4.021  0.00  0.00    +0.250 C 
ATOM     41  F   LIG    1       -3.981   2.307   5.046  0.00  0.00    -0.206 F 
ATOM     42  F   LIG    1       -6.153   1.823   4.517  0.00  0.00    -0.206 F 
ATOM     43  C   LIG    1       -5.067   3.512   3.348  0.00  0.00    +0.085 C 
ENDBRANCH  25  40
BRANCH  21  44
ATOM     44  C   LIG    1       -2.810  -2.772   0.795  0.00  0.00    +0.323 C 
ATOM     45  O   LIG    1       -2.083  -3.764   1.052  0.00  0.00    -0.249 OA
BRANCH  44  46
ATOM     46  O   LIG    1       -4.160  -2.958   0.938  0.00  0.00    -0.467 OA
ATOM     47  C   LIG    1       -4.728  -4.189   1.351  0.00  0.00    +0.280 C 
ENDBRANCH  44  46
ENDBRANCH  21  44
ENDBRANCH  11  21
BRANCH   1  48
ATOM     48  C   LIG    1        2.803   3.158   0.752  0.00  0.00    +0.013 C 
ATOM     49  C   LIG    1        3.548   4.256   0.097  0.00  0.00    +0.005 C 
ENDBRANCH   1  48
BRANCH  12  50
ATOM     50  O   LIG    1       -1.298  -3.594  -1.334  0.00  0.00    -0.495 OA
ATOM     51  C   LIG    1       -0.811  -4.614  -2.144  0.00  0.00    +0.277 C 
ENDBRANCH  12  50
BRANCH  18  52
ATOM     52  O   LIG    1        5.692   0.123  -0.416  0.00  0.00    -0.373 OA
ATOM     53  H   LIG    1        6.242  -0.355  -1.059  0.00  0.00    +0.211 HD
ENDBRANCH  18  52
BRANCH  18  54
ATOM     54  C   LIG    1        4.152  -0.619  -1.964  0.00  0.00    +0.345 C 
ATOM     55  O   LIG    1        3.003  -0.901  -2.384  0.00  0.00    -0.247 OA
BRANCH  54  56
ATOM     56  O   LIG    1        5.215  -0.816  -2.826  0.00  0.00    -0.466 OA
ATOM     57  C   LIG    1        5.095  -1.306  -4.128  0.00  0.00    +0.280 C 
ENDBRANCH  54  56
ENDBRANCH  18  54
BRANCH  20  58
ATOM     58  O   LIG    1        4.628   2.090  -1.289  0.00  0.00    -0.457 OA
BRANCH  58  59
ATOM     59  C   LIG    1        4.398   2.630  -2.533  0.00  0.00    +0.304 C 
ATOM     60  O   LIG    1        3.293   2.402  -3.075  0.00  0.00    -0.251 OA
ATOM     61  C   LIG    1        5.454   3.447  -3.169  0.00  0.00    +0.136 C 
ENDBRANCH  58  59
ENDBRANCH  20  58
TORSDOF 11
