REMARK  Name = molecules/NMKSAYKQLCHXDK-LJQANCHMSA-N.pdb
REMARK                            x       y       z     vdW  Elec       q    Type
REMARK                         _______ _______ _______ _____ _____    ______ ____
ROOT
ATOM      1  C   LIG    1       -1.766   0.317  -0.665  0.00  0.00    +0.050 C 
ENDROOT
BRANCH   1   2
ATOM      2  C   LIG    1       -1.762  -0.936   0.118  0.00  0.00    -0.040 A 
ATOM      3  C   LIG    1       -1.391  -0.917   1.451  0.00  0.00    +0.004 A 
ATOM      4  C   LIG    1       -1.377  -2.054   2.232  0.00  0.00    +0.000 A 
ATOM      5  C   LIG    1       -1.738  -3.270   1.707  0.00  0.00    +0.000 A 
ATOM      6  C   LIG    1       -2.112  -3.317   0.382  0.00  0.00    +0.000 A 
ATOM      7  C   LIG    1       -2.120  -2.168  -0.385  0.00  0.00    +0.004 A 
ENDBRANCH   1   2
BRANCH   1   8
ATOM      8  C   LIG    1       -2.685   1.354  -0.180  0.00  0.00    -0.040 A 
ATOM      9  C   LIG    1       -4.006   1.031   0.154  0.00  0.00    +0.004 A 
ATOM     10  C   LIG    1       -4.882   1.998   0.591  0.00  0.00    +0.000 A 
ATOM     11  C   LIG    1       -4.512   3.312   0.719  0.00  0.00    +0.000 A 
ATOM     12  C   LIG    1       -3.217   3.642   0.393  0.00  0.00    +0.000 A 
ATOM     13  C   LIG    1       -2.327   2.664  -0.050  0.00  0.00    +0.004 A 
ENDBRANCH   1   8
BRANCH   1  14
ATOM     14  C   LIG    1       -0.419   0.777  -1.105  0.00  0.00    +0.028 C 
BRANCH  14  15
ATOM     15  C   LIG    1        0.593   1.028  -0.046  0.00  0.00    +0.082 C 
BRANCH  15  16
ATOM     16  N   LIG    1        1.800   1.503  -0.572  0.00  0.00    -0.310 NA
ATOM     17  H   LIG    1        1.892   2.517  -0.683  0.00  0.00    +0.122 HD
BRANCH  16  18
ATOM     18  C   LIG    1        2.684   0.739  -1.333  0.00  0.00    +0.081 C 
ATOM     19  C   LIG    1        2.281   0.194  -2.640  0.00  0.00    +0.029 C 
BRANCH  18  20
ATOM     20  C   LIG    1        3.358  -0.265  -0.440  0.00  0.00    -0.031 A 
ATOM     21  C   LIG    1        3.781   0.130   0.837  0.00  0.00    +0.005 A 
ATOM     22  C   LIG    1        4.396  -0.773   1.675  0.00  0.00    +0.000 A 
ATOM     23  C   LIG    1        4.619  -2.082   1.302  0.00  0.00    +0.000 A 
ATOM     24  C   LIG    1        4.203  -2.464   0.051  0.00  0.00    +0.000 A 
ATOM     25  C   LIG    1        3.574  -1.551  -0.815  0.00  0.00    +0.005 A 
ENDBRANCH  18  20
ENDBRANCH  16  18
ENDBRANCH  15  16
ENDBRANCH  14  15
ENDBRANCH   1  14
TORSDOF 7
