REMARK  Name = molecules/NMLMACJWHPHKGR-NCOIDOBVSA-N.pdb
REMARK                            x       y       z     vdW  Elec       q    Type
REMARK                         _______ _______ _______ _____ _____    ______ ____
ROOT
ATOM      1  O   LIG    1        0.569  -2.407  -0.194  0.00  0.00    -0.186 OA
ENDROOT
BRANCH   1   2
ATOM      2  P   LIG    1       -0.996  -1.760  -0.049  0.00  0.00    +0.492 P 
ATOM      3  O   LIG    1       -1.216  -0.853  -1.223  0.00  0.00    -0.226 OA
BRANCH   2   4
ATOM      4  O   LIG    1       -2.100  -3.038  -0.029  0.00  0.00    -0.302 OA
ATOM      5  H   LIG    1       -1.760  -3.731   0.603  0.00  0.00    +0.222 HD
ENDBRANCH   2   4
BRANCH   2   6
ATOM      6  O   LIG    1       -1.137  -0.897   1.391  0.00  0.00    -0.186 OA
BRANCH   6   7
ATOM      7  P   LIG    1       -2.181   0.399   1.207  0.00  0.00    +0.483 P 
ATOM      8  O   LIG    1       -2.483   0.933   2.609  0.00  0.00    -0.227 OA
BRANCH   7   9
ATOM      9  O   LIG    1       -1.374   1.591   0.308  0.00  0.00    -0.302 OA
ATOM     10  H   LIG    1       -1.556   1.453  -0.646  0.00  0.00    +0.222 HD
ENDBRANCH   7   9
BRANCH   7  11
ATOM     11  O   LIG    1       -3.617  -0.073   0.457  0.00  0.00    -0.284 OA
BRANCH  11  12
ATOM     12  C   LIG    1       -4.352   1.031   0.023  0.00  0.00    +0.206 C 
BRANCH  12  13
ATOM     13  C   LIG    1       -5.632   0.613  -0.644  0.00  0.00    +0.178 C 
ATOM     14  O   LIG    1       -6.455  -0.106   0.185  0.00  0.00    -0.346 OA
ATOM     15  C   LIG    1       -7.734   0.112  -0.265  0.00  0.00    +0.255 C 
ATOM     16  C   LIG    1       -7.765   1.584  -0.539  0.00  0.00    +0.195 C 
ATOM     17  C   LIG    1       -6.376   1.802  -1.154  0.00  0.00    +0.178 C 
BRANCH  15  18
ATOM     18  N   LIG    1       -8.751  -0.314   0.666  0.00  0.00    -0.271 N 
ATOM     19  C   LIG    1       -8.667  -0.018   1.976  0.00  0.00    +0.331 A 
ATOM     20  N   LIG    1       -9.598  -0.402   2.861  0.00  0.00    -0.275 N 
ATOM     21  H   LIG    1       -9.478  -0.140   3.873  0.00  0.00    +0.173 HD
ATOM     22  C   LIG    1      -10.674  -1.110   2.474  0.00  0.00    +0.254 A 
ATOM     23  O   LIG    1      -11.548  -1.465   3.329  0.00  0.00    -0.268 OA
ATOM     24  C   LIG    1      -10.779  -1.423   1.136  0.00  0.00    +0.088 A 
ATOM     25  O   LIG    1       -7.643   0.655   2.338  0.00  0.00    -0.246 OA
ATOM     26  C   LIG    1       -9.809  -1.021   0.230  0.00  0.00    +0.098 A 
ENDBRANCH  15  18
BRANCH  17  27
ATOM     27  O   LIG    1       -6.499   1.771  -2.542  0.00  0.00    -0.386 OA
ATOM     28  H   LIG    1       -5.711   1.304  -2.941  0.00  0.00    +0.210 HD
ENDBRANCH  17  27
BRANCH  16  29
ATOM     29  O   LIG    1       -8.757   1.951  -1.437  0.00  0.00    -0.385 OA
ATOM     30  H   LIG    1       -8.972   2.916  -1.337  0.00  0.00    +0.210 HD
ENDBRANCH  16  29
ENDBRANCH  12  13
ENDBRANCH  11  12
ENDBRANCH   7  11
ENDBRANCH   6   7
ENDBRANCH   2   6
ENDBRANCH   1   2
BRANCH   1  31
ATOM     31  P   LIG    1        1.650  -1.213   0.377  0.00  0.00    +0.492 P 
ATOM     32  O   LIG    1        2.916  -1.847   0.894  0.00  0.00    -0.226 OA
BRANCH  31  33
ATOM     33  O   LIG    1        0.943  -0.317   1.611  0.00  0.00    -0.302 OA
ATOM     34  H   LIG    1        1.241  -0.555   2.506  0.00  0.00    +0.222 HD
ENDBRANCH  31  33
BRANCH  31  35
ATOM     35  O   LIG    1        1.951  -0.179  -0.924  0.00  0.00    -0.186 OA
BRANCH  35  36
ATOM     36  P   LIG    1        2.421   1.343  -0.373  0.00  0.00    +0.483 P 
ATOM     37  O   LIG    1        1.553   2.399  -1.030  0.00  0.00    -0.227 OA
BRANCH  36  38
ATOM     38  O   LIG    1        2.255   1.385   1.312  0.00  0.00    -0.302 OA
ATOM     39  H   LIG    1        3.057   0.900   1.675  0.00  0.00    +0.222 HD
ENDBRANCH  36  38
BRANCH  36  40
ATOM     40  O   LIG    1        4.045   1.569  -0.732  0.00  0.00    -0.284 OA
BRANCH  40  41
ATOM     41  C   LIG    1        4.534   0.516  -1.528  0.00  0.00    +0.206 C 
BRANCH  41  44
ATOM     42  C   LIG    1        7.958   0.082  -0.965  0.00  0.00    +0.255 C 
ATOM     43  O   LIG    1        6.782   0.786  -0.721  0.00  0.00    -0.346 OA
ATOM     44  C   LIG    1        6.002   0.728  -1.847  0.00  0.00    +0.178 C 
ATOM     45  C   LIG    1        6.449  -0.443  -2.679  0.00  0.00    +0.178 C 
ATOM     46  C   LIG    1        7.495  -1.087  -1.758  0.00  0.00    +0.195 C 
BRANCH  42  53
ATOM     47  C   LIG    1        9.176   0.562   2.457  0.00  0.00    +0.088 A 
ATOM     48  C   LIG    1        9.685  -0.671   2.804  0.00  0.00    +0.254 A 
ATOM     49  O   LIG    1       10.197  -0.890   3.924  0.00  0.00    -0.268 OA
ATOM     50  N   LIG    1        9.605  -1.651   1.860  0.00  0.00    -0.275 N 
ATOM     51  H   LIG    1        9.984  -2.587   2.105  0.00  0.00    +0.173 HD
ATOM     52  C   LIG    1        9.053  -1.408   0.657  0.00  0.00    +0.331 A 
ATOM     53  N   LIG    1        8.554  -0.231   0.294  0.00  0.00    -0.271 N 
ATOM     54  O   LIG    1        9.010  -2.348  -0.162  0.00  0.00    -0.246 OA
ATOM     55  C   LIG    1        8.616   0.776   1.213  0.00  0.00    +0.098 A 
ENDBRANCH  42  53
BRANCH  46  56
ATOM     56  O   LIG    1        8.483  -1.589  -2.629  0.00  0.00    -0.385 OA
ATOM     57  H   LIG    1        8.180  -2.527  -2.830  0.00  0.00    +0.210 HD
ENDBRANCH  46  56
BRANCH  45  58
ATOM     58  O   LIG    1        7.018  -0.023  -3.873  0.00  0.00    -0.386 OA
ATOM     59  H   LIG    1        7.941  -0.333  -3.992  0.00  0.00    +0.210 HD
ENDBRANCH  45  58
ENDBRANCH  41  44
ENDBRANCH  40  41
ENDBRANCH  36  40
ENDBRANCH  35  36
ENDBRANCH  31  35
ENDBRANCH   1  31
TORSDOF 22
