REMARK  Name = molecules/NMUSYJAQQFHJEW-KVTDHHQDSA-N.pdb
REMARK                            x       y       z     vdW  Elec       q    Type
REMARK                         _______ _______ _______ _____ _____    ______ ____
ROOT
ATOM      1  C2* LIG    1       -0.783   0.420  -1.264  0.00  0.00    +0.193 C 
ATOM      2  C1* LIG    1       -0.136   0.482   0.101  0.00  0.00    +0.246 C 
ATOM      3  O4* LIG    1       -0.774  -0.528   0.858  0.00  0.00    -0.348 OA
ATOM      4  C4* LIG    1       -2.103  -0.242   0.546  0.00  0.00    +0.177 C 
ATOM      5  C3* LIG    1       -2.076  -0.311  -0.962  0.00  0.00    +0.178 C 
ENDROOT
BRANCH   2   6
ATOM      6  N   LIG    1        1.278   0.310   0.070  0.00  0.00    -0.201 N 
ATOM      7  C   LIG    1        1.881  -0.551   0.908  0.00  0.00    +0.342 C 
ATOM      8  N   LIG    1        3.237  -0.708   0.870  0.00  0.00    -0.085 NA
ATOM      9  C   LIG    1        4.002  -0.018   0.011  0.00  0.00    +0.407 C 
ATOM     10  N   LIG    1        3.387   0.842  -0.824  0.00  0.00    +0.015 NA
ATOM     11  C   LIG    1        2.030   0.991  -0.778  0.00  0.00    +0.406 C 
ATOM     12  O   LIG    1        1.536   1.808  -1.583  0.00  0.00    -0.230 OA
BRANCH   9  13
ATOM     13  N   LIG    1        5.420  -0.183  -0.027  0.00  0.00    -0.249 N 
ATOM     14  H   LIG    1        6.058   0.373   0.571  0.00  0.00    +0.241 HD
ATOM     15  H   LIG    1        5.807  -0.879  -0.673  0.00  0.00    +0.241 HD
ENDBRANCH   9  13
ENDBRANCH   2   6
BRANCH   1  16
ATOM     16  O2* LIG    1       -1.126   1.692  -1.720  0.00  0.00    -0.385 OA
ATOM     17  H2* LIG    1       -1.222   2.305  -0.960  0.00  0.00    +0.210 HD
ENDBRANCH   1  16
BRANCH   5  18
ATOM     18  O3* LIG    1       -3.183   0.394  -1.469  0.00  0.00    -0.386 OA
ATOM     19  H3* LIG    1       -3.954  -0.196  -1.598  0.00  0.00    +0.210 HD
ENDBRANCH   5  18
BRANCH   4  20
ATOM     20  C5* LIG    1       -3.067  -1.210   1.161  0.00  0.00    +0.190 C 
BRANCH  20  21
ATOM     21  O5* LIG    1       -2.898  -1.135   2.551  0.00  0.00    -0.392 OA
ATOM     22  H5* LIG    1       -2.591  -0.209   2.785  0.00  0.00    +0.210 HD
ENDBRANCH  20  21
ENDBRANCH   4  20
TORSDOF 6
