REMARK  Name = molecules/NMWQEPCLNXHPDX-UHFFFAOYSA-N.pdb
REMARK                            x       y       z     vdW  Elec       q    Type
REMARK                         _______ _______ _______ _____ _____    ______ ____
ROOT
ATOM      1  N   LIG    1        1.157  -2.180  -0.114  0.00  0.00    -0.192 N 
ATOM      2  H   LIG    1        1.115  -2.942  -0.874  0.00  0.00    +0.176 HD
ENDROOT
BRANCH   1   3
ATOM      3  C   LIG    1        0.020  -1.328   0.005  0.00  0.00    +0.201 A 
ATOM      4  N   LIG    1       -0.295  -0.323   0.836  0.00  0.00    -0.124 NA
ATOM      5  N   LIG    1       -1.406   0.274   0.721  0.00  0.00    -0.144 NA
ATOM      6  C   LIG    1       -2.269  -0.089  -0.232  0.00  0.00    +0.109 A 
ATOM      7  S   LIG    1       -1.396  -1.357  -0.971  0.00  0.00    -0.034 S 
BRANCH   6   8
ATOM      8  C   LIG    1       -3.591   0.484  -0.551  0.00  0.00    +0.013 C 
ATOM      9  C   LIG    1       -4.123   1.317   0.543  0.00  0.00    +0.018 C 
ATOM     10  C   LIG    1       -4.528  -0.721  -0.735  0.00  0.00    +0.018 C 
ATOM     11  C   LIG    1       -3.467   1.202  -1.892  0.00  0.00    +0.018 C 
ENDBRANCH   6   8
ENDBRANCH   1   3
BRANCH   1  12
ATOM     12  S   LIG    1        2.566  -2.079   0.819  0.00  0.00    +0.074 S 
ATOM     13  O   LIG    1        2.146  -2.069   2.315  0.00  0.00    -0.150 OA
ATOM     14  O   LIG    1        3.393  -3.308   0.583  0.00  0.00    -0.150 OA
BRANCH  12  15
ATOM     15  C   LIG    1        3.482  -0.607   0.627  0.00  0.00    +0.109 A 
ATOM     16  C   LIG    1        3.318   0.454   1.460  0.00  0.00    +0.029 A 
ATOM     17  C   LIG    1        4.101   1.589   1.278  0.00  0.00    +0.002 A 
ATOM     18  C   LIG    1        5.038   1.623   0.249  0.00  0.00    +0.000 A 
ATOM     19  C   LIG    1        5.174   0.533  -0.570  0.00  0.00    +0.002 A 
ATOM     20  C   LIG    1        4.412  -0.592  -0.405  0.00  0.00    +0.029 A 
ENDBRANCH  12  15
ENDBRANCH   1  12
TORSDOF 4
