REMARK  Name = molecules/NOOLISFMXDJSKH-KXUCPTDWSA-N.pdb
REMARK                            x       y       z     vdW  Elec       q    Type
REMARK                         _______ _______ _______ _____ _____    ______ ____
ROOT
ATOM      1  C   LIG    1        0.113  -0.887  -0.814  0.00  0.00    +0.118 C 
ATOM      2  C   LIG    1       -0.617   0.023   0.131  0.00  0.00    +0.020 C 
ATOM      3  C   LIG    1        0.240   1.230   0.372  0.00  0.00    +0.006 C 
ATOM      4  C   LIG    1        1.573   1.170  -0.306  0.00  0.00    +0.004 C 
ATOM      5  C   LIG    1        2.305  -0.114  -0.124  0.00  0.00    -0.012 C 
ATOM      6  C   LIG    1        3.255  -0.073   1.043  0.00  0.00    +0.007 C 
ATOM      7  C   LIG    1        1.385  -1.324  -0.073  0.00  0.00    +0.035 C 
ENDROOT
BRANCH   2   8
ATOM      8  C   LIG    1       -1.996   0.339  -0.344  0.00  0.00    -0.012 C 
ATOM      9  C   LIG    1       -2.687   1.253   0.635  0.00  0.00    +0.007 C 
ATOM     10  C   LIG    1       -2.785  -0.976  -0.335  0.00  0.00    +0.007 C 
ENDBRANCH   2   8
BRANCH   1  11
ATOM     11  O   LIG    1       -0.617  -1.961  -1.248  0.00  0.00    -0.391 OA
ATOM     12  H   LIG    1       -0.254  -2.211  -2.157  0.00  0.00    +0.210 HD
ENDBRANCH   1  11
TORSDOF 2
