REMARK  Name = molecules/NOSIYYJFMPDDSA-UHFFFAOYSA-N.pdb
REMARK                            x       y       z     vdW  Elec       q    Type
REMARK                         _______ _______ _______ _____ _____    ______ ____
ROOT
ATOM      1  N   LIG    1       -0.617   0.768  -0.510  0.00  0.00    -0.298 N 
ATOM      2  C   LIG    1       -1.802   0.012  -0.285  0.00  0.00    +0.049 A 
ATOM      3  C   LIG    1       -3.001   0.541   0.110  0.00  0.00    +0.034 A 
ATOM      4  S   LIG    1       -3.176   2.285   0.390  0.00  0.00    -0.086 S 
ATOM      5  C   LIG    1       -1.582   2.995   0.044  0.00  0.00    +0.034 C 
ATOM      6  C   LIG    1       -1.491   4.363   0.186  0.00  0.00    +0.013 C 
ATOM      7  C   LIG    1       -0.292   4.975  -0.074  0.00  0.00    -0.017 C 
ATOM      8  C   LIG    1        0.793   4.228  -0.470  0.00  0.00    +0.047 C 
ATOM      9  C   LIG    1        0.645   2.863  -0.596  0.00  0.00    +0.006 C 
ATOM     10  C   LIG    1       -4.132  -0.202   0.326  0.00  0.00    +0.017 A 
ATOM     11  C   LIG    1       -4.119  -1.559   0.152  0.00  0.00    +0.012 A 
ATOM     12  C   LIG    1       -2.945  -2.144  -0.243  0.00  0.00    +0.019 A 
ATOM     13  C   LIG    1       -1.814  -1.370  -0.455  0.00  0.00    +0.036 A 
ATOM     14  C   LIG    1       -0.542   2.186  -0.346  0.00  0.00    +0.044 C 
ENDROOT
BRANCH  12  15
ATOM     15  C   LIG    1       -2.920  -3.583  -0.430  0.00  0.00    +0.160 C 
ATOM     16  C   LIG    1       -4.095  -4.447  -0.219  0.00  0.00    +0.091 C 
ATOM     17  O   LIG    1       -1.845  -4.118  -0.791  0.00  0.00    -0.292 OA
ENDBRANCH  12  15
BRANCH   1  18
ATOM     18  C   LIG    1        0.602   0.077  -0.896  0.00  0.00    +0.112 C 
BRANCH  18  19
ATOM     19  C   LIG    1        1.586  -0.068   0.223  0.00  0.00    +0.035 C 
BRANCH  19  20
ATOM     20  C   LIG    1        2.833  -0.780  -0.272  0.00  0.00    +0.085 C 
BRANCH  20  22
ATOM     21  C   LIG    1        4.966  -1.569   0.431  0.00  0.00    +0.104 C 
ATOM     22  N   LIG    1        3.760  -0.893   0.866  0.00  0.00    -0.308 NA
ATOM     23  C   LIG    1        4.045   0.404   1.426  0.00  0.00    +0.104 C 
ENDBRANCH  20  22
ENDBRANCH  19  20
ENDBRANCH  18  19
ENDBRANCH   1  18
TORSDOF 5
