REMARK  Name = molecules/NOTIQUSPUUHHEH-UXOVVSIBSA-N.pdb
REMARK                            x       y       z     vdW  Elec       q    Type
REMARK                         _______ _______ _______ _____ _____    ______ ____
ROOT
ATOM      1  C   LIG    1       -2.551   1.462   0.037  0.00  0.00    +0.012 C 
ATOM      2  C   LIG    1       -2.400  -0.038  -0.087  0.00  0.00    -0.025 C 
ATOM      3  C   LIG    1       -3.113  -0.754   1.046  0.00  0.00    +0.002 C 
ATOM      4  C   LIG    1       -2.450  -0.529   2.376  0.00  0.00    +0.005 C 
ATOM      5  C   LIG    1       -0.970  -0.670   2.358  0.00  0.00    +0.004 C 
ATOM      6  C   LIG    1       -0.392   0.164   1.203  0.00  0.00    -0.004 C 
ATOM      7  C   LIG    1        1.083   0.089   1.302  0.00  0.00    +0.002 C 
ATOM      8  C   LIG    1        1.730   1.175   2.103  0.00  0.00    +0.008 C 
ATOM      9  C   LIG    1        3.187   1.068   1.667  0.00  0.00    +0.045 C 
ATOM     10  C   LIG    1        3.177   0.216   0.401  0.00  0.00    +0.183 C 
ATOM     11  C   LIG    1        1.774   0.369  -0.043  0.00  0.00    +0.008 C 
ATOM     12  C   LIG    1        1.512   1.781  -0.503  0.00  0.00    +0.015 C 
ATOM     13  C   LIG    1        1.253  -0.594  -1.023  0.00  0.00    +0.011 C 
ATOM     14  C   LIG    1       -0.195  -0.211  -1.280  0.00  0.00    +0.005 C 
ATOM     15  C   LIG    1       -4.550  -0.351   1.165  0.00  0.00    +0.078 C 
ATOM     16  C   LIG    1       -5.158   0.030  -0.120  0.00  0.00    +0.136 C 
ATOM     17  O   LIG    1       -6.308   0.439  -0.106  0.00  0.00    -0.297 OA
ATOM     18  C   LIG    1       -4.484  -0.041  -1.436  0.00  0.00    +0.053 C 
ATOM     19  C   LIG    1       -5.309  -1.016  -2.288  0.00  0.00    +0.015 C 
ATOM     20  C   LIG    1       -0.966  -0.477  -0.031  0.00  0.00    -0.001 C 
ATOM     21  C   LIG    1       -3.062  -0.474  -1.371  0.00  0.00    +0.018 C 
ENDROOT
BRANCH  10  22
ATOM     22  O   LIG    1        4.150   0.587  -0.514  0.00  0.00    -0.461 OA
BRANCH  22  23
ATOM     23  C   LIG    1        5.133  -0.313  -0.867  0.00  0.00    +0.307 C 
ATOM     24  O   LIG    1        5.122  -1.452  -0.348  0.00  0.00    -0.251 OA
BRANCH  23  25
ATOM     25  C   LIG    1        6.204   0.054  -1.855  0.00  0.00    +0.117 C 
ATOM     26  C   LIG    1        7.128  -1.127  -2.036  0.00  0.00    +0.015 C 
ENDBRANCH  23  25
ENDBRANCH  22  23
ENDBRANCH  10  22
TORSDOF 3
