REMARK  Name = molecules/NOZIJMHMKORZBA-KJCUYJGMSA-N.pdb
REMARK                            x       y       z     vdW  Elec       q    Type
REMARK                         _______ _______ _______ _____ _____    ______ ____
ROOT
ATOM      1  C   LIG    1       -0.813  -0.381  -0.115  0.00  0.00    +0.084 A 
ATOM      2  N   LIG    1       -1.238  -1.606  -0.024  0.00  0.00    -0.224 NA
ATOM      3  C   LIG    1       -2.527  -1.876  -0.089  0.00  0.00    +0.165 A 
ATOM      4  S   LIG    1       -3.215  -0.315  -0.300  0.00  0.00    -0.060 S 
ATOM      5  C   LIG    1       -1.771   0.598  -0.290  0.00  0.00    +0.077 A 
ENDROOT
BRANCH   1  11
ATOM      6  C   LIG    1        0.980   1.294   0.306  0.00  0.00    +0.014 A 
ATOM      7  C   LIG    1        2.280   1.636   0.607  0.00  0.00    +0.001 A 
ATOM      8  C   LIG    1        3.223   0.650   0.670  0.00  0.00    +0.010 A 
ATOM      9  C   LIG    1        2.929  -0.674   0.442  0.00  0.00    +0.023 A 
ATOM     10  C   LIG    1        1.623  -0.986   0.142  0.00  0.00    +0.135 A 
ATOM     11  C   LIG    1        0.618  -0.035   0.068  0.00  0.00    +0.043 A 
BRANCH   9  12
ATOM     12  C   LIG    1        4.033  -1.703   0.429  0.00  0.00    +0.149 C 
ATOM     13  C   LIG    1        3.946  -2.445   1.801  0.00  0.00    +0.043 C 
BRANCH  12  14
ATOM     14  O   LIG    1        5.189  -1.051   0.424  0.00  0.00    -0.372 OA
BRANCH  14  15
ATOM     15  C   LIG    1        6.283  -1.019  -0.260  0.00  0.00    +0.160 C 
BRANCH  15  16
ATOM     16  C   LIG    1        7.447  -0.333   0.446  0.00  0.00    +0.028 C 
BRANCH  16  17
ATOM     17  C   LIG    1        7.264   1.036   0.897  0.00  0.00    +0.002 C 
BRANCH  17  18
ATOM     18  C   LIG    1        7.055   2.145  -0.069  0.00  0.00    -0.000 C 
BRANCH  18  19
ATOM     19  C   LIG    1        8.270   2.365  -0.983  0.00  0.00    -0.003 C 
ATOM     20  C   LIG    1        7.940   3.523  -1.894  0.00  0.00    +0.004 C 
ENDBRANCH  18  19
ENDBRANCH  17  18
ENDBRANCH  16  17
ENDBRANCH  15  16
ENDBRANCH  14  15
ENDBRANCH  12  14
ENDBRANCH   9  12
BRANCH  10  21
ATOM     21  O   LIG    1        1.240  -2.293  -0.109  0.00  0.00    -0.494 OA
ATOM     22  C   LIG    1        1.180  -2.941  -1.330  0.00  0.00    +0.277 C 
ENDBRANCH  10  21
ENDBRANCH   1  11
BRANCH   3  23
ATOM     23  N   LIG    1       -3.246  -3.098   0.000  0.00  0.00    -0.261 N 
ATOM     24  H   LIG    1       -2.721  -3.981   0.062  0.00  0.00    +0.157 HD
ATOM     25  C   LIG    1       -4.657  -3.110  -0.001  0.00  0.00    +0.250 C 
ATOM     26  O   LIG    1       -5.253  -4.233   0.071  0.00  0.00    -0.270 OA
BRANCH  25  27
ATOM     27  C   LIG    1       -5.520  -1.944  -0.074  0.00  0.00    +0.040 A 
ATOM     28  C   LIG    1       -5.949  -1.368   1.092  0.00  0.00    +0.033 A 
ATOM     29  C   LIG    1       -6.777  -0.238   1.043  0.00  0.00    +0.050 A 
ATOM     30 CL   LIG    1       -7.231   0.500   2.566  0.00  0.00    -0.083 Cl
ATOM     31  C   LIG    1       -7.183   0.323  -0.130  0.00  0.00    +0.012 A 
ATOM     32  C   LIG    1       -6.736  -0.279  -1.308  0.00  0.00    +0.050 A 
ATOM     33 CL   LIG    1       -7.212   0.367  -2.865  0.00  0.00    -0.083 Cl
ATOM     34  C   LIG    1       -5.924  -1.385  -1.272  0.00  0.00    +0.033 A 
BRANCH  31  35
ATOM     35  C   LIG    1       -8.047   1.471  -0.228  0.00  0.00    +0.021 C 
ATOM     36  C   LIG    1       -9.269   1.538   0.239  0.00  0.00    +0.034 C 
ATOM     37  C   LIG    1       -9.874   0.346   0.891  0.00  0.00    +0.051 C 
BRANCH  36  38
ATOM     38  C   LIG    1      -10.034   2.757   0.079  0.00  0.00    +0.333 C 
ATOM     39  O   LIG    1      -11.209   2.801   0.532  0.00  0.00    -0.245 OA
BRANCH  38  40
ATOM     40  O   LIG    1       -9.557   3.868  -0.538  0.00  0.00    -0.477 OA
ATOM     41  H   LIG    1       -8.814   3.967  -1.175  0.00  0.00    +0.295 HD
ENDBRANCH  38  40
ENDBRANCH  36  38
ENDBRANCH  31  35
ENDBRANCH  25  27
ENDBRANCH   3  23
TORSDOF 14
