REMARK  Name = molecules/NPAGDVCDWIYMMC-IZPLOLCNSA-N.pdb
REMARK                            x       y       z     vdW  Elec       q    Type
REMARK                         _______ _______ _______ _____ _____    ______ ____
ROOT
ATOM      1  C   LIG    1       -2.247   1.019   1.125  0.00  0.00    +0.014 C 
ATOM      2  C   LIG    1       -2.164  -0.336   0.470  0.00  0.00    -0.003 C 
ATOM      3  C   LIG    1       -1.370  -1.312   1.261  0.00  0.00    +0.010 C 
ATOM      4  C   LIG    1        0.067  -0.939   1.349  0.00  0.00    +0.005 C 
ATOM      5  C   LIG    1        0.678  -0.474   0.072  0.00  0.00    -0.000 C 
ATOM      6  C   LIG    1        1.996   0.193   0.272  0.00  0.00    +0.019 C 
ATOM      7  C   LIG    1        2.883  -0.478   1.288  0.00  0.00    +0.016 C 
ATOM      8  C   LIG    1        4.306  -0.021   1.218  0.00  0.00    +0.079 C 
ATOM      9  C   LIG    1        4.808  -0.282  -0.155  0.00  0.00    +0.156 C 
ATOM     10  O   LIG    1        5.949  -0.774  -0.366  0.00  0.00    -0.293 OA
ATOM     11  C   LIG    1        3.904   0.063  -1.253  0.00  0.00    +0.045 C 
ATOM     12  C   LIG    1        2.624   0.280  -1.062  0.00  0.00    -0.063 C 
ATOM     13  C   LIG    1        1.792   0.618  -2.232  0.00  0.00    +0.031 C 
ATOM     14  C   LIG    1        0.410   1.035  -1.907  0.00  0.00    +0.008 C 
ATOM     15  C   LIG    1       -0.211   0.488  -0.689  0.00  0.00    -0.003 C 
ATOM     16  C   LIG    1       -3.534  -0.773   0.096  0.00  0.00    +0.121 C 
ATOM     17  C   LIG    1       -3.839   0.119  -1.105  0.00  0.00    +0.032 C 
ATOM     18  C   LIG    1       -2.509   0.479  -1.723  0.00  0.00    +0.007 C 
ATOM     19  C   LIG    1       -1.504  -0.244  -0.915  0.00  0.00    +0.001 C 
ENDROOT
BRANCH  16  20
ATOM     20  O   LIG    1       -4.471  -0.476   1.089  0.00  0.00    -0.391 OA
ATOM     21  H   LIG    1       -5.033   0.301   0.868  0.00  0.00    +0.210 HD
ENDBRANCH  16  20
TORSDOF 1
