REMARK  Name = molecules/NPSLCOWKFFNQKK-ZPSUVKRCSA-N.pdb
REMARK                            x       y       z     vdW  Elec       q    Type
REMARK                         _______ _______ _______ _____ _____    ______ ____
ROOT
ATOM      1  C   LIG    1       -1.315   0.761   1.816  0.00  0.00    +0.015 C 
ATOM      2  C   LIG    1       -1.570  -0.010   0.564  0.00  0.00    +0.013 C 
ATOM      3  C   LIG    1       -1.083  -1.409   0.727  0.00  0.00    +0.084 C 
ATOM      4  C   LIG    1        0.386  -1.340   0.953  0.00  0.00    +0.138 C 
ATOM      5  O   LIG    1        0.829  -1.927   1.900  0.00  0.00    -0.297 OA
ATOM      6  C   LIG    1        1.216  -0.585   0.044  0.00  0.00    +0.072 C 
ATOM      7  C   LIG    1        2.624  -0.279   0.418  0.00  0.00    +0.019 C 
ATOM      8  C   LIG    1        3.311  -1.181   1.309  0.00  0.00    -0.012 C 
ATOM      9  C   LIG    1        4.429  -1.780   0.961  0.00  0.00    +0.047 C 
ATOM     10  C   LIG    1        5.065  -1.592  -0.320  0.00  0.00    +0.179 C 
ATOM     11  O   LIG    1        6.135  -2.188  -0.609  0.00  0.00    -0.288 OA
ATOM     12  C   LIG    1        4.420  -0.690  -1.256  0.00  0.00    +0.052 C 
ATOM     13  C   LIG    1        2.747   1.125   1.049  0.00  0.00    +0.021 C 
ATOM     14  C   LIG    1        3.315  -0.098  -0.915  0.00  0.00    -0.038 C 
ATOM     15  C   LIG    1        2.684   0.815  -1.873  0.00  0.00    +0.108 C 
ATOM     16  C   LIG    1        1.286   1.207  -1.626  0.00  0.00    +0.028 C 
ATOM     17 CL   LIG    1        2.936   0.240  -3.565  0.00  0.00    -0.117 Cl
ATOM     18  C   LIG    1        0.611   0.732  -0.398  0.00  0.00    +0.006 C 
ATOM     19  C   LIG    1       -2.998   0.095   0.076  0.00  0.00    +0.132 C 
ATOM     20  C   LIG    1       -3.029   1.569  -0.298  0.00  0.00    +0.043 C 
ATOM     21  C   LIG    1       -1.606   1.865  -0.798  0.00  0.00    +0.008 C 
ATOM     22  C   LIG    1       -0.863   0.576  -0.639  0.00  0.00    +0.002 C 
ENDROOT
BRANCH  19  23
ATOM     23  C   LIG    1       -4.015  -0.291   1.044  0.00  0.00    +0.190 C 
ATOM     24  O   LIG    1       -4.068   0.252   2.127  0.00  0.00    -0.292 OA
BRANCH  23  25
ATOM     25  C   LIG    1       -4.997  -1.351   0.717  0.00  0.00    +0.233 C 
BRANCH  25  26
ATOM     26  O   LIG    1       -4.768  -1.851  -0.565  0.00  0.00    -0.387 OA
ATOM     27  H   LIG    1       -5.435  -1.452  -1.197  0.00  0.00    +0.210 HD
ENDBRANCH  25  26
ENDBRANCH  23  25
ENDBRANCH  19  23
BRANCH  19  28
ATOM     28  O   LIG    1       -3.079  -0.610  -1.125  0.00  0.00    -0.380 OA
ATOM     29  H   LIG    1       -3.459  -0.040  -1.861  0.00  0.00    +0.211 HD
ENDBRANCH  19  28
TORSDOF 4
