REMARK  Name = molecules/NPUZIGSOEWMFKK-UHFFFAOYSA-N.pdb
REMARK                            x       y       z     vdW  Elec       q    Type
REMARK                         _______ _______ _______ _____ _____    ______ ____
ROOT
ATOM      1  C   LIG    1        0.157  -1.118  -0.573  0.00  0.00    +0.161 C 
ATOM      2  C   LIG    1       -0.729  -1.226   0.589  0.00  0.00    +0.179 C 
ATOM      3  O   LIG    1       -0.581  -1.902   1.628  0.00  0.00    -0.291 OA
ATOM      4  C   LIG    1       -1.875  -0.373   0.323  0.00  0.00    +0.029 A 
ATOM      5  C   LIG    1       -3.020  -0.080   1.079  0.00  0.00    +0.012 A 
ATOM      6  C   LIG    1       -3.976   0.780   0.589  0.00  0.00    +0.001 A 
ATOM      7  C   LIG    1       -3.835   1.372  -0.647  0.00  0.00    +0.001 A 
ATOM      8  C   LIG    1       -2.727   1.104  -1.407  0.00  0.00    +0.012 A 
ATOM      9  C   LIG    1       -1.754   0.225  -0.902  0.00  0.00    +0.029 A 
ATOM     10  C   LIG    1       -0.515  -0.201  -1.520  0.00  0.00    +0.179 C 
ATOM     11  O   LIG    1       -0.091   0.138  -2.638  0.00  0.00    -0.291 OA
ENDROOT
BRANCH   1  16
ATOM     12 BR   LIG    1        5.837   0.916   0.839  0.00  0.00    -0.050 Br
ATOM     13  C   LIG    1        4.067   0.306   0.409  0.00  0.00    +0.018 A 
ATOM     14  C   LIG    1        2.970   1.093   0.637  0.00  0.00    +0.015 A 
ATOM     15  C   LIG    1        1.707   0.625   0.317  0.00  0.00    +0.006 A 
ATOM     16  C   LIG    1        1.511  -0.622  -0.232  0.00  0.00    -0.029 A 
ATOM     17  C   LIG    1        2.626  -1.398  -0.453  0.00  0.00    +0.006 A 
ATOM     18  C   LIG    1        3.912  -0.954  -0.140  0.00  0.00    +0.015 A 
ENDBRANCH   1  16
TORSDOF 1
