REMARK  Name = molecules/NPZXCTIHHUUEEJ-CMKMFDCUSA-N.pdb
REMARK                            x       y       z     vdW  Elec       q    Type
REMARK                         _______ _______ _______ _____ _____    ______ ____
ROOT
ATOM      1  C   LIG    1       -1.549  -1.996   1.665  0.00  0.00    +0.065 C 
ATOM      2  C   LIG    1       -1.366  -1.294   0.339  0.00  0.00    +0.175 C 
ATOM      3  C   LIG    1       -0.314  -0.234   0.348  0.00  0.00    +0.051 C 
ATOM      4  C   LIG    1        0.056   0.296   1.688  0.00  0.00    +0.032 C 
ATOM      5  C   LIG    1        1.536   0.191   1.965  0.00  0.00    +0.085 C 
ATOM      6  N   LIG    1        2.367   0.791   0.965  0.00  0.00    -0.302 NA
ATOM      7  C   LIG    1        3.665   0.142   1.024  0.00  0.00    +0.105 C 
ATOM      8  C   LIG    1        1.838   0.637  -0.377  0.00  0.00    +0.065 C 
ATOM      9  C   LIG    1        1.225   1.900  -0.848  0.00  0.00    +0.054 C 
ATOM     10  C   LIG    1       -0.235   1.825  -1.053  0.00  0.00    -0.038 A 
ATOM     11  C   LIG    1       -0.945   2.737  -1.805  0.00  0.00    +0.008 A 
ATOM     12  C   LIG    1       -2.325   2.594  -1.951  0.00  0.00    +0.049 A 
ATOM     13  C   LIG    1       -2.986   1.535  -1.341  0.00  0.00    +0.159 A 
ATOM     14  C   LIG    1       -2.271   0.605  -0.576  0.00  0.00    +0.167 A 
ATOM     15  C   LIG    1        0.959  -0.580  -0.381  0.00  0.00    +0.022 C 
ATOM     16  C   LIG    1        0.672  -1.143  -1.736  0.00  0.00    +0.014 C 
ATOM     17  C   LIG    1        0.013  -2.498  -1.526  0.00  0.00    +0.079 C 
ATOM     18  C   LIG    1       -0.940   0.819  -0.487  0.00  0.00    +0.012 A 
ATOM     19  O   LIG    1       -2.575  -0.526   0.145  0.00  0.00    -0.474 OA
ATOM     20  C   LIG    1       -1.243  -2.252  -0.761  0.00  0.00    +0.177 C 
ATOM     21  O   LIG    1       -2.249  -2.897  -1.072  0.00  0.00    -0.293 OA
ENDROOT
BRANCH  13  22
ATOM     22  O   LIG    1       -4.350   1.378  -1.475  0.00  0.00    -0.503 OA
ATOM     23  H   LIG    1       -4.829   0.607  -1.031  0.00  0.00    +0.292 HD
ENDBRANCH  13  22
TORSDOF 1
