REMARK  Name = molecules/NRNCYVBFPDDJNE-ZETCQYMHSA-N.pdb
REMARK                            x       y       z     vdW  Elec       q    Type
REMARK                         _______ _______ _______ _____ _____    ______ ____
ROOT
ATOM      1  C   LIG    1        2.425  -0.304  -0.308  0.00  0.00    +0.274 C 
ATOM      2  O   LIG    1        1.796   0.290   0.765  0.00  0.00    -0.320 OA
ATOM      3  C   LIG    1        0.695  -0.509   1.124  0.00  0.00    +0.240 C 
ATOM      4  C   LIG    1        1.138  -1.841   0.628  0.00  0.00    +0.269 C 
ATOM      5  O   LIG    1        0.776  -2.972   1.032  0.00  0.00    -0.271 OA
ATOM      6  N   LIG    1        2.061  -1.527  -0.404  0.00  0.00    -0.161 NA
ENDROOT
BRANCH   3   7
ATOM      7  C   LIG    1       -0.523  -0.038   0.414  0.00  0.00    -0.010 A 
ATOM      8  C   LIG    1       -0.802   1.313   0.354  0.00  0.00    +0.006 A 
ATOM      9  C   LIG    1       -1.910   1.819  -0.285  0.00  0.00    +0.000 A 
ATOM     10  C   LIG    1       -2.785   0.922  -0.896  0.00  0.00    +0.000 A 
ATOM     11  C   LIG    1       -2.502  -0.422  -0.833  0.00  0.00    +0.000 A 
ATOM     12  C   LIG    1       -1.393  -0.939  -0.194  0.00  0.00    +0.006 A 
ENDBRANCH   3   7
BRANCH   1  13
ATOM     13  N   LIG    1        3.340   0.388  -1.158  0.00  0.00    -0.281 NA
ATOM     14  H   LIG    1        3.954   1.159  -0.833  0.00  0.00    +0.123 HD
ATOM     15  H   LIG    1        3.394   0.104  -2.154  0.00  0.00    +0.123 HD
ENDBRANCH   1  13
TORSDOF 2
