REMARK  Name = molecules/NRUKOCRGYNPUPR-QBPJDGROSA-N.pdb
REMARK                            x       y       z     vdW  Elec       q    Type
REMARK                         _______ _______ _______ _____ _____    ______ ____
ROOT
ATOM      1  O   LIG    1       -2.759   1.763  -4.319  0.00  0.00    -0.250 OA
ATOM      2  C   LIG    1       -1.953   1.485  -3.401  0.00  0.00    +0.312 C 
ATOM      3  C   LIG    1       -1.964   0.319  -2.546  0.00  0.00    +0.118 C 
ATOM      4  C   LIG    1       -1.063   0.750  -1.388  0.00  0.00    +0.075 C 
ATOM      5  C   LIG    1       -0.615  -0.433  -0.601  0.00  0.00    +0.159 C 
ATOM      6  C   LIG    1       -1.663  -1.467  -0.627  0.00  0.00    -0.011 A 
ATOM      7  C   LIG    1       -1.419  -2.697  -0.021  0.00  0.00    +0.056 A 
ATOM      8  C   LIG    1       -2.369  -3.704  -0.015  0.00  0.00    +0.167 A 
ATOM      9  O   LIG    1       -2.418  -5.010   0.498  0.00  0.00    -0.453 OA
ATOM     10  C   LIG    1       -3.450  -5.725  -0.178  0.00  0.00    +0.466 C 
ATOM     11  O   LIG    1       -4.380  -4.676  -0.479  0.00  0.00    -0.453 OA
ATOM     12  C   LIG    1       -3.596  -3.529  -0.613  0.00  0.00    +0.167 A 
ATOM     13  C   LIG    1       -3.868  -2.330  -1.220  0.00  0.00    +0.054 A 
ATOM     14  C   LIG    1       -2.906  -1.356  -1.205  0.00  0.00    -0.030 A 
ATOM     15  C   LIG    1       -0.009   1.480  -2.168  0.00  0.00    +0.239 C 
ATOM     16  C   LIG    1       -3.257  -0.051  -1.889  0.00  0.00    +0.064 C 
ATOM     17  O   LIG    1       -0.864   2.273  -3.025  0.00  0.00    -0.464 OA
ENDROOT
BRANCH  16  18
ATOM     18  C   LIG    1       -3.659   0.860  -0.785  0.00  0.00    -0.032 A 
ATOM     19  C   LIG    1       -3.792   0.431   0.532  0.00  0.00    +0.054 A 
ATOM     20  C   LIG    1       -4.156   1.250   1.562  0.00  0.00    +0.165 A 
ATOM     21  C   LIG    1       -4.410   2.571   1.319  0.00  0.00    +0.201 A 
ATOM     22  C   LIG    1       -4.290   3.045   0.022  0.00  0.00    +0.165 A 
ATOM     23  C   LIG    1       -3.920   2.192  -1.003  0.00  0.00    +0.054 A 
BRANCH  20  24
ATOM     24  O   LIG    1       -4.281   0.785   2.867  0.00  0.00    -0.491 OA
ATOM     25  C   LIG    1       -4.012  -0.603   3.107  0.00  0.00    +0.277 C 
ENDBRANCH  20  24
BRANCH  21  26
ATOM     26  O   LIG    1       -4.787   3.453   2.348  0.00  0.00    -0.501 OA
ATOM     27  H   LIG    1       -4.861   3.059   3.275  0.00  0.00    +0.292 HD
ENDBRANCH  21  26
BRANCH  22  28
ATOM     28  O   LIG    1       -4.547   4.373  -0.210  0.00  0.00    -0.491 OA
ATOM     29  C   LIG    1       -4.433   4.891  -1.518  0.00  0.00    +0.277 C 
ENDBRANCH  22  28
ENDBRANCH  16  18
BRANCH   5  30
ATOM     30  O   LIG    1        0.572  -0.974  -1.020  0.00  0.00    -0.340 OA
BRANCH  30  31
ATOM     31  C   LIG    1        1.603  -0.933  -0.107  0.00  0.00    +0.282 C 
ATOM     32  C   LIG    1        2.272  -2.208   0.220  0.00  0.00    +0.201 C 
ATOM     33  C   LIG    1        3.756  -2.250   0.123  0.00  0.00    +0.179 C 
ATOM     34  C   LIG    1        4.439  -0.953  -0.015  0.00  0.00    +0.184 C 
ATOM     35  O   LIG    1        5.519  -0.740   0.838  0.00  0.00    -0.338 OA
ATOM     36  C   LIG    1        6.246   0.302   0.281  0.00  0.00    +0.289 C 
ATOM     37  O   LIG    1        5.555   1.062  -0.641  0.00  0.00    -0.344 OA
ATOM     38  C   LIG    1        4.293   1.465  -0.236  0.00  0.00    +0.197 C 
ATOM     39  C   LIG    1        3.523   0.240   0.193  0.00  0.00    +0.178 C 
ATOM     40  O   LIG    1        2.467   0.048  -0.657  0.00  0.00    -0.340 OA
BRANCH  36  41
ATOM     41  C   LIG    1        6.696   1.222   1.381  0.00  0.00    +0.045 A 
ATOM     42  C   LIG    1        7.258   0.879   2.585  0.00  0.00    +0.016 A 
ATOM     43  C   LIG    1        7.581   1.886   3.416  0.00  0.00    +0.008 A 
ATOM     44  C   LIG    1        7.324   3.159   2.995  0.00  0.00    +0.045 A 
ATOM     45  S   LIG    1        6.639   2.918   1.450  0.00  0.00    -0.097 S 
ENDBRANCH  36  41
BRANCH  32  46
ATOM     46  O   LIG    1        1.981  -2.574   1.562  0.00  0.00    -0.384 OA
ATOM     47  H   LIG    1        1.414  -1.896   1.998  0.00  0.00    +0.210 HD
ENDBRANCH  32  46
BRANCH  33  48
ATOM     48  O   LIG    1        4.074  -3.048  -1.000  0.00  0.00    -0.386 OA
ATOM     49  H   LIG    1        4.149  -4.009  -0.747  0.00  0.00    +0.210 HD
ENDBRANCH  33  48
ENDBRANCH  30  31
ENDBRANCH   5  30
TORSDOF 9
