REMARK  Name = molecules/NSHMKXVHJBBKTN-OAHLLOKOSA-N.pdb
REMARK                            x       y       z     vdW  Elec       q    Type
REMARK                         _______ _______ _______ _____ _____    ______ ____
ROOT
ATOM      1  C   LIG    1       -0.647  -0.127   1.081  0.00  0.00    +0.050 C 
ENDROOT
BRANCH   1   2
ATOM      2  C   LIG    1       -1.594  -1.102   0.516  0.00  0.00    -0.040 A 
ATOM      3  C   LIG    1       -1.376  -2.447   0.652  0.00  0.00    +0.004 A 
ATOM      4  C   LIG    1       -2.269  -3.387   0.136  0.00  0.00    +0.000 A 
ATOM      5  C   LIG    1       -3.397  -2.969  -0.524  0.00  0.00    +0.000 A 
ATOM      6  C   LIG    1       -3.620  -1.603  -0.662  0.00  0.00    +0.000 A 
ATOM      7  C   LIG    1       -2.726  -0.690  -0.146  0.00  0.00    +0.004 A 
ENDBRANCH   1   2
BRANCH   1   8
ATOM      8  C   LIG    1       -0.718   1.195   0.403  0.00  0.00    -0.040 A 
ATOM      9  C   LIG    1       -0.966   2.367   1.089  0.00  0.00    +0.004 A 
ATOM     10  C   LIG    1       -1.054   3.598   0.499  0.00  0.00    +0.000 A 
ATOM     11  C   LIG    1       -0.893   3.723  -0.846  0.00  0.00    +0.000 A 
ATOM     12  C   LIG    1       -0.643   2.587  -1.587  0.00  0.00    +0.000 A 
ATOM     13  C   LIG    1       -0.560   1.357  -0.966  0.00  0.00    +0.004 A 
ENDBRANCH   1   8
BRANCH   1  14
ATOM     14  C   LIG    1        0.699  -0.586   1.432  0.00  0.00    +0.031 C 
BRANCH  14  15
ATOM     15  C   LIG    1        1.739  -0.771   0.415  0.00  0.00    +0.054 C 
ATOM     16  C   LIG    1        1.578  -1.915  -0.538  0.00  0.00    +0.024 C 
BRANCH  15  17
ATOM     17  N   LIG    1        2.066   0.471  -0.308  0.00  0.00    -0.306 NA
ATOM     18  C   LIG    1        2.696   1.334   0.704  0.00  0.00    +0.104 C 
ATOM     19  C   LIG    1        3.110   0.164  -1.268  0.00  0.00    +0.104 C 
ENDBRANCH  15  17
ENDBRANCH  14  15
ENDBRANCH   1  14
TORSDOF 5
