REMARK  Name = molecules/NSQLIUXCMFBZME-MPVJKSABSA-N.pdb
REMARK                            x       y       z     vdW  Elec       q    Type
REMARK                         _______ _______ _______ _____ _____    ______ ____
ROOT
ATOM      1  N   LIG    1       34.793   3.923   0.000  0.00  0.00    -0.130 NA
ATOM      2  C   LIG    1       33.727   2.868   0.000  0.00  0.00    +0.130 C 
ENDROOT
TORSDOF 0
REMARK  Name = molecules/NSQLIUXCMFBZME-MPVJKSABSA-N.pdb
REMARK                            x       y       z     vdW  Elec       q    Type
REMARK                         _______ _______ _______ _____ _____    ______ ____
ROOT
ATOM      1  N   LIG    1       31.221   3.553   0.000  0.00  0.00    -0.138 NA
ATOM      2  C   LIG    1       30.165   4.619   0.000  0.00  0.00    +0.114 C 
ATOM      3  C   LIG    1       31.231   5.674   0.000  0.00  0.00    -0.005 C 
ENDROOT
BRANCH   3   4
ATOM      4  C   LIG    1       32.297   6.729   0.000  0.00  0.00    +0.014 C 
ATOM      5  C   LIG    1       33.363   7.785   0.000  0.00  0.00    +0.012 C 
ATOM      6  C   LIG    1       31.242   7.795   0.000  0.00  0.00    +0.004 C 
ENDBRANCH   3   4
TORSDOF 1
REMARK  Name = molecules/NSQLIUXCMFBZME-MPVJKSABSA-N.pdb
REMARK                            x       y       z     vdW  Elec       q    Type
REMARK                         _______ _______ _______ _____ _____    ______ ____
ROOT
ATOM      1  C   LIG    1       29.753  -0.294   0.000  0.00  0.00    +0.244 C 
ENDROOT
BRANCH   1   2
ATOM      2  C   LIG    1       28.698   0.771   0.000  0.00  0.00    +0.050 C 
BRANCH   2   3
ATOM      3  C   LIG    1       27.642   1.837   0.000  0.00  0.00    +0.041 C 
BRANCH   3   6
ATOM      4  N   LIG    1       27.653   3.959   0.000  0.00  0.00    -0.281 NA
ATOM      5  C   LIG    1       29.099   3.563   0.000  0.00  0.00    +0.151 C 
ATOM      6  C   LIG    1       26.587   2.903   0.000  0.00  0.00    +0.082 C 
ENDBRANCH   3   6
ENDBRANCH   2   3
ENDBRANCH   1   2
BRANCH   1   7
ATOM      7  N   LIG    1       30.808  -1.360   0.000  0.00  0.00    -0.108 NA
BRANCH   7   8
ATOM      8  C   LIG    1       32.259  -0.979   0.000  0.00  0.00    +0.457 C 
ATOM      9  N   LIG    1       33.315  -2.045   0.000  0.00  0.00    +0.128 NA
BRANCH   8  10
ATOM     10  N   LIG    1       32.654   0.468   0.000  0.00  0.00    -0.284 N 
ATOM     11  H   LIG    1       33.853   0.625   0.000  0.00  0.00    +0.255 HD
ATOM     12  H   LIG    1       32.661   1.812   0.000  0.00  0.00    +0.255 HD
ENDBRANCH   8  10
ENDBRANCH   7   8
ENDBRANCH   1   7
TORSDOF 6
REMARK  Name = molecules/NSQLIUXCMFBZME-MPVJKSABSA-N.pdb
REMARK                            x       y       z     vdW  Elec       q    Type
REMARK                         _______ _______ _______ _____ _____    ______ ____
ROOT
ATOM      1  C   LIG    1       24.091   5.709   0.000  0.00  0.00    +0.020 C 
ENDROOT
BRANCH   1   2
ATOM      2  C   LIG    1       23.025   4.654   0.000  0.00  0.00    +0.105 C 
BRANCH   2   3
ATOM      3  N   LIG    1       24.081   3.588   0.000  0.00  0.00    -0.222 NA
ATOM      4  C   LIG    1       25.531   3.969   0.000  0.00  0.00    +0.107 C 
ENDBRANCH   2   3
BRANCH   2   5
ATOM      5  C   LIG    1       21.959   3.599   0.000  0.00  0.00    +0.121 C 
ATOM      6  N   LIG    1       20.512   3.994   0.000  0.00  0.00    -0.130 NA
ENDBRANCH   2   5
ENDBRANCH   1   2
BRANCH   1   7
ATOM      7  C   LIG    1       25.157   6.765   0.000  0.00  0.00    +0.052 C 
BRANCH   7   8
ATOM      8  C   LIG    1       26.223   7.820   0.000  0.00  0.00    +0.080 C 
ATOM      9  N   LIG    1       27.289   8.876   0.000  0.00  0.00    -0.264 NA
BRANCH   9  10
ATOM     10  C   LIG    1       28.736   8.480   0.000  0.00  0.00    +0.210 C 
BRANCH  10  11
ATOM     11  N   LIG    1       29.802   9.536   0.000  0.00  0.00    -0.222 NA
ATOM     12  H   LIG    1       30.476   9.085   0.000  0.00  0.00    +0.143 HD
ENDBRANCH  10  11
ENDBRANCH   9  10
ENDBRANCH   7   8
ENDBRANCH   1   7
TORSDOF 7
REMARK  Name = molecules/NSQLIUXCMFBZME-MPVJKSABSA-N.pdb
REMARK                            x       y       z     vdW  Elec       q    Type
REMARK                         _______ _______ _______ _____ _____    ______ ____
ROOT
ATOM      1  N   LIG    1       16.940   3.623   0.000  0.00  0.00    -0.273 NA
ATOM      2  H   LIG    1       16.440   2.985   0.000  0.00  0.00    +0.137 HD
ATOM      3  H   LIG    1       17.741   2.900   0.000  0.00  0.00    +0.137 HD
ENDROOT
TORSDOF 0
REMARK  Name = molecules/NSQLIUXCMFBZME-MPVJKSABSA-N.pdb
REMARK                            x       y       z     vdW  Elec       q    Type
REMARK                         _______ _______ _______ _____ _____    ______ ____
ROOT
ATOM      1  N   LIG    1       13.372   4.029   0.000  0.00  0.00    -0.163 NA
ATOM      2  H   LIG    1       13.344   4.675   0.000  0.00  0.00    +0.163 HD
ENDROOT
TORSDOF 0
REMARK  Name = molecules/NSQLIUXCMFBZME-MPVJKSABSA-N.pdb
REMARK                            x       y       z     vdW  Elec       q    Type
REMARK                         _______ _______ _______ _____ _____    ______ ____
ROOT
ATOM      1  N   LIG    1       12.660   0.000   0.000  0.00  0.00    +0.000 NA
ENDROOT
TORSDOF 0
REMARK  Name = molecules/NSQLIUXCMFBZME-MPVJKSABSA-N.pdb
REMARK                            x       y       z     vdW  Elec       q    Type
REMARK                         _______ _______ _______ _____ _____    ______ ____
ROOT
ATOM      1  N   LIG    1        6.112 -11.087   0.000  0.00  0.00    -0.378 N 
ATOM      2  C   LIG    1        4.758 -11.732   0.000  0.00  0.00    +0.021 C 
ATOM      3  C   LIG    1        5.959 -12.630   0.000  0.00  0.00    +0.057 C 
ATOM      4  H   LIG    1        7.122 -11.682   0.000  0.00  0.00    +0.160 HD
ENDROOT
BRANCH   1   5
ATOM      5  C   LIG    1        7.381 -10.286   0.000  0.00  0.00    +0.110 C 
BRANCH   5   6
ATOM      6  C   LIG    1        8.545  -9.341   0.000  0.00  0.00    +0.125 C 
BRANCH   6   7
ATOM      7  N   LIG    1        9.590  -8.265   0.000  0.00  0.00    -0.221 NA
BRANCH   7   8
ATOM      8  C   LIG    1       10.501  -7.073   0.000  0.00  0.00    +0.101 C 
BRANCH   8   9
ATOM      9  C   LIG    1       11.263  -5.781   0.000  0.00  0.00    +0.120 C 
BRANCH   9  10
ATOM     10  N   LIG    1       11.868  -4.408   0.000  0.00  0.00    -0.218 NA
BRANCH  10  11
ATOM     11  C   LIG    1       12.306  -2.974   0.000  0.00  0.00    +0.113 C 
BRANCH  11  12
ATOM     12  C   LIG    1       12.571  -1.497   0.000  0.00  0.00    -0.024 C 
ATOM     13  C   LIG    1       13.938  -0.879   0.000  0.00  0.00    +0.014 C 
ENDBRANCH  11  12
ENDBRANCH  10  11
ENDBRANCH   9  10
ENDBRANCH   8   9
ENDBRANCH   7   8
ENDBRANCH   6   7
ENDBRANCH   5   6
ENDBRANCH   1   5
BRANCH   2  14
ATOM     14  C   LIG    1        3.337 -12.213   0.000  0.00  0.00    +0.136 C 
BRANCH  14  15
ATOM     15  N   LIG    1        1.869 -12.521   0.000  0.00  0.00    -0.376 N 
ATOM     16  C   LIG    1        0.375 -12.655   0.000  0.00  0.00    -0.001 C 
ATOM     17  C   LIG    1        1.188 -13.915   0.000  0.00  0.00    +0.055 C 
ATOM     18  C   LIG    1       -1.124 -12.610   0.000  0.00  0.00    +0.044 C 
ATOM     19  H   LIG    1        2.608 -13.431   0.000  0.00  0.00    +0.160 HD
ENDBRANCH  14  15
ENDBRANCH   2  14
TORSDOF 10
REMARK  Name = molecules/NSQLIUXCMFBZME-MPVJKSABSA-N.pdb
REMARK                            x       y       z     vdW  Elec       q    Type
REMARK                         _______ _______ _______ _____ _____    ______ ____
ROOT
ATOM      1  N   LIG    1       -6.758 -10.705   0.000  0.00  0.00    -0.319 N 
ATOM      2  C   LIG    1       -7.977  -9.831   0.000  0.00  0.00    +0.027 C 
ATOM      3  C   LIG    1       -8.184 -11.317   0.000  0.00  0.00    +0.057 C 
ATOM      4  H   LIG    1       -6.792 -11.877   0.000  0.00  0.00    +0.176 HD
ENDROOT
BRANCH   1   7
ATOM      5  N   LIG    1       -2.608 -12.389   0.000  0.00  0.00    -0.066 NA
ATOM      6  C   LIG    1       -4.055 -11.993   0.000  0.00  0.00    +0.065 C 
ATOM      7  C   LIG    1       -5.445 -11.430   0.000  0.00  0.00    +0.034 C 
ENDBRANCH   1   7
BRANCH   2   8
ATOM      8  C   LIG    1       -9.084  -8.819   0.000  0.00  0.00    +0.108 C 
BRANCH   8   9
ATOM      9  N   LIG    1      -10.063  -7.682   0.000  0.00  0.00    -0.293 NA
ATOM     10  H   LIG    1      -10.503  -8.768   0.000  0.00  0.00    +0.124 HD
BRANCH   9  11
ATOM     11  C   LIG    1      -10.901  -6.438   0.000  0.00  0.00    +0.069 C 
ATOM     12  C   LIG    1      -11.586  -5.104   0.000  0.00  0.00    +0.019 C 
ENDBRANCH   9  11
ENDBRANCH   8   9
ENDBRANCH   2   8
TORSDOF 4
REMARK  Name = molecules/NSQLIUXCMFBZME-MPVJKSABSA-N.pdb
REMARK                            x       y       z     vdW  Elec       q    Type
REMARK                         _______ _______ _______ _____ _____    ______ ____
ROOT
ATOM      1  N   LIG    1      -12.108  -3.697   0.000  0.00  0.00    -0.136 NA
ATOM      2  C   LIG    1      -12.461  -2.240   0.000  0.00  0.00    +0.136 C 
ENDROOT
TORSDOF 0
REMARK  Name = molecules/NSQLIUXCMFBZME-MPVJKSABSA-N.pdb
REMARK                            x       y       z     vdW  Elec       q    Type
REMARK                         _______ _______ _______ _____ _____    ______ ____
ROOT
ATOM      1  C   LIG    1      -10.901   6.438   0.000  0.00  0.00    +0.019 C 
ATOM      2  C   LIG    1      -10.063   7.682   0.000  0.00  0.00    +0.042 C 
ENDROOT
BRANCH   1   3
ATOM      3  N   LIG    1      -11.586   5.104   0.000  0.00  0.00    -0.287 N 
ATOM      4  H   LIG    1      -12.749   4.964   0.000  0.00  0.00    +0.157 HD
BRANCH   3   5
ATOM      5  C   LIG    1      -12.108   3.697   0.000  0.00  0.00    +0.139 C 
BRANCH   5   7
ATOM      6  N   LIG    1      -12.638   0.750   0.000  0.00  0.00    -0.132 NA
ATOM      7  C   LIG    1      -12.461   2.240   0.000  0.00  0.00    +0.072 C 
ATOM      8  C   LIG    1      -13.861   1.703   0.000  0.00  0.00    +0.034 C 
ENDBRANCH   5   7
ENDBRANCH   3   5
ENDBRANCH   1   3
BRANCH   2   9
ATOM      9  N   LIG    1       -9.084   8.819   0.000  0.00  0.00    -0.166 NA
BRANCH   9  10
ATOM     10  C   LIG    1       -7.977   9.831   0.000  0.00  0.00    +0.067 C 
ATOM     11  C   LIG    1       -9.388  10.339   0.000  0.00  0.00    +0.025 C 
BRANCH  10  12
ATOM     12  C   LIG    1       -6.758  10.705   0.000  0.00  0.00    +0.131 C 
BRANCH  12  13
ATOM     13  N   LIG    1       -5.445  11.430   0.000  0.00  0.00    -0.216 NA
ATOM     14  C   LIG    1       -4.055  11.993   0.000  0.00  0.00    +0.114 C 
ENDBRANCH  12  13
ENDBRANCH  10  12
ENDBRANCH   9  10
ENDBRANCH   2   9
TORSDOF 7
REMARK  Name = molecules/NSQLIUXCMFBZME-MPVJKSABSA-N.pdb
REMARK                            x       y       z     vdW  Elec       q    Type
REMARK                         _______ _______ _______ _____ _____    ______ ____
ROOT
ATOM      1  N   LIG    1       -1.124  12.610   0.000  0.00  0.00    -0.163 NA
ATOM      2  H   LIG    1       -1.748  13.389   0.000  0.00  0.00    +0.163 HD
ENDROOT
TORSDOF 0
REMARK  Name = molecules/NSQLIUXCMFBZME-MPVJKSABSA-N.pdb
REMARK                            x       y       z     vdW  Elec       q    Type
REMARK                         _______ _______ _______ _____ _____    ______ ____
ROOT
ATOM      1  N   LIG    1        3.337  12.213   0.000  0.00  0.00    -0.088 NA
ENDROOT
BRANCH   1   2
ATOM      2  C   LIG    1        1.869  12.521   0.000  0.00  0.00    +0.121 C 
ATOM      3  C   LIG    1        0.375  12.655   0.000  0.00  0.00    +0.023 C 
ENDBRANCH   1   2
BRANCH   1   4
ATOM      4  O   LIG    1        3.738  13.165   0.000  0.00  0.00    -0.295 OA
ATOM      5  H   LIG    1        4.522  13.213   0.000  0.00  0.00    +0.238 HD
ENDBRANCH   1   4
TORSDOF 2
REMARK  Name = molecules/NSQLIUXCMFBZME-MPVJKSABSA-N.pdb
REMARK                            x       y       z     vdW  Elec       q    Type
REMARK                         _______ _______ _______ _____ _____    ______ ____
ROOT
ATOM      1  N   LIG    1        7.381  10.286   0.000  0.00  0.00    -0.194 NA
ENDROOT
BRANCH   1   2
ATOM      2  C   LIG    1        6.594  11.057   0.000  0.00  0.00    +0.199 C 
ATOM      3  N   LIG    1        7.713  11.802   0.000  0.00  0.00    -0.111 NA
ENDBRANCH   1   2
BRANCH   1   4
ATOM      4  C   LIG    1        7.075   9.636   0.000  0.00  0.00    +0.115 C 
BRANCH   4   5
ATOM      5  C   LIG    1        8.545   9.341   0.000  0.00  0.00    -0.024 C 
ATOM      6  C   LIG    1        9.590   8.265   0.000  0.00  0.00    +0.014 C 
ENDBRANCH   4   5
ENDBRANCH   1   4
TORSDOF 3
REMARK  Name = molecules/NSQLIUXCMFBZME-MPVJKSABSA-N.pdb
REMARK                            x       y       z     vdW  Elec       q    Type
REMARK                         _______ _______ _______ _____ _____    ______ ____
ROOT
ATOM      1  N   LIG    1       10.469  14.105   0.000  0.00  0.00    +0.000 NA
ENDROOT
TORSDOF 0
REMARK  Name = molecules/NSQLIUXCMFBZME-MPVJKSABSA-N.pdb
REMARK                            x       y       z     vdW  Elec       q    Type
REMARK                         _______ _______ _______ _____ _____    ______ ____
ROOT
ATOM      1  C   LIG    1       13.948   9.584   0.000  0.00  0.00    +0.102 C 
ATOM      2  N   LIG    1       14.429   8.163   0.000  0.00  0.00    -0.286 NA
ATOM      3  C   LIG    1       15.899   7.869   0.000  0.00  0.00    +0.158 C 
ENDROOT
BRANCH   1   5
ATOM      4  N   LIG    1       12.772  11.350   0.000  0.00  0.00    -0.132 NA
ATOM      5  C   LIG    1       12.477   9.879   0.000  0.00  0.00    +0.159 C 
ENDBRANCH   1   5
TORSDOF 1
REMARK  Name = molecules/NSQLIUXCMFBZME-MPVJKSABSA-N.pdb
REMARK                            x       y       z     vdW  Elec       q    Type
REMARK                         _______ _______ _______ _____ _____    ______ ____
ROOT
ATOM      1  CG  TYR A  1       20.851  10.702   0.000  0.00  0.00    -0.045 A 
ATOM      2  CD2 TYR A  1       21.331   9.281   0.000  0.00  0.00    +0.007 A 
ATOM      3  CE2 TYR A  1       22.802   8.987   0.000  0.00  0.00    +0.045 A 
ATOM      4  CZ  TYR A  1       23.793  10.113   0.000  0.00  0.00    +0.117 A 
ATOM      5  CE1 TYR A  1       23.312  11.534   0.000  0.00  0.00    +0.045 A 
ATOM      6  CD1 TYR A  1       21.841  11.829   0.000  0.00  0.00    +0.007 A 
ENDROOT
BRANCH   4   7
ATOM      7  OH  TYR A  1       25.264   9.819   0.000  0.00  0.00    -0.507 OA
ATOM      8  HH  TYR A  1       25.167   8.886   0.000  0.00  0.00    +0.292 HD
ENDBRANCH   4   7
BRANCH   1   9
ATOM      9  CB  TYR A  1       19.380  10.996   0.000  0.00  0.00    +0.060 C 
BRANCH   9  11
ATOM     10  N   TYR A  1       17.615   9.820   0.000  0.00  0.00    -0.136 NA
ATOM     11  CA  TYR A  1       17.909  11.291   0.000  0.00  0.00    +0.138 C 
BRANCH  11  12
ATOM     12  C   TYR A  1       16.439  11.585   0.000  0.00  0.00    +0.195 C 
ATOM     13  O   TYR A  1       15.958  13.006   0.000  0.00  0.00    -0.219 OA
ENDBRANCH  11  12
ENDBRANCH   9  11
ENDBRANCH   1   9
TORSDOF 4
REMARK  Name = molecules/NSQLIUXCMFBZME-MPVJKSABSA-N.pdb
REMARK                            x       y       z     vdW  Elec       q    Type
REMARK                         _______ _______ _______ _____ _____    ______ ____
ROOT
ATOM      1  O   LIG    1       15.448  10.459   0.000  0.00  0.00    -0.217 OA
ATOM      2  C   LIG    1       16.194   9.340   0.000  0.00  0.00    +0.217 C 
ENDROOT
TORSDOF 0
REMARK  Name = molecules/NSQLIUXCMFBZME-MPVJKSABSA-N.pdb
REMARK                            x       y       z     vdW  Elec       q    Type
REMARK                         _______ _______ _______ _____ _____    ______ ____
ROOT
ATOM      1  C   LIG    1       32.672   3.934   0.000  0.00  0.00    +0.000 C 
ENDROOT
TORSDOF 0
REMARK  Name = molecules/NSQLIUXCMFBZME-MPVJKSABSA-N.pdb
REMARK                            x       y       z     vdW  Elec       q    Type
REMARK                         _______ _______ _______ _____ _____    ______ ____
ROOT
ATOM      1  C   LIG    1       34.782   1.802   0.000  0.00  0.00    +0.000 C 
ENDROOT
TORSDOF 0
REMARK  Name = molecules/NSQLIUXCMFBZME-MPVJKSABSA-N.pdb
REMARK                            x       y       z     vdW  Elec       q    Type
REMARK                         _______ _______ _______ _____ _____    ______ ____
ROOT
ATOM      1  O   HOH    1       35.838   0.736   0.000  0.00  0.00    +0.000 OA
ENDROOT
TORSDOF 0
REMARK  Name = molecules/NSQLIUXCMFBZME-MPVJKSABSA-N.pdb
REMARK                            x       y       z     vdW  Elec       q    Type
REMARK                         _______ _______ _______ _____ _____    ______ ____
ROOT
ATOM      1  O   HOH    1       33.240   5.322   0.000  0.00  0.00    -0.410 OA
ATOM      2  H   HOH    0       32.513   4.895   0.000  0.00  0.00    +0.205 HD
ATOM      3  H   HOH    0       34.412   5.374   0.000  0.00  0.00    +0.205 HD
ENDROOT
TORSDOF 0
REMARK  Name = molecules/NSQLIUXCMFBZME-MPVJKSABSA-N.pdb
REMARK                            x       y       z     vdW  Elec       q    Type
REMARK                         _______ _______ _______ _____ _____    ______ ____
ROOT
ATOM      1  O   HOH    1       29.655   2.170   0.000  0.00  0.00    -0.410 OA
ATOM      2  H   HOH    0       28.932   2.603   0.000  0.00  0.00    +0.205 HD
ATOM      3  H   HOH    0       30.825   2.106   0.000  0.00  0.00    +0.205 HD
ENDROOT
TORSDOF 0
REMARK  Name = molecules/NSQLIUXCMFBZME-MPVJKSABSA-N.pdb
REMARK                            x       y       z     vdW  Elec       q    Type
REMARK                         _______ _______ _______ _____ _____    ______ ____
ROOT
ATOM      1  O   HOH    1       26.100   5.357   0.000  0.00  0.00    -0.410 OA
ATOM      2  H   HOH    0       27.271   5.409   0.000  0.00  0.00    +0.205 HD
ATOM      3  H   HOH    0       25.373   4.931   0.000  0.00  0.00    +0.205 HD
ENDROOT
TORSDOF 0
REMARK  Name = molecules/NSQLIUXCMFBZME-MPVJKSABSA-N.pdb
REMARK                            x       y       z     vdW  Elec       q    Type
REMARK                         _______ _______ _______ _____ _____    ______ ____
ROOT
ATOM      1  N   LIG    1       29.117   7.029   0.000  0.00  0.00    -0.163 NA
ATOM      2  H   LIG    1       30.176   6.740   0.000  0.00  0.00    +0.163 HD
ENDROOT
TORSDOF 0
REMARK  Name = molecules/NSQLIUXCMFBZME-MPVJKSABSA-N.pdb
REMARK                            x       y       z     vdW  Elec       q    Type
REMARK                         _______ _______ _______ _____ _____    ______ ____
ROOT
ATOM      1  O   HOH    1       22.340   2.148   0.000  0.00  0.00    -0.410 OA
ATOM      2  H   HOH    0       23.685   2.141   0.000  0.00  0.00    +0.205 HD
ATOM      3  H   HOH    0       21.791   2.639   0.000  0.00  0.00    +0.205 HD
ENDROOT
TORSDOF 0
REMARK  Name = molecules/NSQLIUXCMFBZME-MPVJKSABSA-N.pdb
REMARK                            x       y       z     vdW  Elec       q    Type
REMARK                         _______ _______ _______ _____ _____    ______ ____
ROOT
ATOM      1  C   LIG    1       18.391   4.004   0.000  0.00  0.00    +0.000 C 
ENDROOT
TORSDOF 0
REMARK  Name = molecules/NSQLIUXCMFBZME-MPVJKSABSA-N.pdb
REMARK                            x       y       z     vdW  Elec       q    Type
REMARK                         _______ _______ _______ _____ _____    ______ ____
ROOT
ATOM      1  C   LIG    1       20.502   1.873   0.000  0.00  0.00    +0.225 C 
ATOM      2  O   LIG    1       21.557   0.807   0.000  0.00  0.00    -0.225 OA
ENDROOT
TORSDOF 0
REMARK  Name = molecules/NSQLIUXCMFBZME-MPVJKSABSA-N.pdb
REMARK                            x       y       z     vdW  Elec       q    Type
REMARK                         _______ _______ _______ _____ _____    ______ ____
ROOT
ATOM      1  C   LIG    1       19.446   2.938   0.000  0.00  0.00    +0.000 C 
ENDROOT
TORSDOF 0
REMARK  Name = molecules/NSQLIUXCMFBZME-MPVJKSABSA-N.pdb
REMARK                            x       y       z     vdW  Elec       q    Type
REMARK                         _______ _______ _______ _____ _____    ______ ____
ROOT
ATOM      1  O   HOH    1       18.786   5.451   0.000  0.00  0.00    -0.410 OA
ATOM      2  H   HOH    0       18.233   4.966   0.000  0.00  0.00    +0.205 HD
ATOM      3  H   HOH    0       19.463   6.405   0.000  0.00  0.00    +0.205 HD
ENDROOT
TORSDOF 0
REMARK  Name = molecules/NSQLIUXCMFBZME-MPVJKSABSA-N.pdb
REMARK                            x       y       z     vdW  Elec       q    Type
REMARK                         _______ _______ _______ _____ _____    ______ ____
ROOT
ATOM      1  C   LIG    1       14.819   3.634   0.000  0.00  0.00    +0.000 C 
ATOM      2  C   LIG    1       15.311   4.927   0.000  0.00  0.00    +0.000 C 
ENDROOT
TORSDOF 0
REMARK  Name = molecules/NSQLIUXCMFBZME-MPVJKSABSA-N.pdb
REMARK                            x       y       z     vdW  Elec       q    Type
REMARK                         _______ _______ _______ _____ _____    ______ ____
ROOT
ATOM      1  C   LIG    1       16.951   5.745   0.000  0.00  0.00    +0.005 C 
ATOM      2  C   LIG    1       15.605   6.398   0.000  0.00  0.00    -0.005 C 
ENDROOT
TORSDOF 0
REMARK  Name = molecules/NSQLIUXCMFBZME-MPVJKSABSA-N.pdb
REMARK                            x       y       z     vdW  Elec       q    Type
REMARK                         _______ _______ _______ _____ _____    ______ ____
ROOT
ATOM      1  O   HOH    1       18.017   6.800   0.000  0.00  0.00    -0.253 OA
ATOM      2  H   HOH    0       17.370   7.574   0.000  0.00  0.00    +0.253 HD
ENDROOT
TORSDOF 0
REMARK  Name = molecules/NSQLIUXCMFBZME-MPVJKSABSA-N.pdb
REMARK                            x       y       z     vdW  Elec       q    Type
REMARK                         _______ _______ _______ _____ _____    ______ ____
ROOT
ATOM      1  N   LIG    1       14.722   1.986   0.000  0.00  0.00    -0.297 NA
ATOM      2  C   LIG    1       15.453   1.232   0.000  0.00  0.00    +0.086 C 
ATOM      3  H   LIG    1       13.736   2.522   0.000  0.00  0.00    +0.123 HD
ENDROOT
BRANCH   1   5
ATOM      4  C   LIG    1       15.885   4.689   0.000  0.00  0.00    +0.023 C 
ATOM      5  C   LIG    1       15.016   3.456   0.000  0.00  0.00    +0.064 C 
ENDBRANCH   1   5
TORSDOF 1
REMARK  Name = molecules/NSQLIUXCMFBZME-MPVJKSABSA-N.pdb
REMARK                            x       y       z     vdW  Elec       q    Type
REMARK                         _______ _______ _______ _____ _____    ______ ____
ROOT
ATOM      1  O   HOH    1       14.838   2.134   0.000  0.00  0.00    +0.000 OA
ENDROOT
TORSDOF 0
REMARK  Name = molecules/NSQLIUXCMFBZME-MPVJKSABSA-N.pdb
REMARK                            x       y       z     vdW  Elec       q    Type
REMARK                         _______ _______ _______ _____ _____    ______ ____
ROOT
ATOM      1  C   LIG    1       12.571   1.497   0.000  0.00  0.00    +0.000 C 
ENDROOT
TORSDOF 0
REMARK  Name = molecules/NSQLIUXCMFBZME-MPVJKSABSA-N.pdb
REMARK                            x       y       z     vdW  Elec       q    Type
REMARK                         _______ _______ _______ _____ _____    ______ ____
ROOT
ATOM      1  S   LIG    1       11.263   5.781   0.000  0.00  0.00    -0.159 S 
ATOM      2  S   LIG    1       10.501   7.073   0.000  0.00  0.00    -0.123 S 
ATOM      3  H   LIG    1       11.089   8.334   0.000  0.00  0.00    +0.113 HD
ATOM      4  H   LIG    1       12.652   5.687   0.000  0.00  0.00    +0.103 HD
ENDROOT
BRANCH   1   5
ATOM      5  C   LIG    1       11.868   4.408   0.000  0.00  0.00    +0.054 C 
ATOM      6  C   LIG    1       12.306   2.974   0.000  0.00  0.00    +0.012 C 
ENDBRANCH   1   5
TORSDOF 1
REMARK  Name = molecules/NSQLIUXCMFBZME-MPVJKSABSA-N.pdb
REMARK                            x       y       z     vdW  Elec       q    Type
REMARK                         _______ _______ _______ _____ _____    ______ ____
ROOT
ATOM      1  O   HOH    1       14.025   1.129   0.000  0.00  0.00    -0.410 OA
ATOM      2  H   HOH    0       13.669   0.597   0.000  0.00  0.00    +0.205 HD
ATOM      3  H   HOH    0       14.059   1.785   0.000  0.00  0.00    +0.205 HD
ENDROOT
TORSDOF 0
REMARK  Name = molecules/NSQLIUXCMFBZME-MPVJKSABSA-N.pdb
REMARK                            x       y       z     vdW  Elec       q    Type
REMARK                         _______ _______ _______ _____ _____    ______ ____
ROOT
ATOM      1  C   LIG    1       15.305  -0.261   0.000  0.00  0.00    +0.031 C 
ATOM      2  C   LIG    1       15.848   0.995   0.000  0.00  0.00    -0.026 C 
ATOM      3  C   LIG    1       16.819   1.850   0.000  0.00  0.00    -0.005 C 
ENDROOT
TORSDOF 0
REMARK  Name = molecules/NSQLIUXCMFBZME-MPVJKSABSA-N.pdb
REMARK                            x       y       z     vdW  Elec       q    Type
REMARK                         _______ _______ _______ _____ _____    ______ ____
ROOT
ATOM      1  C   LIG    1       16.523  -1.135   0.000  0.00  0.00    +0.180 C 
ATOM      2  N   LIG    1       15.554  -0.476   0.000  0.00  0.00    -0.180 NA
ENDROOT
TORSDOF 0
REMARK  Name = molecules/NSQLIUXCMFBZME-MPVJKSABSA-N.pdb
REMARK                            x       y       z     vdW  Elec       q    Type
REMARK                         _______ _______ _______ _____ _____    ______ ____
ROOT
ATOM      1  C   LIG    1       17.890  -0.517   0.000  0.00  0.00    -0.000 C 
ENDROOT
TORSDOF 0
REMARK  Name = molecules/NSQLIUXCMFBZME-MPVJKSABSA-N.pdb
REMARK                            x       y       z     vdW  Elec       q    Type
REMARK                         _______ _______ _______ _____ _____    ______ ____
ROOT
ATOM      1  C   LIG    1       18.038   0.976   0.000  0.00  0.00    +0.115 C 
ATOM      2  N   LIG    1       17.269   1.476   0.000  0.00  0.00    -0.255 NA
ATOM      3  H   LIG    1       16.907   2.124   0.000  0.00  0.00    +0.141 HD
ENDROOT
TORSDOF 0
REMARK  Name = molecules/NSQLIUXCMFBZME-MPVJKSABSA-N.pdb
REMARK                            x       y       z     vdW  Elec       q    Type
REMARK                         _______ _______ _______ _____ _____    ______ ____
ROOT
ATOM      1  O   HOH    1       13.710  -3.501   0.000  0.00  0.00    -0.410 OA
ATOM      2  H   HOH    0       13.327  -4.755   0.000  0.00  0.00    +0.205 HD
ATOM      3  H   HOH    0       13.755  -2.419   0.000  0.00  0.00    +0.205 HD
ENDROOT
TORSDOF 0
REMARK  Name = molecules/NSQLIUXCMFBZME-MPVJKSABSA-N.pdb
REMARK                            x       y       z     vdW  Elec       q    Type
REMARK                         _______ _______ _______ _____ _____    ______ ____
ROOT
ATOM      1  O   HOH    1       11.633  -8.056   0.000  0.00  0.00    -0.410 OA
ATOM      2  H   HOH    0       10.837  -9.098   0.000  0.00  0.00    +0.205 HD
ATOM      3  H   HOH    0       12.201  -6.952   0.000  0.00  0.00    +0.205 HD
ENDROOT
TORSDOF 0
REMARK  Name = molecules/NSQLIUXCMFBZME-MPVJKSABSA-N.pdb
REMARK                            x       y       z     vdW  Elec       q    Type
REMARK                         _______ _______ _______ _____ _____    ______ ____
ROOT
ATOM      1  O   HOH    1        8.255 -11.505   0.000  0.00  0.00    -0.410 OA
ATOM      2  H   HOH    0        9.017 -10.765   0.000  0.00  0.00    +0.205 HD
ATOM      3  H   HOH    0        8.199 -12.446   0.000  0.00  0.00    +0.205 HD
ENDROOT
TORSDOF 0
REMARK  Name = molecules/NSQLIUXCMFBZME-MPVJKSABSA-N.pdb
REMARK                            x       y       z     vdW  Elec       q    Type
REMARK                         _______ _______ _______ _____ _____    ______ ____
ROOT
ATOM      1  C   LIG    1        7.160 -13.529   0.000  0.00  0.00    +0.000 C 
ENDROOT
TORSDOF 0
REMARK  Name = molecules/NSQLIUXCMFBZME-MPVJKSABSA-N.pdb
REMARK                            x       y       z     vdW  Elec       q    Type
REMARK                         _______ _______ _______ _____ _____    ______ ____
ROOT
ATOM      1  C   LIG    1       10.942 -14.735   0.000  0.00  0.00    +0.538 C 
ATOM      2  N   LIG    1       11.119 -13.245   0.000  0.00  0.00    +0.136 NA
ATOM      3  N   LIG    1       12.143 -15.633   0.000  0.00  0.00    +0.136 NA
ENDROOT
BRANCH   1   5
ATOM      4  C   LIG    1        8.362 -14.427   0.000  0.00  0.00    +0.258 C 
ATOM      5  N   LIG    1        9.563 -15.326   0.000  0.00  0.00    -0.078 NA
ENDBRANCH   1   5
TORSDOF 1
REMARK  Name = molecules/NSQLIUXCMFBZME-MPVJKSABSA-N.pdb
REMARK                            x       y       z     vdW  Elec       q    Type
REMARK                         _______ _______ _______ _____ _____    ______ ____
ROOT
ATOM      1  O   HOH    1        3.732 -13.659   0.000  0.00  0.00    -0.410 OA
ATOM      2  H   HOH    0        3.352 -14.522   0.000  0.00  0.00    +0.205 HD
ATOM      3  H   HOH    0        4.522 -13.213   0.000  0.00  0.00    +0.205 HD
ENDROOT
TORSDOF 0
REMARK  Name = molecules/NSQLIUXCMFBZME-MPVJKSABSA-N.pdb
REMARK                            x       y       z     vdW  Elec       q    Type
REMARK                         _______ _______ _______ _____ _____    ______ ____
ROOT
ATOM      1  C   LIG    1        2.002 -15.175   0.000  0.00  0.00    +0.000 C 
ENDROOT
TORSDOF 0
REMARK  Name = molecules/NSQLIUXCMFBZME-MPVJKSABSA-N.pdb
REMARK                            x       y       z     vdW  Elec       q    Type
REMARK                         _______ _______ _______ _____ _____    ______ ____
ROOT
ATOM      1  C   LIG    1        2.130 -17.770   0.000  0.00  0.00    +0.076 C 
ATOM      2  S   LIG    1        2.815 -16.436   0.000  0.00  0.00    -0.076 S 
ENDROOT
TORSDOF 0
REMARK  Name = molecules/NSQLIUXCMFBZME-MPVJKSABSA-N.pdb
REMARK                            x       y       z     vdW  Elec       q    Type
REMARK                         _______ _______ _______ _____ _____    ______ ____
ROOT
ATOM      1  O   HOH    1       -1.438 -14.077   0.000  0.00  0.00    -0.410 OA
ATOM      2  H   HOH    0       -0.362 -13.961   0.000  0.00  0.00    +0.205 HD
ATOM      3  H   HOH    0       -2.232 -13.499   0.000  0.00  0.00    +0.205 HD
ENDROOT
TORSDOF 0
REMARK  Name = molecules/NSQLIUXCMFBZME-MPVJKSABSA-N.pdb
REMARK                            x       y       z     vdW  Elec       q    Type
REMARK                         _______ _______ _______ _____ _____    ______ ____
ROOT
ATOM      1  C   LIG    1       -3.731 -13.458   0.000  0.00  0.00    +0.000 C 
ENDROOT
TORSDOF 0
REMARK  Name = molecules/NSQLIUXCMFBZME-MPVJKSABSA-N.pdb
REMARK                            x       y       z     vdW  Elec       q    Type
REMARK                         _______ _______ _______ _____ _____    ______ ____
ROOT
ATOM      1  C   LIG    1       -3.408 -14.923   0.000  0.00  0.00    +0.325 C 
ATOM      2  O   LIG    1       -1.978 -15.375   0.000  0.00  0.00    -0.184 OA
ENDROOT
BRANCH   1   3
ATOM      3  O   LIG    1       -4.514 -15.935   0.000  0.00  0.00    -0.354 OA
ATOM      4  H   LIG    1       -5.048 -17.054   0.000  0.00  0.00    +0.213 HD
ENDBRANCH   1   3
TORSDOF 1
REMARK  Name = molecules/NSQLIUXCMFBZME-MPVJKSABSA-N.pdb
REMARK                            x       y       z     vdW  Elec       q    Type
REMARK                         _______ _______ _______ _____ _____    ______ ____
ROOT
ATOM      1  O   HOH    1       -6.090 -12.784   0.000  0.00  0.00    -0.410 OA
ATOM      2  H   HOH    0       -5.201 -12.961   0.000  0.00  0.00    +0.205 HD
ATOM      3  H   HOH    0       -6.941 -13.189   0.000  0.00  0.00    +0.205 HD
ENDROOT
TORSDOF 0
REMARK  Name = molecules/NSQLIUXCMFBZME-MPVJKSABSA-N.pdb
REMARK                            x       y       z     vdW  Elec       q    Type
REMARK                         _______ _______ _______ _____ _____    ______ ____
ROOT
ATOM      1  C   LIG    1       -8.391 -12.802   0.000  0.00  0.00    +0.000 C 
ENDROOT
TORSDOF 0
REMARK  Name = molecules/NSQLIUXCMFBZME-MPVJKSABSA-N.pdb
REMARK                            x       y       z     vdW  Elec       q    Type
REMARK                         _______ _______ _______ _____ _____    ______ ____
ROOT
ATOM      1  C   LIG    1       -7.621 -16.696   0.000  0.00  0.00    +0.538 C 
ATOM      2  N   LIG    1       -6.231 -16.132   0.000  0.00  0.00    +0.136 NA
ATOM      3  N   LIG    1       -7.828 -18.181   0.000  0.00  0.00    +0.136 NA
ENDROOT
BRANCH   1   5
ATOM      4  C   LIG    1       -8.598 -14.288   0.000  0.00  0.00    +0.258 C 
ATOM      5  N   LIG    1       -8.804 -15.774   0.000  0.00  0.00    -0.078 NA
ENDBRANCH   1   5
TORSDOF 1
REMARK  Name = molecules/NSQLIUXCMFBZME-MPVJKSABSA-N.pdb
REMARK                            x       y       z     vdW  Elec       q    Type
REMARK                         _______ _______ _______ _____ _____    ______ ____
ROOT
ATOM      1  O   HOH    1      -10.160  -9.863   0.000  0.00  0.00    -0.410 OA
ATOM      2  H   HOH    0      -11.099  -9.946   0.000  0.00  0.00    +0.205 HD
ATOM      3  H   HOH    0       -9.388 -10.339   0.000  0.00  0.00    +0.205 HD
ENDROOT
TORSDOF 0
REMARK  Name = molecules/NSQLIUXCMFBZME-MPVJKSABSA-N.pdb
REMARK                            x       y       z     vdW  Elec       q    Type
REMARK                         _______ _______ _______ _____ _____    ______ ____
ROOT
ATOM      1  C   LIG    1      -11.612  -7.759   0.000  0.00  0.00    +0.000 C 
ENDROOT
TORSDOF 0
REMARK  Name = molecules/NSQLIUXCMFBZME-MPVJKSABSA-N.pdb
REMARK                            x       y       z     vdW  Elec       q    Type
REMARK                         _______ _______ _______ _____ _____    ______ ____
ROOT
ATOM      1  C   LIG    1      -12.323  -9.079   0.000  0.00  0.00    +0.000 C 
ENDROOT
TORSDOF 0
REMARK  Name = molecules/NSQLIUXCMFBZME-MPVJKSABSA-N.pdb
REMARK                            x       y       z     vdW  Elec       q    Type
REMARK                         _______ _______ _______ _____ _____    ______ ____
ROOT
ATOM      1  C   LIG    1      -14.254  -6.337   0.000  0.00  0.00    +0.000 C 
ATOM      2  C   LIG    1      -12.933  -7.048   0.000  0.00  0.00    +0.000 C 
ENDROOT
TORSDOF 0
REMARK  Name = molecules/NSQLIUXCMFBZME-MPVJKSABSA-N.pdb
REMARK                            x       y       z     vdW  Elec       q    Type
REMARK                         _______ _______ _______ _____ _____    ______ ____
ROOT
ATOM      1  O   HOH    1      -13.084  -5.176   0.000  0.00  0.00    -0.410 OA
ATOM      2  H   HOH    0      -13.883  -4.883   0.000  0.00  0.00    +0.205 HD
ATOM      3  H   HOH    0      -12.562  -5.594   0.000  0.00  0.00    +0.205 HD
ENDROOT
TORSDOF 0
REMARK  Name = molecules/NSQLIUXCMFBZME-MPVJKSABSA-N.pdb
REMARK                            x       y       z     vdW  Elec       q    Type
REMARK                         _______ _______ _______ _____ _____    ______ ____
ROOT
ATOM      1  C   LIG    1      -12.638  -0.750   0.000  0.00  0.00    +0.000 C 
ENDROOT
TORSDOF 0
REMARK  Name = molecules/NSQLIUXCMFBZME-MPVJKSABSA-N.pdb
REMARK                            x       y       z     vdW  Elec       q    Type
REMARK                         _______ _______ _______ _____ _____    ______ ____
ROOT
ATOM      1  O   HOH    1      -14.135  -0.656   0.000  0.00  0.00    -0.410 OA
ATOM      2  H   HOH    0      -13.916  -1.878   0.000  0.00  0.00    +0.205 HD
ATOM      3  H   HOH    0      -13.680   0.214   0.000  0.00  0.00    +0.205 HD
ENDROOT
TORSDOF 0
REMARK  Name = molecules/NSQLIUXCMFBZME-MPVJKSABSA-N.pdb
REMARK                            x       y       z     vdW  Elec       q    Type
REMARK                         _______ _______ _______ _____ _____    ______ ____
ROOT
ATOM      1  O   HOH    1      -13.543   4.136   0.000  0.00  0.00    -0.410 OA
ATOM      2  H   HOH    0      -14.069   4.918   0.000  0.00  0.00    +0.205 HD
ATOM      3  H   HOH    0      -13.587   3.230   0.000  0.00  0.00    +0.205 HD
ENDROOT
TORSDOF 0
REMARK  Name = molecules/NSQLIUXCMFBZME-MPVJKSABSA-N.pdb
REMARK                            x       y       z     vdW  Elec       q    Type
REMARK                         _______ _______ _______ _____ _____    ______ ____
ROOT
ATOM      1  C   LIG    1      -12.401   6.423   0.000  0.00  0.00    +0.000 C 
ENDROOT
TORSDOF 0
REMARK  Name = molecules/NSQLIUXCMFBZME-MPVJKSABSA-N.pdb
REMARK                            x       y       z     vdW  Elec       q    Type
REMARK                         _______ _______ _______ _____ _____    ______ ____
ROOT
ATOM      1  C   LIG    1      -13.901   6.409   0.000  0.00  0.00    +0.104 C 
ATOM      2  C   LIG    1      -15.401   6.394   0.000  0.00  0.00    +0.256 C 
ATOM      3  N   LIG    1      -16.164   7.685   0.000  0.00  0.00    -0.088 NA
ATOM      4  O   LIG    1      -16.138   5.087   0.000  0.00  0.00    -0.272 OA
ENDROOT
TORSDOF 0
REMARK  Name = molecules/NSQLIUXCMFBZME-MPVJKSABSA-N.pdb
REMARK                            x       y       z     vdW  Elec       q    Type
REMARK                         _______ _______ _______ _____ _____    ______ ____
ROOT
ATOM      1  O   HOH    1      -11.136   8.731   0.000  0.00  0.00    -0.410 OA
ATOM      2  H   HOH    0      -11.612   7.759   0.000  0.00  0.00    +0.205 HD
ATOM      3  H   HOH    0      -10.223   9.093   0.000  0.00  0.00    +0.205 HD
ENDROOT
TORSDOF 0
REMARK  Name = molecules/NSQLIUXCMFBZME-MPVJKSABSA-N.pdb
REMARK                            x       y       z     vdW  Elec       q    Type
REMARK                         _______ _______ _______ _____ _____    ______ ____
ROOT
ATOM      1  O   HOH    1      -10.800  10.848   0.000  0.00  0.00    +0.000 OA
ENDROOT
TORSDOF 0
REMARK  Name = molecules/NSQLIUXCMFBZME-MPVJKSABSA-N.pdb
REMARK                            x       y       z     vdW  Elec       q    Type
REMARK                         _______ _______ _______ _____ _____    ______ ____
ROOT
ATOM      1  O   HOH    1       -7.399  12.062   0.000  0.00  0.00    -0.410 OA
ATOM      2  H   HOH    0       -8.184  11.317   0.000  0.00  0.00    +0.205 HD
ATOM      3  H   HOH    0       -6.250  12.695   0.000  0.00  0.00    +0.205 HD
ENDROOT
TORSDOF 0
REMARK  Name = molecules/NSQLIUXCMFBZME-MPVJKSABSA-N.pdb
REMARK                            x       y       z     vdW  Elec       q    Type
REMARK                         _______ _______ _______ _____ _____    ______ ____
ROOT
ATOM      1  C   LIG    1       -2.608  12.389   0.000  0.00  0.00    +0.000 C 
ENDROOT
TORSDOF 0
REMARK  Name = molecules/NSQLIUXCMFBZME-MPVJKSABSA-N.pdb
REMARK                            x       y       z     vdW  Elec       q    Type
REMARK                         _______ _______ _______ _____ _____    ______ ____
ROOT
ATOM      1  O   LIG    1       -2.917  13.857   0.000  0.00  0.00    -0.379 OA
ATOM      2  C   LIG    1       -2.405  14.530   0.000  0.00  0.00    +0.169 C 
ATOM      3  H   LIG    1       -3.851  14.131   0.000  0.00  0.00    +0.211 HD
ENDROOT
TORSDOF 0
REMARK  Name = molecules/NSQLIUXCMFBZME-MPVJKSABSA-N.pdb
REMARK                            x       y       z     vdW  Elec       q    Type
REMARK                         _______ _______ _______ _____ _____    ______ ____
ROOT
ATOM      1  C   LIG    1       -1.836  16.574   0.000  0.00  0.00    +0.008 C 
ATOM      2  C   LIG    1       -1.099  15.267   0.000  0.00  0.00    -0.008 C 
ENDROOT
TORSDOF 0
REMARK  Name = molecules/NSQLIUXCMFBZME-MPVJKSABSA-N.pdb
REMARK                            x       y       z     vdW  Elec       q    Type
REMARK                         _______ _______ _______ _____ _____    ______ ____
ROOT
ATOM      1  C   LIG    1       -0.362  13.961   0.000  0.00  0.00    +0.000 C 
ENDROOT
TORSDOF 0
REMARK  Name = molecules/NSQLIUXCMFBZME-MPVJKSABSA-N.pdb
REMARK                            x       y       z     vdW  Elec       q    Type
REMARK                         _______ _______ _______ _____ _____    ______ ____
ROOT
ATOM      1  O   HOH    1        2.270  13.967   0.000  0.00  0.00    -0.410 OA
ATOM      2  H   HOH    0        1.188  13.915   0.000  0.00  0.00    +0.205 HD
ATOM      3  H   HOH    0        3.553  13.697   0.000  0.00  0.00    +0.205 HD
ENDROOT
TORSDOF 0
REMARK  Name = molecules/NSQLIUXCMFBZME-MPVJKSABSA-N.pdb
REMARK                            x       y       z     vdW  Elec       q    Type
REMARK                         _______ _______ _______ _____ _____    ______ ____
ROOT
ATOM      1  C   LIG    1        6.112  11.087   0.000  0.00  0.00    -0.000 C 
ENDROOT
TORSDOF 0
REMARK  Name = molecules/NSQLIUXCMFBZME-MPVJKSABSA-N.pdb
REMARK                            x       y       z     vdW  Elec       q    Type
REMARK                         _______ _______ _______ _____ _____    ______ ____
ROOT
ATOM      1  C   LIG    1        4.758  11.732   0.000  0.00  0.00    +0.000 C 
ENDROOT
TORSDOF 0
REMARK  Name = molecules/NSQLIUXCMFBZME-MPVJKSABSA-N.pdb
REMARK                            x       y       z     vdW  Elec       q    Type
REMARK                         _______ _______ _______ _____ _____    ______ ____
ROOT
ATOM      1  O   HOH    1        6.497  12.537   0.000  0.00  0.00    -0.253 OA
ATOM      2  H   HOH    0        6.775  13.446   0.000  0.00  0.00    +0.253 HD
ENDROOT
TORSDOF 0
REMARK  Name = molecules/NSQLIUXCMFBZME-MPVJKSABSA-N.pdb
REMARK                            x       y       z     vdW  Elec       q    Type
REMARK                         _______ _______ _______ _____ _____    ______ ____
ROOT
ATOM      1  C   LIG    1        8.840  10.812   0.000  0.00  0.00    +0.160 C 
ATOM      2  C   LIG    1        9.536  10.468   0.000  0.00  0.00    +0.188 C 
ATOM      3  O   LIG    1        9.679  11.096   0.000  0.00  0.00    -0.356 OA
ENDROOT
BRANCH   1   4
ATOM      4  C   LIG    1        9.055  11.889   0.000  0.00  0.00    +0.183 C 
BRANCH   4   5
ATOM      5  O   LIG    1        9.734  12.224   0.000  0.00  0.00    -0.386 OA
ATOM      6  H   LIG    1       10.289  12.742   0.000  0.00  0.00    +0.210 HD
ENDBRANCH   4   5
ENDBRANCH   1   4
TORSDOF 2
REMARK  Name = molecules/NSQLIUXCMFBZME-MPVJKSABSA-N.pdb
REMARK                            x       y       z     vdW  Elec       q    Type
REMARK                         _______ _______ _______ _____ _____    ______ ____
ROOT
ATOM      1  C   LIG    1        8.545   9.341   0.000  0.00  0.00    +0.000 C 
ENDROOT
TORSDOF 0
REMARK  Name = molecules/NSQLIUXCMFBZME-MPVJKSABSA-N.pdb
REMARK                            x       y       z     vdW  Elec       q    Type
REMARK                         _______ _______ _______ _____ _____    ______ ____
ROOT
ATOM      1  C   LIG    1        9.479  12.979   0.000  0.00  0.00    +0.000 C 
ENDROOT
TORSDOF 0
REMARK  Name = molecules/NSQLIUXCMFBZME-MPVJKSABSA-N.pdb
REMARK                            x       y       z     vdW  Elec       q    Type
REMARK                         _______ _______ _______ _____ _____    ______ ____
ROOT
ATOM      1  C   LIG    1        6.537  13.568   0.000  0.00  0.00    -0.000 C 
ENDROOT
TORSDOF 0
REMARK  Name = molecules/NSQLIUXCMFBZME-MPVJKSABSA-N.pdb
REMARK                            x       y       z     vdW  Elec       q    Type
REMARK                         _______ _______ _______ _____ _____    ______ ____
ROOT
ATOM      1  C   LIG    1        5.066  13.862   0.000  0.00  0.00    +0.000 C 
ENDROOT
TORSDOF 0
REMARK  Name = molecules/NSQLIUXCMFBZME-MPVJKSABSA-N.pdb
REMARK                            x       y       z     vdW  Elec       q    Type
REMARK                         _______ _______ _______ _____ _____    ______ ____
ROOT
ATOM      1  N   LIG    1        4.586  15.283   0.000  0.00  0.00    +0.000 NA
ENDROOT
TORSDOF 0
REMARK  Name = molecules/NSQLIUXCMFBZME-MPVJKSABSA-N.pdb
REMARK                            x       y       z     vdW  Elec       q    Type
REMARK                         _______ _______ _______ _____ _____    ______ ____
ROOT
ATOM      1  C   LIG    1        8.008  13.273   0.000  0.00  0.00    +0.018 C 
ATOM      2  C   LIG    1        7.585  12.183   0.000  0.00  0.00    -0.018 C 
ENDROOT
TORSDOF 0
REMARK  Name = molecules/NSQLIUXCMFBZME-MPVJKSABSA-N.pdb
REMARK                            x       y       z     vdW  Elec       q    Type
REMARK                         _______ _______ _______ _____ _____    ______ ____
ROOT
ATOM      1  C   LIG    1       11.645  12.340   0.000  0.00  0.00    +0.000 C 
ENDROOT
TORSDOF 0
REMARK  Name = molecules/NSQLIUXCMFBZME-MPVJKSABSA-N.pdb
REMARK                            x       y       z     vdW  Elec       q    Type
REMARK                         _______ _______ _______ _____ _____    ______ ____
ROOT
ATOM      1  C   LIG    1       12.234  15.282   0.000  0.00  0.00    +0.205 C 
ATOM      2  O   LIG    1       12.529  16.752   0.000  0.00  0.00    -0.234 OA
ATOM      3  C   LIG    1       11.940  13.811   0.000  0.00  0.00    +0.029 C 
ENDROOT
TORSDOF 0
REMARK  Name = molecules/NSQLIUXCMFBZME-MPVJKSABSA-N.pdb
REMARK                            x       y       z     vdW  Elec       q    Type
REMARK                         _______ _______ _______ _____ _____    ______ ____
ROOT
ATOM      1  O   HOH    1       10.610  11.990   0.000  0.00  0.00    +0.000 OA
ENDROOT
TORSDOF 0
REMARK  Name = molecules/NSQLIUXCMFBZME-MPVJKSABSA-N.pdb
REMARK                            x       y       z     vdW  Elec       q    Type
REMARK                         _______ _______ _______ _____ _____    ______ ____
ROOT
ATOM      1  C   LIG    1       11.007  10.173   0.000  0.00  0.00    +0.000 C 
ENDROOT
TORSDOF 0
REMARK  Name = molecules/NSQLIUXCMFBZME-MPVJKSABSA-N.pdb
REMARK                            x       y       z     vdW  Elec       q    Type
REMARK                         _______ _______ _______ _____ _____    ______ ____
ROOT
ATOM      1  O   LIG    1       14.469  10.991   0.000  0.00  0.00    -0.218 OA
ATOM      2  O   LIG    1       14.955  10.185   0.000  0.00  0.00    -0.038 OA
ATOM      3  H   LIG    1       14.193  11.830   0.000  0.00  0.00    +0.256 HD
ENDROOT
TORSDOF 0
REMARK  Name = molecules/NSQLIUXCMFBZME-MPVJKSABSA-N.pdb
REMARK                            x       y       z     vdW  Elec       q    Type
REMARK                         _______ _______ _______ _____ _____    ______ ____
ROOT
ATOM      1  H   UNK    1       36.277   3.707   0.000  0.00  0.00    +0.000 HD
ENDROOT
TORSDOF 0
REMARK  Name = molecules/NSQLIUXCMFBZME-MPVJKSABSA-N.pdb
REMARK                            x       y       z     vdW  Elec       q    Type
REMARK                         _______ _______ _______ _____ _____    ______ ____
ROOT
ATOM      1  H   UNK    1       20.131   5.445   0.000  0.00  0.00    +0.000 HD
ENDROOT
TORSDOF 0
REMARK  Name = molecules/NSQLIUXCMFBZME-MPVJKSABSA-N.pdb
REMARK                            x       y       z     vdW  Elec       q    Type
REMARK                         _______ _______ _______ _____ _____    ______ ____
ROOT
ATOM      1  H   UNK    1       12.991   5.480   0.000  0.00  0.00    +0.000 HD
ENDROOT
TORSDOF 0
REMARK  Name = molecules/NSQLIUXCMFBZME-MPVJKSABSA-N.pdb
REMARK                            x       y       z     vdW  Elec       q    Type
REMARK                         _______ _______ _______ _____ _____    ______ ____
ROOT
ATOM      1  H   UNK    1      -13.543  -4.136   0.000  0.00  0.00    +0.000 HD
ENDROOT
TORSDOF 0
REMARK  Name = molecules/NSQLIUXCMFBZME-MPVJKSABSA-N.pdb
REMARK                            x       y       z     vdW  Elec       q    Type
REMARK                         _______ _______ _______ _____ _____    ______ ____
ROOT
ATOM      1  H   UNK    1        6.362  11.152   0.000  0.00  0.00    +0.000 HD
ENDROOT
TORSDOF 0
REMARK  Name = molecules/NSQLIUXCMFBZME-MPVJKSABSA-N.pdb
REMARK                            x       y       z     vdW  Elec       q    Type
REMARK                         _______ _______ _______ _____ _____    ______ ____
ROOT
ATOM      1  H   UNK    1        9.819  15.457   0.000  0.00  0.00    +0.000 HD
ENDROOT
TORSDOF 0
REMARK  Name = molecules/NSQLIUXCMFBZME-MPVJKSABSA-N.pdb
REMARK                            x       y       z     vdW  Elec       q    Type
REMARK                         _______ _______ _______ _____ _____    ______ ____
ROOT
ATOM      1  H   UNK    1       13.308   7.166   0.000  0.00  0.00    +0.000 HD
ENDROOT
TORSDOF 0
REMARK  Name = molecules/NSQLIUXCMFBZME-MPVJKSABSA-N.pdb
REMARK                            x       y       z     vdW  Elec       q    Type
REMARK                         _______ _______ _______ _____ _____    ______ ____
ROOT
ATOM      1  H   UNK    1       18.612   8.700   0.000  0.00  0.00    +0.000 HD
ENDROOT
TORSDOF 0
REMARK  Name = molecules/NSQLIUXCMFBZME-MPVJKSABSA-N.pdb
REMARK                            x       y       z     vdW  Elec       q    Type
REMARK                         _______ _______ _______ _____ _____    ______ ____
ROOT
ATOM      1  H   UNK    1       35.969   2.720   0.000  0.00  0.00    +0.000 HD
ENDROOT
TORSDOF 0
REMARK  Name = molecules/NSQLIUXCMFBZME-MPVJKSABSA-N.pdb
REMARK                            x       y       z     vdW  Elec       q    Type
REMARK                         _______ _______ _______ _____ _____    ______ ____
ROOT
ATOM      1  H   UNK    1       37.289   1.117   0.000  0.00  0.00    +0.000 HD
ENDROOT
TORSDOF 0
REMARK  Name = molecules/NSQLIUXCMFBZME-MPVJKSABSA-N.pdb
REMARK                            x       y       z     vdW  Elec       q    Type
REMARK                         _______ _______ _______ _____ _____    ______ ____
ROOT
ATOM      1  H   UNK    1       32.171   8.973   0.000  0.00  0.00    +0.000 HD
ENDROOT
TORSDOF 0
REMARK  Name = molecules/NSQLIUXCMFBZME-MPVJKSABSA-N.pdb
REMARK                            x       y       z     vdW  Elec       q    Type
REMARK                         _______ _______ _______ _____ _____    ______ ____
ROOT
ATOM      1  H   UNK    1       30.176   6.740   0.000  0.00  0.00    +0.000 HD
ENDROOT
TORSDOF 0
REMARK  Name = molecules/NSQLIUXCMFBZME-MPVJKSABSA-N.pdb
REMARK                            x       y       z     vdW  Elec       q    Type
REMARK                         _______ _______ _______ _____ _____    ______ ____
ROOT
ATOM      1  H   UNK    1       30.413  -2.807   0.000  0.00  0.00    +0.000 HD
ENDROOT
TORSDOF 0
REMARK  Name = molecules/NSQLIUXCMFBZME-MPVJKSABSA-N.pdb
REMARK                            x       y       z     vdW  Elec       q    Type
REMARK                         _______ _______ _______ _____ _____    ______ ____
ROOT
ATOM      1  H   UNK    1       31.599   1.534   0.000  0.00  0.00    +0.000 HD
ENDROOT
TORSDOF 0
REMARK  Name = molecules/NSQLIUXCMFBZME-MPVJKSABSA-N.pdb
REMARK                            x       y       z     vdW  Elec       q    Type
REMARK                         _______ _______ _______ _____ _____    ______ ____
ROOT
ATOM      1  H   UNK    1       34.765  -1.664   0.000  0.00  0.00    +0.000 HD
ENDROOT
TORSDOF 0
REMARK  Name = molecules/NSQLIUXCMFBZME-MPVJKSABSA-N.pdb
REMARK                            x       y       z     vdW  Elec       q    Type
REMARK                         _______ _______ _______ _____ _____    ______ ____
ROOT
ATOM      1  H   UNK    1       27.087  10.362   0.000  0.00  0.00    +0.000 HD
ENDROOT
TORSDOF 0
REMARK  Name = molecules/NSQLIUXCMFBZME-MPVJKSABSA-N.pdb
REMARK                            x       y       z     vdW  Elec       q    Type
REMARK                         _______ _______ _______ _____ _____    ______ ____
ROOT
ATOM      1  H   UNK    1       28.051   5.974   0.000  0.00  0.00    +0.000 HD
ENDROOT
TORSDOF 0
REMARK  Name = molecules/NSQLIUXCMFBZME-MPVJKSABSA-N.pdb
REMARK                            x       y       z     vdW  Elec       q    Type
REMARK                         _______ _______ _______ _____ _____    ______ ____
ROOT
ATOM      1  H   UNK    1       21.162  -0.640   0.000  0.00  0.00    +0.000 HD
ENDROOT
TORSDOF 0
REMARK  Name = molecules/NSQLIUXCMFBZME-MPVJKSABSA-N.pdb
REMARK                            x       y       z     vdW  Elec       q    Type
REMARK                         _______ _______ _______ _____ _____    ______ ____
ROOT
ATOM      1  H   UNK    1       16.375  -2.628   0.000  0.00  0.00    +0.000 HD
ENDROOT
TORSDOF 0
REMARK  Name = molecules/NSQLIUXCMFBZME-MPVJKSABSA-N.pdb
REMARK                            x       y       z     vdW  Elec       q    Type
REMARK                         _______ _______ _______ _____ _____    ______ ____
ROOT
ATOM      1  H   UNK    1       19.109  -1.392   0.000  0.00  0.00    +0.000 HD
ENDROOT
TORSDOF 0
REMARK  Name = molecules/NSQLIUXCMFBZME-MPVJKSABSA-N.pdb
REMARK                            x       y       z     vdW  Elec       q    Type
REMARK                         _______ _______ _______ _____ _____    ______ ____
ROOT
ATOM      1  H   UNK    1       17.324   3.263   0.000  0.00  0.00    +0.000 HD
ENDROOT
TORSDOF 0
REMARK  Name = molecules/NSQLIUXCMFBZME-MPVJKSABSA-N.pdb
REMARK                            x       y       z     vdW  Elec       q    Type
REMARK                         _______ _______ _______ _____ _____    ______ ____
ROOT
ATOM      1  H   UNK    1        9.386 -16.815   0.000  0.00  0.00    +0.000 HD
ENDROOT
TORSDOF 0
REMARK  Name = molecules/NSQLIUXCMFBZME-MPVJKSABSA-N.pdb
REMARK                            x       y       z     vdW  Elec       q    Type
REMARK                         _______ _______ _______ _____ _____    ______ ____
ROOT
ATOM      1  H   UNK    1       12.498 -12.654   0.000  0.00  0.00    +0.000 HD
ENDROOT
TORSDOF 0
REMARK  Name = molecules/NSQLIUXCMFBZME-MPVJKSABSA-N.pdb
REMARK                            x       y       z     vdW  Elec       q    Type
REMARK                         _______ _______ _______ _____ _____    ______ ____
ROOT
ATOM      1  H   UNK    1        9.918 -12.347   0.000  0.00  0.00    +0.000 HD
ENDROOT
TORSDOF 0
REMARK  Name = molecules/NSQLIUXCMFBZME-MPVJKSABSA-N.pdb
REMARK                            x       y       z     vdW  Elec       q    Type
REMARK                         _______ _______ _______ _____ _____    ______ ____
ROOT
ATOM      1  H   UNK    1       13.521 -15.042   0.000  0.00  0.00    +0.000 HD
ENDROOT
TORSDOF 0
REMARK  Name = molecules/NSQLIUXCMFBZME-MPVJKSABSA-N.pdb
REMARK                            x       y       z     vdW  Elec       q    Type
REMARK                         _______ _______ _______ _____ _____    ______ ____
ROOT
ATOM      1  H   UNK    1        0.741 -15.989   0.000  0.00  0.00    +0.000 HD
ENDROOT
TORSDOF 0
REMARK  Name = molecules/NSQLIUXCMFBZME-MPVJKSABSA-N.pdb
REMARK                            x       y       z     vdW  Elec       q    Type
REMARK                         _______ _______ _______ _____ _____    ______ ____
ROOT
ATOM      1  H   UNK    1       -5.146 -13.958   0.000  0.00  0.00    +0.000 HD
ENDROOT
TORSDOF 0
REMARK  Name = molecules/NSQLIUXCMFBZME-MPVJKSABSA-N.pdb
REMARK                            x       y       z     vdW  Elec       q    Type
REMARK                         _______ _______ _______ _____ _____    ______ ____
ROOT
ATOM      1  H   UNK    1       -1.654 -16.840   0.000  0.00  0.00    +0.000 HD
ENDROOT
TORSDOF 0
REMARK  Name = molecules/NSQLIUXCMFBZME-MPVJKSABSA-N.pdb
REMARK                            x       y       z     vdW  Elec       q    Type
REMARK                         _______ _______ _______ _____ _____    ______ ____
ROOT
ATOM      1  H   UNK    1      -10.194 -16.337   0.000  0.00  0.00    +0.000 HD
ENDROOT
TORSDOF 0
REMARK  Name = molecules/NSQLIUXCMFBZME-MPVJKSABSA-N.pdb
REMARK                            x       y       z     vdW  Elec       q    Type
REMARK                         _______ _______ _______ _____ _____    ______ ____
ROOT
ATOM      1  H   UNK    1       -6.024 -14.646   0.000  0.00  0.00    +0.000 HD
ENDROOT
TORSDOF 0
REMARK  Name = molecules/NSQLIUXCMFBZME-MPVJKSABSA-N.pdb
REMARK                            x       y       z     vdW  Elec       q    Type
REMARK                         _______ _______ _______ _____ _____    ______ ____
ROOT
ATOM      1  H   UNK    1       -6.645 -19.103   0.000  0.00  0.00    +0.000 HD
ENDROOT
TORSDOF 0
REMARK  Name = molecules/NSQLIUXCMFBZME-MPVJKSABSA-N.pdb
REMARK                            x       y       z     vdW  Elec       q    Type
REMARK                         _______ _______ _______ _____ _____    ______ ____
ROOT
ATOM      1  H   UNK    1      -13.034 -10.400   0.000  0.00  0.00    +0.000 HD
ENDROOT
TORSDOF 0
REMARK  Name = molecules/NSQLIUXCMFBZME-MPVJKSABSA-N.pdb
REMARK                            x       y       z     vdW  Elec       q    Type
REMARK                         _______ _______ _______ _____ _____    ______ ____
ROOT
ATOM      1  H   UNK    1      -13.721  -8.535   0.000  0.00  0.00    +0.000 HD
ENDROOT
TORSDOF 0
REMARK  Name = molecules/NSQLIUXCMFBZME-MPVJKSABSA-N.pdb
REMARK                            x       y       z     vdW  Elec       q    Type
REMARK                         _______ _______ _______ _____ _____    ______ ____
ROOT
ATOM      1  H   UNK    1      -15.262   1.167   0.000  0.00  0.00    +0.000 HD
ENDROOT
TORSDOF 0
REMARK  Name = molecules/NSQLIUXCMFBZME-MPVJKSABSA-N.pdb
REMARK                            x       y       z     vdW  Elec       q    Type
REMARK                         _______ _______ _______ _____ _____    ______ ____
ROOT
ATOM      1  H   UNK    1      -12.598   7.910   0.000  0.00  0.00    +0.000 HD
ENDROOT
TORSDOF 0
REMARK  Name = molecules/NSQLIUXCMFBZME-MPVJKSABSA-N.pdb
REMARK                            x       y       z     vdW  Elec       q    Type
REMARK                         _______ _______ _______ _____ _____    ______ ____
ROOT
ATOM      1  H   UNK    1      -17.663   7.670   0.000  0.00  0.00    +0.000 HD
ENDROOT
TORSDOF 0
REMARK  Name = molecules/NSQLIUXCMFBZME-MPVJKSABSA-N.pdb
REMARK                            x       y       z     vdW  Elec       q    Type
REMARK                         _______ _______ _______ _____ _____    ______ ____
ROOT
ATOM      1  H   UNK    1      -15.427   8.992   0.000  0.00  0.00    +0.000 HD
ENDROOT
TORSDOF 0
REMARK  Name = molecules/NSQLIUXCMFBZME-MPVJKSABSA-N.pdb
REMARK                            x       y       z     vdW  Elec       q    Type
REMARK                         _______ _______ _______ _____ _____    ______ ____
ROOT
ATOM      1  H   UNK    1       -9.056  11.802   0.000  0.00  0.00    +0.000 HD
ENDROOT
TORSDOF 0
REMARK  Name = molecules/NSQLIUXCMFBZME-MPVJKSABSA-N.pdb
REMARK                            x       y       z     vdW  Elec       q    Type
REMARK                         _______ _______ _______ _____ _____    ______ ____
ROOT
ATOM      1  H   UNK    1      -11.065  12.324   0.000  0.00  0.00    +0.000 HD
ENDROOT
TORSDOF 0
REMARK  Name = molecules/NSQLIUXCMFBZME-MPVJKSABSA-N.pdb
REMARK                            x       y       z     vdW  Elec       q    Type
REMARK                         _______ _______ _______ _____ _____    ______ ____
ROOT
ATOM      1  H   UNK    1       -4.095  13.493   0.000  0.00  0.00    +0.000 HD
ENDROOT
TORSDOF 0
REMARK  Name = molecules/NSQLIUXCMFBZME-MPVJKSABSA-N.pdb
REMARK                            x       y       z     vdW  Elec       q    Type
REMARK                         _______ _______ _______ _____ _____    ______ ____
ROOT
ATOM      1  H   UNK    1        0.845  14.852   0.000  0.00  0.00    +0.000 HD
ENDROOT
TORSDOF 0
REMARK  Name = molecules/NSQLIUXCMFBZME-MPVJKSABSA-N.pdb
REMARK                            x       y       z     vdW  Elec       q    Type
REMARK                         _______ _______ _______ _____ _____    ______ ____
ROOT
ATOM      1  H   UNK    1       -3.296  15.737   0.000  0.00  0.00    +0.000 HD
ENDROOT
TORSDOF 0
REMARK  Name = molecules/NSQLIUXCMFBZME-MPVJKSABSA-N.pdb
REMARK                            x       y       z     vdW  Elec       q    Type
REMARK                         _______ _______ _______ _____ _____    ______ ____
ROOT
ATOM      1  H   UNK    1        3.115  15.578   0.000  0.00  0.00    +0.000 HD
ENDROOT
TORSDOF 0
REMARK  Name = molecules/NSQLIUXCMFBZME-MPVJKSABSA-N.pdb
REMARK                            x       y       z     vdW  Elec       q    Type
REMARK                         _______ _______ _______ _____ _____    ______ ____
ROOT
ATOM      1  H   UNK    1        5.576  16.410   0.000  0.00  0.00    +0.000 HD
ENDROOT
TORSDOF 0
REMARK  Name = molecules/NSQLIUXCMFBZME-MPVJKSABSA-N.pdb
REMARK                            x       y       z     vdW  Elec       q    Type
REMARK                         _______ _______ _______ _____ _____    ______ ____
ROOT
ATOM      1  H   UNK    1       11.402  17.743   0.000  0.00  0.00    +0.000 HD
ENDROOT
TORSDOF 0
REMARK  Name = molecules/NSQLIUXCMFBZME-MPVJKSABSA-N.pdb
REMARK                            x       y       z     vdW  Elec       q    Type
REMARK                         _______ _______ _______ _____ _____    ______ ____
ROOT
ATOM      1  H   UNK    1        6.084   8.509   0.000  0.00  0.00    +0.000 HD
ENDROOT
TORSDOF 0
REMARK  Name = molecules/NSQLIUXCMFBZME-MPVJKSABSA-N.pdb
REMARK                            x       y       z     vdW  Elec       q    Type
REMARK                         _______ _______ _______ _____ _____    ______ ____
ROOT
ATOM      1  H   UNK    1       14.109   6.511   0.000  0.00  0.00    +0.000 HD
ENDROOT
TORSDOF 0
REMARK  Name = molecules/NSQLIUXCMFBZME-MPVJKSABSA-N.pdb
REMARK                            x       y       z     vdW  Elec       q    Type
REMARK                         _______ _______ _______ _____ _____    ______ ____
ROOT
ATOM      1  H   UNK    1       13.887   5.399   0.000  0.00  0.00    +0.000 HD
ENDROOT
TORSDOF 0
REMARK  Name = molecules/NSQLIUXCMFBZME-MPVJKSABSA-N.pdb
REMARK                            x       y       z     vdW  Elec       q    Type
REMARK                         _______ _______ _______ _____ _____    ______ ____
ROOT
ATOM      1  H   UNK    1       26.109  11.057   0.000  0.00  0.00    +0.000 HD
ENDROOT
TORSDOF 0
