REMARK  Name = molecules/NSRLWNNZHGRGJS-JVACCQEYSA-N.pdb
REMARK                            x       y       z     vdW  Elec       q    Type
REMARK                         _______ _______ _______ _____ _____    ______ ____
ROOT
ATOM      1  C   LIG    1       -2.348  -1.606  -0.448  0.00  0.00    +0.016 C 
ATOM      2  C   LIG    1       -2.942  -0.329   0.045  0.00  0.00    +0.018 C 
ATOM      3  C   LIG    1       -2.297   0.169   1.325  0.00  0.00    +0.003 C 
ATOM      4  C   LIG    1       -3.021  -0.586   2.362  0.00  0.00    +0.009 C 
ATOM      5  C   LIG    1       -4.471  -0.271   1.944  0.00  0.00    +0.057 C 
ATOM      6  C   LIG    1       -0.833  -0.077   1.166  0.00  0.00    +0.000 C 
ATOM      7  C   LIG    1       -0.161   0.217   2.475  0.00  0.00    +0.031 C 
ATOM      8  C   LIG    1        1.275   0.407   2.264  0.00  0.00    -0.022 C 
ATOM      9  C   LIG    1        1.852   0.578   1.097  0.00  0.00    -0.042 C 
ATOM     10  C   LIG    1        3.304   0.765   1.010  0.00  0.00    +0.045 C 
ATOM     11  C   LIG    1        3.906   1.236  -0.074  0.00  0.00    +0.098 C 
ATOM     12  C   LIG    1        3.102   1.596  -1.266  0.00  0.00    +0.074 C 
ATOM     13  C   LIG    1        1.649   1.762  -0.970  0.00  0.00    +0.019 C 
ATOM     14  C   LIG    1        1.075   0.597  -0.194  0.00  0.00    -0.004 C 
ATOM     15  C   LIG    1        1.321  -0.718  -0.861  0.00  0.00    +0.016 C 
ATOM     16  C   LIG    1       -0.367   0.891   0.104  0.00  0.00    +0.003 C 
ATOM     17  C   LIG    1       -1.202   0.986  -1.104  0.00  0.00    +0.005 C 
ATOM     18  C   LIG    1       -4.393  -0.425   0.439  0.00  0.00    +0.176 C 
ATOM     19  C   LIG    1       -2.662   0.750  -0.968  0.00  0.00    +0.011 C 
ENDROOT
BRANCH  18  20
ATOM     20  C   LIG    1       -4.828  -1.825   0.148  0.00  0.00    +0.174 C 
ATOM     21  O   LIG    1       -4.338  -2.791   0.700  0.00  0.00    -0.293 OA
ATOM     22  C   LIG    1       -5.897  -2.110  -0.846  0.00  0.00    +0.090 C 
ENDBRANCH  18  20
BRANCH  11  23
ATOM     23  O   LIG    1        5.294   1.374  -0.046  0.00  0.00    -0.493 OA
BRANCH  23  24
ATOM     24  C   LIG    1        6.107   0.275   0.316  0.00  0.00    +0.173 C 
ATOM     25  C   LIG    1        7.553   0.639   0.242  0.00  0.00    +0.044 C 
ATOM     26  C   LIG    1        8.249  -0.606  -0.244  0.00  0.00    +0.004 C 
ATOM     27  C   LIG    1        7.236  -1.384  -1.047  0.00  0.00    +0.004 C 
ATOM     28  C   LIG    1        5.872  -0.866  -0.649  0.00  0.00    +0.044 C 
ENDBRANCH  23  24
ENDBRANCH  11  23
BRANCH  18  29
ATOM     29  O   LIG    1       -5.159   0.518  -0.269  0.00  0.00    -0.450 OA
BRANCH  29  30
ATOM     30  C   LIG    1       -6.506   0.683  -0.116  0.00  0.00    +0.305 C 
ATOM     31  O   LIG    1       -7.109  -0.045   0.707  0.00  0.00    -0.251 OA
ATOM     32  C   LIG    1       -7.316   1.679  -0.868  0.00  0.00    +0.136 C 
ENDBRANCH  29  30
ENDBRANCH  18  29
TORSDOF 5
