REMARK  Name = molecules/NSTRIRCPWQHTIA-DTRKZRJBSA-N.pdb
REMARK                            x       y       z     vdW  Elec       q    Type
REMARK                         _______ _______ _______ _____ _____    ______ ____
ROOT
ATOM      1  C   LIG    1       -2.948   1.632  -0.129  0.00  0.00    +0.214 C 
ATOM      2  C   LIG    1       -2.304   2.110   1.117  0.00  0.00    +0.096 C 
ATOM      3  C   LIG    1       -1.348   1.061   1.642  0.00  0.00    +0.020 C 
ATOM      4  C   LIG    1       -0.040   1.617   2.118  0.00  0.00    +0.069 C 
ATOM      5  S   LIG    1        1.205   0.293   2.001  0.00  0.00    -0.158 S 
ATOM      6  C   LIG    1        1.440  -0.095   0.279  0.00  0.00    +0.100 C 
ATOM      7  C   LIG    1        2.457  -1.128  -0.050  0.00  0.00    +0.169 C 
ATOM      8  N   LIG    1        1.891  -2.336  -0.615  0.00  0.00    -0.302 N 
ATOM      9  C   LIG    1        0.671  -2.962  -0.322  0.00  0.00    +0.234 C 
ATOM     10  C   LIG    1        0.154  -3.446   0.965  0.00  0.00    +0.168 C 
ATOM     11  N   LIG    1       -1.044  -2.808   1.444  0.00  0.00    -0.302 N 
ATOM     12  H   LIG    1       -0.800  -1.802   1.818  0.00  0.00    +0.150 HD
ATOM     13  C   LIG    1       -2.373  -3.128   1.579  0.00  0.00    +0.234 C 
ATOM     14  O   LIG    1       -2.694  -3.429   2.849  0.00  0.00    -0.274 OA
ATOM     15  C   LIG    1       -3.538  -3.227   0.726  0.00  0.00    +0.159 C 
ATOM     16  N   LIG    1       -3.811  -2.061  -0.104  0.00  0.00    -0.302 N 
ATOM     17  H   LIG    1       -2.985  -1.469  -0.348  0.00  0.00    +0.150 HD
ATOM     18  C   LIG    1       -5.072  -1.690  -0.588  0.00  0.00    +0.234 C 
ATOM     19  C   LIG    1       -6.327  -1.719   0.256  0.00  0.00    +0.162 C 
ATOM     20  N   LIG    1       -6.264  -0.802   1.340  0.00  0.00    -0.302 N 
ATOM     21  H   LIG    1       -6.921  -1.064   2.155  0.00  0.00    +0.150 HD
ATOM     22  C   LIG    1       -5.505   0.341   1.546  0.00  0.00    +0.234 C 
ATOM     23  O   LIG    1       -4.815   0.341   2.648  0.00  0.00    -0.274 OA
ATOM     24  C   LIG    1       -5.338   1.557   0.742  0.00  0.00    +0.163 C 
ATOM     25  O   LIG    1       -5.159  -1.313  -1.789  0.00  0.00    -0.274 OA
ATOM     26  O   LIG    1       -0.111  -3.137  -1.329  0.00  0.00    -0.274 OA
ATOM     27  H   LIG    1        2.512  -2.792  -1.374  0.00  0.00    +0.150 HD
ATOM     28  N   LIG    1       -4.359   1.485  -0.301  0.00  0.00    -0.304 N 
ATOM     29  H   LIG    1       -4.654   1.308  -1.296  0.00  0.00    +0.149 HD
ATOM     30  O   LIG    1       -2.147   1.345  -1.085  0.00  0.00    -0.276 OA
ENDROOT
BRANCH   7  31
ATOM     31  C   LIG    1        3.470  -1.403   0.976  0.00  0.00    +0.237 C 
ATOM     32  N   LIG    1        4.278  -0.462   1.651  0.00  0.00    -0.288 N 
ATOM     33  C   LIG    1        5.269  -0.879   2.674  0.00  0.00    +0.109 C 
ATOM     34  C   LIG    1        5.248   0.234   3.684  0.00  0.00    +0.021 C 
ATOM     35  C   LIG    1        4.422   1.348   3.079  0.00  0.00    +0.033 C 
ATOM     36  C   LIG    1        4.416   0.955   1.605  0.00  0.00    +0.162 C 
ATOM     37  O   LIG    1        3.631  -2.616   1.279  0.00  0.00    -0.274 OA
BRANCH  36  38
ATOM     38  C   LIG    1        5.761   1.423   1.099  0.00  0.00    +0.234 C 
ATOM     39  O   LIG    1        6.061   2.600   1.498  0.00  0.00    -0.274 OA
ATOM     40  N   LIG    1        6.584   0.686   0.303  0.00  0.00    -0.302 N 
ATOM     41  H   LIG    1        6.208  -0.278  -0.012  0.00  0.00    +0.150 HD
BRANCH  40  42
ATOM     42  C   LIG    1        7.892   0.966  -0.218  0.00  0.00    +0.159 C 
BRANCH  42  43
ATOM     43  C   LIG    1        8.361   2.335   0.121  0.00  0.00    +0.234 C 
ATOM     44  O   LIG    1        8.380   2.629   1.365  0.00  0.00    -0.274 OA
ATOM     45  N   LIG    1        8.775   3.349  -0.748  0.00  0.00    -0.305 N 
ATOM     46  H   LIG    1        8.744   3.287  -1.766  0.00  0.00    +0.149 HD
BRANCH  45  47
ATOM     47  C   LIG    1        9.230   4.639  -0.219  0.00  0.00    +0.199 C 
BRANCH  47  48
ATOM     48  C   LIG    1        9.614   5.574  -1.296  0.00  0.00    +0.228 C 
ATOM     49  O   LIG    1       10.024   6.711  -0.954  0.00  0.00    -0.274 OA
ATOM     50  N   LIG    1        9.515   5.186  -2.650  0.00  0.00    -0.328 N 
ATOM     51  H   LIG    1       10.006   4.323  -2.965  0.00  0.00    +0.145 HD
ATOM     52  H   LIG    1        8.963   5.750  -3.343  0.00  0.00    +0.145 HD
ENDBRANCH  47  48
ENDBRANCH  45  47
ENDBRANCH  42  43
BRANCH  42  53
ATOM     53  C   LIG    1        8.241   0.422  -1.528  0.00  0.00    +0.034 C 
BRANCH  53  54
ATOM     54  C   LIG    1        9.668   0.673  -1.897  0.00  0.00    -0.015 C 
ATOM     55  C   LIG    1       10.596  -0.102  -0.908  0.00  0.00    +0.007 C 
ATOM     56  C   LIG    1        9.987   0.114  -3.281  0.00  0.00    +0.007 C 
ENDBRANCH  53  54
ENDBRANCH  42  53
ENDBRANCH  40  42
ENDBRANCH  36  38
ENDBRANCH   7  31
BRANCH  19  57
ATOM     57  C   LIG    1       -7.507  -1.674  -0.648  0.00  0.00    +0.015 C 
ATOM     58  C   LIG    1       -7.314  -2.846  -1.640  0.00  0.00    +0.010 C 
BRANCH  57  59
ATOM     59  C   LIG    1       -8.842  -1.912  -0.026  0.00  0.00    +0.002 C 
ATOM     60  C   LIG    1       -9.173  -0.818   0.942  0.00  0.00    +0.004 C 
ENDBRANCH  57  59
ENDBRANCH  19  57
BRANCH  15  61
ATOM     61  C   LIG    1       -3.837  -4.504   0.042  0.00  0.00    +0.041 C 
BRANCH  61  62
ATOM     62  C   LIG    1       -3.144  -4.766  -1.253  0.00  0.00    +0.098 C 
BRANCH  62  63
ATOM     63  C   LIG    1       -3.616  -6.094  -1.801  0.00  0.00    +0.211 C 
ATOM     64  O   LIG    1       -4.501  -6.759  -1.160  0.00  0.00    -0.276 OA
ATOM     65  N   LIG    1       -3.126  -6.647  -2.997  0.00  0.00    -0.329 N 
ATOM     66  H   LIG    1       -2.771  -7.621  -3.036  0.00  0.00    +0.145 HD
ATOM     67  H   LIG    1       -3.116  -6.077  -3.859  0.00  0.00    +0.145 HD
ENDBRANCH  62  63
ENDBRANCH  61  62
ENDBRANCH  15  61
BRANCH  24  68
ATOM     68  C   LIG    1       -6.620   2.106   0.157  0.00  0.00    +0.067 C 
BRANCH  68  69
ATOM     69  C   LIG    1       -6.489   3.454  -0.417  0.00  0.00    -0.045 A 
ATOM     70  C   LIG    1       -6.685   4.579   0.384  0.00  0.00    +0.007 A 
ATOM     71  C   LIG    1       -6.573   5.852  -0.105  0.00  0.00    +0.046 A 
ATOM     72  C   LIG    1       -6.254   6.088  -1.442  0.00  0.00    +0.120 A 
ATOM     73  C   LIG    1       -6.054   4.985  -2.256  0.00  0.00    +0.046 A 
ATOM     74  C   LIG    1       -6.172   3.712  -1.742  0.00  0.00    +0.007 A 
BRANCH  72  75
ATOM     75  O   LIG    1       -6.130   7.350  -1.976  0.00  0.00    -0.495 OA
ATOM     76  C   LIG    1       -6.311   8.524  -1.235  0.00  0.00    +0.277 C 
ENDBRANCH  72  75
ENDBRANCH  68  69
ENDBRANCH  24  68
BRANCH  10  77
ATOM     77  C   LIG    1        0.103  -4.951   1.063  0.00  0.00    +0.127 C 
BRANCH  77  78
ATOM     78  C   LIG    1        1.305  -5.637   0.571  0.00  0.00    +0.213 C 
ATOM     79  N   LIG    1        1.405  -7.074   0.651  0.00  0.00    -0.329 N 
ATOM     80  H   LIG    1        1.329  -7.541   1.564  0.00  0.00    +0.145 HD
ATOM     81  H   LIG    1        1.552  -7.621  -0.201  0.00  0.00    +0.145 HD
ATOM     82  O   LIG    1        2.261  -5.036   0.079  0.00  0.00    -0.276 OA
ENDBRANCH  77  78
ENDBRANCH  10  77
TORSDOF 18
