REMARK  Name = molecules/NSVFSAJIGAJDMR-HKBQPEDESA-N.pdb
REMARK                            x       y       z     vdW  Elec       q    Type
REMARK                         _______ _______ _______ _____ _____    ______ ____
ROOT
ATOM      1  C   LIG    1       -0.189   0.119  -2.559  0.00  0.00    +0.065 C 
ATOM      2  C   LIG    1       -1.135   0.710  -1.620  0.00  0.00    +0.097 C 
ATOM      3  C   LIG    1       -2.513   0.255  -1.811  0.00  0.00    +0.070 C 
ATOM      4  C   LIG    1       -2.868  -0.597  -2.727  0.00  0.00    +0.017 C 
ATOM      5  C   LIG    1       -4.318  -0.952  -2.780  0.00  0.00    +0.061 C 
ATOM      6  N   LIG    1       -1.930  -1.157  -3.624  0.00  0.00    -0.321 N 
ATOM      7  H   LIG    1       -2.231  -1.833  -4.347  0.00  0.00    +0.152 HD
ATOM      8  C   LIG    1       -0.570  -0.737  -3.472  0.00  0.00    +0.016 C 
ATOM      9  C   LIG    1        0.425  -1.319  -4.425  0.00  0.00    +0.061 C 
ENDROOT
BRANCH   3  10
ATOM     10  P   LIG    1       -3.747   0.950  -0.676  0.00  0.00    +0.362 P 
ATOM     11  O   LIG    1       -3.853  -0.057   0.638  0.00  0.00    -0.304 OA
ATOM     12  C   LIG    1       -5.137  -0.326   1.051  0.00  0.00    +0.179 C 
ATOM     13  C   LIG    1       -6.132   0.765   0.752  0.00  0.00    +0.013 C 
ATOM     14  C   LIG    1       -5.801   2.070   1.393  0.00  0.00    +0.015 C 
ATOM     15  C   LIG    1       -7.472   0.284   1.322  0.00  0.00    +0.015 C 
ATOM     16  C   LIG    1       -6.312   0.859  -0.724  0.00  0.00    +0.179 C 
ATOM     17  O   LIG    1       -3.218   2.291  -0.236  0.00  0.00    -0.253 OA
ATOM     18  O   LIG    1       -5.211   1.220  -1.448  0.00  0.00    -0.304 OA
ENDBRANCH   3  10
BRANCH   2  19
ATOM     19  C   LIG    1       -0.784   0.420  -0.200  0.00  0.00    -0.033 A 
ATOM     20  C   LIG    1       -0.325   1.446   0.582  0.00  0.00    +0.005 A 
ATOM     21  C   LIG    1        0.012   1.204   1.920  0.00  0.00    +0.003 A 
ATOM     22  C   LIG    1       -0.118  -0.070   2.451  0.00  0.00    +0.033 A 
ATOM     23  C   LIG    1       -0.579  -1.107   1.671  0.00  0.00    +0.126 A 
ATOM     24  C   LIG    1       -0.905  -0.828   0.345  0.00  0.00    +0.037 A 
BRANCH  23  25
ATOM     25  N   LIG    1       -0.723  -2.425   2.198  0.00  0.00    +0.056 N 
ATOM     26  O   LIG    1       -0.413  -2.600   3.392  0.00  0.00    -0.126 OA
ATOM     27  O   LIG    1       -1.183  -3.468   1.429  0.00  0.00    -0.126 OA
ENDBRANCH  23  25
ENDBRANCH   2  19
BRANCH   1  28
ATOM     28  C   LIG    1        1.245   0.507  -2.478  0.00  0.00    +0.338 C 
ATOM     29  O   LIG    1        2.125   0.065  -3.243  0.00  0.00    -0.245 OA
BRANCH  28  30
ATOM     30  O   LIG    1        1.669   1.409  -1.515  0.00  0.00    -0.460 OA
BRANCH  30  31
ATOM     31  C   LIG    1        2.997   1.840  -1.359  0.00  0.00    +0.251 C 
BRANCH  31  32
ATOM     32  C   LIG    1        3.954   0.738  -1.024  0.00  0.00    +0.146 C 
BRANCH  32  33
ATOM     33  N   LIG    1        3.621   0.061   0.232  0.00  0.00    -0.322 N 
BRANCH  33  34
ATOM     34  C   LIG    1        3.206  -1.270   0.344  0.00  0.00    +0.030 A 
ATOM     35  C   LIG    1        2.849  -1.808   1.560  0.00  0.00    +0.023 A 
ATOM     36  C   LIG    1        2.447  -3.144   1.679  0.00  0.00    +0.002 A 
ATOM     37  C   LIG    1        2.391  -3.975   0.593  0.00  0.00    +0.000 A 
ATOM     38  C   LIG    1        2.744  -3.457  -0.627  0.00  0.00    +0.002 A 
ATOM     39  C   LIG    1        3.139  -2.138  -0.737  0.00  0.00    +0.023 A 
ENDBRANCH  33  34
BRANCH  33  40
ATOM     40  C   LIG    1        3.798   0.934   1.394  0.00  0.00    +0.140 C 
BRANCH  40  41
ATOM     41  C   LIG    1        5.241   1.281   1.543  0.00  0.00    -0.030 A 
ATOM     42  C   LIG    1        5.617   2.446   2.155  0.00  0.00    +0.005 A 
ATOM     43  C   LIG    1        6.956   2.755   2.285  0.00  0.00    +0.000 A 
ATOM     44  C   LIG    1        7.912   1.905   1.808  0.00  0.00    +0.000 A 
ATOM     45  C   LIG    1        7.516   0.722   1.188  0.00  0.00    +0.000 A 
ATOM     46  C   LIG    1        6.183   0.404   1.052  0.00  0.00    +0.005 A 
ENDBRANCH  40  41
ENDBRANCH  33  40
ENDBRANCH  32  33
ENDBRANCH  31  32
ENDBRANCH  30  31
ENDBRANCH  28  30
ENDBRANCH   1  28
TORSDOF 11
