REMARK  Name = molecules/NTEDWGYJNHZKQW-DGMDOPGDSA-N.pdb
REMARK                            x       y       z     vdW  Elec       q    Type
REMARK                         _______ _______ _______ _____ _____    ______ ____
ROOT
ATOM      1  C   LIG    1       -0.821   0.635  -0.685  0.00  0.00    +0.070 C 
ATOM      2  C   LIG    1       -0.236   1.605   0.314  0.00  0.00    +0.171 C 
ATOM      3  C   LIG    1        0.287   0.419   1.089  0.00  0.00    +0.070 C 
ATOM      4  F   LIG    1        0.737   2.420  -0.231  0.00  0.00    -0.245 F 
ATOM      5  C   LIG    1       -0.148  -0.538   0.023  0.00  0.00    +0.120 C 
ENDROOT
BRANCH   5   6
ATOM      6  N   LIG    1       -1.143  -1.512   0.403  0.00  0.00    -0.316 NA
ATOM      7  H   LIG    1       -1.437  -1.468   1.382  0.00  0.00    +0.119 HD
ATOM      8  H   LIG    1       -1.899  -1.547  -0.291  0.00  0.00    +0.119 HD
ENDBRANCH   5   6
BRANCH   5   9
ATOM      9  C   LIG    1        0.974  -1.129  -0.723  0.00  0.00    +0.325 C 
ATOM     10  O   LIG    1        0.998  -2.343  -0.964  0.00  0.00    -0.249 OA
BRANCH   9  11
ATOM     11  O   LIG    1        1.997  -0.318  -1.149  0.00  0.00    -0.479 OA
ATOM     12  H   LIG    1        2.954  -0.474  -0.841  0.00  0.00    +0.295 HD
ENDBRANCH   9  11
ENDBRANCH   5   9
TORSDOF 3
