REMARK  Name = molecules/NTHXOOBQLCIOLC-GARJFASQSA-N.pdb
REMARK                            x       y       z     vdW  Elec       q    Type
REMARK                         _______ _______ _______ _____ _____    ______ ____
ROOT
ATOM      1  C   LIG    1       -0.105   1.288  -0.009  0.00  0.00    +0.064 A 
ATOM      2  C   LIG    1       -1.367   0.751   0.314  0.00  0.00    +0.049 A 
ATOM      3  C   LIG    1       -1.515  -0.521   0.709  0.00  0.00    +0.065 A 
ATOM      4  C   LIG    1       -0.424  -1.360   0.817  0.00  0.00    +0.040 A 
ATOM      5  I   LIG    1       -0.657  -3.367   1.446  0.00  0.00    -0.042 I 
ATOM      6  C   LIG    1        0.865  -0.868   0.504  0.00  0.00    +0.065 A 
ATOM      7  I   LIG    1       -2.970   2.086   0.262  0.00  0.00    -0.041 I 
ATOM      8  C   LIG    1        0.969   0.436   0.106  0.00  0.00    +0.049 A 
ATOM      9  I   LIG    1        2.890   1.229  -0.235  0.00  0.00    -0.041 I 
ENDROOT
BRANCH   3  10
ATOM     10  C   LIG    1       -2.837  -1.148   0.974  0.00  0.00    +0.246 C 
ATOM     11  O   LIG    1       -2.899  -1.965   1.937  0.00  0.00    -0.270 OA
ATOM     12  N   LIG    1       -3.937  -0.850   0.193  0.00  0.00    -0.309 N 
ATOM     13  H   LIG    1       -3.782  -0.161  -0.665  0.00  0.00    +0.149 HD
BRANCH  12  14
ATOM     14  C   LIG    1       -5.256  -1.324   0.257  0.00  0.00    +0.138 C 
BRANCH  14  15
ATOM     15  C   LIG    1       -5.494  -2.735  -0.102  0.00  0.00    +0.157 C 
BRANCH  15  16
ATOM     16  O   LIG    1       -6.942  -2.864  -0.031  0.00  0.00    -0.388 OA
ATOM     17  H   LIG    1       -7.132  -3.823  -0.044  0.00  0.00    +0.210 HD
ENDBRANCH  15  16
BRANCH  15  18
ATOM     18  C   LIG    1       -4.921  -3.759   0.796  0.00  0.00    +0.188 C 
BRANCH  18  19
ATOM     19  O   LIG    1       -5.334  -3.567   2.090  0.00  0.00    -0.392 OA
ATOM     20  H   LIG    1       -6.172  -3.062   2.149  0.00  0.00    +0.210 HD
ENDBRANCH  18  19
ENDBRANCH  15  18
ENDBRANCH  14  15
ENDBRANCH  12  14
ENDBRANCH   3  10
BRANCH   1  21
ATOM     21  N   LIG    1       -0.006   2.666  -0.441  0.00  0.00    -0.267 N 
ATOM     22  C   LIG    1        0.541   3.582   0.480  0.00  0.00    +0.217 C 
ATOM     23  O   LIG    1        0.962   3.113   1.609  0.00  0.00    -0.276 OA
ATOM     24  C   LIG    1        0.692   5.037   0.310  0.00  0.00    +0.109 C 
BRANCH  21  25
ATOM     25  C   LIG    1       -0.457   3.077  -1.724  0.00  0.00    +0.147 C 
BRANCH  25  26
ATOM     26  C   LIG    1        0.512   3.063  -2.844  0.00  0.00    +0.157 C 
BRANCH  26  27
ATOM     27  O   LIG    1       -0.126   3.406  -4.078  0.00  0.00    -0.388 OA
ATOM     28  H   LIG    1       -0.611   4.234  -3.896  0.00  0.00    +0.210 HD
ENDBRANCH  26  27
BRANCH  26  29
ATOM     29  C   LIG    1        1.636   4.074  -2.753  0.00  0.00    +0.188 C 
BRANCH  29  30
ATOM     30  O   LIG    1        1.147   5.383  -2.806  0.00  0.00    -0.392 OA
ATOM     31  H   LIG    1        1.942   5.969  -2.647  0.00  0.00    +0.210 HD
ENDBRANCH  29  30
ENDBRANCH  26  29
ENDBRANCH  25  26
ENDBRANCH  21  25
ENDBRANCH   1  21
BRANCH   6  32
ATOM     32  C   LIG    1        1.937  -1.849   0.565  0.00  0.00    +0.246 C 
ATOM     33  O   LIG    1        1.800  -2.810   1.411  0.00  0.00    -0.270 OA
ATOM     34  N   LIG    1        3.101  -1.876  -0.193  0.00  0.00    -0.309 N 
ATOM     35  H   LIG    1        3.254  -1.167  -0.939  0.00  0.00    +0.149 HD
BRANCH  34  36
ATOM     36  C   LIG    1        4.131  -2.865  -0.060  0.00  0.00    +0.138 C 
BRANCH  36  37
ATOM     37  C   LIG    1        4.838  -2.932   1.245  0.00  0.00    +0.157 C 
BRANCH  37  38
ATOM     38  O   LIG    1        4.069  -3.213   2.336  0.00  0.00    -0.388 OA
ATOM     39  H   LIG    1        4.533  -3.087   3.177  0.00  0.00    +0.210 HD
ENDBRANCH  37  38
BRANCH  37  40
ATOM     40  C   LIG    1        5.665  -1.687   1.525  0.00  0.00    +0.188 C 
BRANCH  40  41
ATOM     41  O   LIG    1        6.462  -1.974   2.631  0.00  0.00    -0.392 OA
ATOM     42  H   LIG    1        6.074  -1.597   3.451  0.00  0.00    +0.210 HD
ENDBRANCH  40  41
ENDBRANCH  37  40
ENDBRANCH  36  37
ENDBRANCH  34  36
ENDBRANCH   6  32
TORSDOF 18
