REMARK  Name = molecules/NUKCGLDCWQXYOQ-UHFFFAOYSA-N.pdb
REMARK                            x       y       z     vdW  Elec       q    Type
REMARK                         _______ _______ _______ _____ _____    ______ ____
ROOT
ATOM      1  C   LIG    1        2.825  -0.155  -0.114  0.00  0.00    +0.218 C 
ATOM      2  O   LIG    1        3.390  -1.303  -0.082  0.00  0.00    -0.276 OA
ATOM      3  N   LIG    1        1.424  -0.021  -0.159  0.00  0.00    -0.298 N 
ATOM      4  C   LIG    1        0.636  -1.230  -0.169  0.00  0.00    +0.126 C 
ATOM      5  C   LIG    1       -0.752  -1.023   0.363  0.00  0.00    +0.126 C 
ATOM      6  N   LIG    1       -1.364   0.205  -0.109  0.00  0.00    -0.298 N 
ATOM      7  C   LIG    1       -2.782   0.299  -0.119  0.00  0.00    +0.218 C 
ATOM      8  O   LIG    1       -3.352   1.347  -0.521  0.00  0.00    -0.276 OA
ATOM      9  C   LIG    1       -0.599   1.321  -0.565  0.00  0.00    +0.126 C 
ATOM     10  C   LIG    1        0.852   1.284  -0.194  0.00  0.00    +0.126 C 
ENDROOT
BRANCH   1  11
ATOM     11  C   LIG    1        3.658   1.079  -0.102  0.00  0.00    +0.126 C 
BRANCH  11  12
ATOM     12  C   LIG    1        5.133   0.757  -0.053  0.00  0.00    +0.202 C 
BRANCH  12  13
ATOM     13  O   LIG    1        5.484   0.037   1.067  0.00  0.00    -0.238 OA
BRANCH  13  14
ATOM     14  S   LIG    1        7.135  -0.260   1.015  0.00  0.00    +0.079 S 
ATOM     15  O   LIG    1        7.822   0.856   1.744  0.00  0.00    -0.147 OA
ATOM     16  O   LIG    1        7.491  -1.571   1.653  0.00  0.00    -0.147 OA
ATOM     17  C   LIG    1        7.631  -0.294  -0.703  0.00  0.00    +0.228 C 
ENDBRANCH  13  14
ENDBRANCH  12  13
ENDBRANCH  11  12
ENDBRANCH   1  11
BRANCH   7  18
ATOM     18  C   LIG    1       -3.632  -0.850   0.351  0.00  0.00    +0.126 C 
BRANCH  18  19
ATOM     19  C   LIG    1       -5.086  -0.488   0.238  0.00  0.00    +0.202 C 
BRANCH  19  20
ATOM     20  O   LIG    1       -5.869  -1.535   0.666  0.00  0.00    -0.238 OA
BRANCH  20  21
ATOM     21  S   LIG    1       -7.489  -1.114   0.533  0.00  0.00    +0.079 S 
ATOM     22  O   LIG    1       -8.231  -1.442   1.811  0.00  0.00    -0.147 OA
ATOM     23  C   LIG    1       -7.601   0.652   0.256  0.00  0.00    +0.228 C 
ATOM     24  O   LIG    1       -8.059  -1.865  -0.630  0.00  0.00    -0.147 OA
ENDBRANCH  20  21
ENDBRANCH  19  20
ENDBRANCH  18  19
ENDBRANCH   7  18
TORSDOF 8
