REMARK  Name = molecules/NUKYPUAOHBNCPY-UHFFFAOYSA-N.pdb
REMARK                            x       y       z     vdW  Elec       q    Type
REMARK                         _______ _______ _______ _____ _____    ______ ____
ROOT
ATOM      1  N   LIG    1       -2.070   0.267   0.055  0.00  0.00    -0.263 NA
ATOM      2  C   LIG    1       -1.577  -0.981   0.134  0.00  0.00    +0.112 A 
ATOM      3  C   LIG    1       -0.197  -1.125   0.094  0.00  0.00    +0.042 A 
ATOM      4  C   LIG    1        0.654  -0.051  -0.022  0.00  0.00    +0.027 A 
ATOM      5  C   LIG    1        0.102   1.192  -0.099  0.00  0.00    +0.042 A 
ATOM      6  C   LIG    1       -1.276   1.351  -0.060  0.00  0.00    +0.112 A 
ENDROOT
BRANCH   4   7
ATOM      7  N   LIG    1        2.063  -0.285  -0.056  0.00  0.00    -0.358 N 
ATOM      8  H   LIG    1        2.499  -1.074   0.509  0.00  0.00    +0.142 HD
ATOM      9  H   LIG    1        2.720   0.292  -0.625  0.00  0.00    +0.142 HD
ENDBRANCH   4   7
TORSDOF 1
