REMARK  Name = molecules/NUNIWXHYABYXKF-KRWDZBQOSA-N.pdb
REMARK                            x       y       z     vdW  Elec       q    Type
REMARK                         _______ _______ _______ _____ _____    ______ ____
ROOT
ATOM      1  C   LIG    1       -0.709  -0.166  -0.776  0.00  0.00    +0.178 C 
ENDROOT
BRANCH   1   2
ATOM      2  C   LIG    1       -1.177   1.202  -0.483  0.00  0.00    -0.014 A 
ATOM      3  C   LIG    1       -2.446   1.452   0.050  0.00  0.00    +0.007 A 
ATOM      4  C   LIG    1       -2.841   2.745   0.308  0.00  0.00    +0.015 A 
ATOM      5  C   LIG    1       -2.003   3.812   0.048  0.00  0.00    +0.018 A 
ATOM      6 BR   LIG    1       -2.620   5.576   0.431  0.00  0.00    -0.050 Br
ATOM      7  C   LIG    1       -0.756   3.557  -0.476  0.00  0.00    +0.015 A 
ATOM      8  C   LIG    1       -0.339   2.257  -0.743  0.00  0.00    +0.007 A 
ENDBRANCH   1   2
BRANCH   1   9
ATOM      9  C   LIG    1       -1.613  -1.102  -0.036  0.00  0.00    -0.015 A 
ATOM     10  C   LIG    1       -1.411  -1.264   1.334  0.00  0.00    +0.006 A 
ATOM     11  C   LIG    1       -2.207  -2.109   2.077  0.00  0.00    +0.000 A 
ATOM     12  C   LIG    1       -3.212  -2.792   1.419  0.00  0.00    +0.000 A 
ATOM     13  C   LIG    1       -3.415  -2.635   0.066  0.00  0.00    +0.000 A 
ATOM     14  C   LIG    1       -2.611  -1.789  -0.650  0.00  0.00    +0.006 A 
ENDBRANCH   1   9
BRANCH   1  15
ATOM     15  O   LIG    1        0.573  -0.427  -0.354  0.00  0.00    -0.366 OA
BRANCH  15  16
ATOM     16  C   LIG    1        1.411  -0.845  -1.393  0.00  0.00    +0.176 C 
BRANCH  16  17
ATOM     17  C   LIG    1        2.797  -1.129  -0.941  0.00  0.00    +0.112 C 
BRANCH  17  18
ATOM     18  N   LIG    1        3.496  -0.039  -0.350  0.00  0.00    -0.306 NA
ATOM     19  C   LIG    1        2.849   0.591   0.750  0.00  0.00    +0.104 C 
ATOM     20  C   LIG    1        4.823  -0.467   0.036  0.00  0.00    +0.104 C 
ENDBRANCH  17  18
ENDBRANCH  16  17
ENDBRANCH  15  16
ENDBRANCH   1  15
TORSDOF 6
