REMARK  Name = molecules/NUZWLKWWNNJHPT-UHFFFAOYSA-N.pdb
REMARK                            x       y       z     vdW  Elec       q    Type
REMARK                         _______ _______ _______ _____ _____    ______ ____
ROOT
ATOM      1  O   LIG    1       -0.045   2.452   0.450  0.00  0.00    -0.286 OA
ATOM      2  C   LIG    1       -0.042   1.226   0.228  0.00  0.00    +0.201 C 
ATOM      3  C   LIG    1        1.219   0.503   0.135  0.00  0.00    +0.067 A 
ATOM      4  C   LIG    1        2.440   1.171   0.295  0.00  0.00    +0.128 A 
ATOM      5  C   LIG    1        3.647   0.449   0.201  0.00  0.00    +0.046 A 
ATOM      6  C   LIG    1        3.678  -0.894  -0.042  0.00  0.00    +0.004 A 
ATOM      7  C   LIG    1        2.491  -1.540  -0.197  0.00  0.00    +0.005 A 
ATOM      8  C   LIG    1        1.258  -0.842  -0.108  0.00  0.00    -0.029 A 
ATOM      9  C   LIG    1        0.025  -1.623  -0.288  0.00  0.00    +0.072 C 
ATOM     10  C   LIG    1       -1.198  -0.869  -0.189  0.00  0.00    -0.029 A 
ATOM     11  C   LIG    1       -2.407  -1.584  -0.357  0.00  0.00    +0.005 A 
ATOM     12  C   LIG    1       -3.621  -0.952  -0.280  0.00  0.00    +0.004 A 
ATOM     13  C   LIG    1       -3.676   0.385  -0.038  0.00  0.00    +0.046 A 
ATOM     14  C   LIG    1       -2.503   1.136   0.135  0.00  0.00    +0.128 A 
ATOM     15  C   LIG    1       -1.302   0.474   0.052  0.00  0.00    +0.067 A 
ENDROOT
BRANCH   4  16
ATOM     16  O   LIG    1        2.482   2.501   0.538  0.00  0.00    -0.506 OA
ATOM     17  H   LIG    1        1.939   3.261   0.659  0.00  0.00    +0.292 HD
ENDBRANCH   4  16
BRANCH  14  18
ATOM     18  O   LIG    1       -2.626   2.464   0.372  0.00  0.00    -0.506 OA
ATOM     19  H   LIG    1       -2.004   3.177   0.521  0.00  0.00    +0.292 HD
ENDBRANCH  14  18
TORSDOF 2
