REMARK  Name = molecules/NVBZUCIQNYPGCI-CTYIDZIISA-N.pdb
REMARK                            x       y       z     vdW  Elec       q    Type
REMARK                         _______ _______ _______ _____ _____    ______ ____
ROOT
ATOM      1  C   LIG    1       -0.740  -1.456  -0.181  0.00  0.00    +0.166 C 
ATOM      2  O   LIG    1       -1.239  -2.311   0.600  0.00  0.00    -0.292 OA
ENDROOT
BRANCH   1   3
ATOM      3  C   LIG    1        0.682  -1.109  -0.130  0.00  0.00    +0.018 A 
ATOM      4  C   LIG    1        1.530  -1.633   0.819  0.00  0.00    +0.011 A 
ATOM      5  C   LIG    1        2.874  -1.314   0.823  0.00  0.00    +0.004 A 
ATOM      6  C   LIG    1        3.395  -0.461  -0.127  0.00  0.00    -0.047 A 
ATOM      7  C   LIG    1        2.545   0.066  -1.078  0.00  0.00    +0.004 A 
ATOM      8  C   LIG    1        1.213  -0.259  -1.071  0.00  0.00    +0.011 A 
BRANCH   6   9
ATOM      9  C   LIG    1        4.830  -0.079  -0.183  0.00  0.00    +0.046 C 
BRANCH   9  10
ATOM     10  C   LIG    1        5.077   1.175   0.631  0.00  0.00    +0.125 C 
BRANCH  10  11
ATOM     11  C   LIG    1        6.485   1.601   0.610  0.00  0.00    +0.305 C 
ATOM     12  O   LIG    1        6.994   2.059   1.664  0.00  0.00    -0.251 OA
BRANCH  11  13
ATOM     13  O   LIG    1        7.231   1.502  -0.535  0.00  0.00    -0.481 OA
ATOM     14  H   LIG    1        6.845   1.558  -1.477  0.00  0.00    +0.295 HD
ENDBRANCH  11  13
ENDBRANCH  10  11
ENDBRANCH   9  10
ENDBRANCH   6   9
ENDBRANCH   1   3
BRANCH   1  15
ATOM     15  C   LIG    1       -1.602  -0.757  -1.195  0.00  0.00    +0.060 C 
ATOM     16  C   LIG    1       -1.655   0.726  -0.855  0.00  0.00    +0.012 C 
ATOM     17  C   LIG    1       -2.976   1.143  -0.277  0.00  0.00    +0.005 C 
ATOM     18  C   LIG    1       -3.425   0.157   0.771  0.00  0.00    +0.003 C 
ATOM     19  C   LIG    1       -3.706  -1.182   0.138  0.00  0.00    +0.005 C 
ATOM     20  C   LIG    1       -2.975  -1.343  -1.166  0.00  0.00    +0.012 C 
BRANCH  18  21
ATOM     21  C   LIG    1       -4.618   0.691   1.527  0.00  0.00    +0.081 C 
BRANCH  21  22
ATOM     22  N   LIG    1       -5.788   0.883   0.733  0.00  0.00    -0.330 NA
ATOM     23  H   LIG    1       -6.585   0.270   0.941  0.00  0.00    +0.118 HD
ATOM     24  H   LIG    1       -5.580   1.062  -0.252  0.00  0.00    +0.118 HD
ENDBRANCH  21  22
ENDBRANCH  18  21
ENDBRANCH   1  15
TORSDOF 8
