REMARK  Name = molecules/NWGGKKGAFZIVBJ-UHFFFAOYSA-N.pdb
REMARK                            x       y       z     vdW  Elec       q    Type
REMARK                         _______ _______ _______ _____ _____    ______ ____
ROOT
ATOM      1  C   LIG    1       -2.910  -2.201   0.256  0.00  0.00    +0.045 A 
ATOM      2  C   LIG    1       -3.149  -3.527   0.381  0.00  0.00    +0.024 A 
ATOM      3  C   LIG    1       -2.206  -4.513  -0.049  0.00  0.00    +0.002 A 
ATOM      4  C   LIG    1       -1.029  -4.100  -0.602  0.00  0.00    +0.001 A 
ATOM      5  C   LIG    1       -0.773  -2.748  -0.727  0.00  0.00    +0.017 A 
ATOM      6  C   LIG    1       -1.692  -1.769  -0.303  0.00  0.00    +0.080 A 
ENDROOT
BRANCH   1   7
ATOM      7  N   LIG    1       -3.871  -1.205   0.583  0.00  0.00    -0.313 N 
ATOM      8  H   LIG    1       -3.482  -0.338   1.073  0.00  0.00    +0.152 HD
BRANCH   7   9
ATOM      9  C   LIG    1       -5.269  -1.221   0.432  0.00  0.00    +0.042 A 
ATOM     10  C   LIG    1       -5.886   0.076   0.400  0.00  0.00    +0.022 A 
ATOM     11  C   LIG    1       -5.173   1.226   0.509  0.00  0.00    +0.012 A 
ATOM     12  C   LIG    1       -5.824   2.460   0.365  0.00  0.00    +0.013 A 
ATOM     13  C   LIG    1       -7.172   2.528   0.118  0.00  0.00    +0.057 A 
ATOM     14  C   LIG    1       -7.875   1.352   0.025  0.00  0.00    +0.040 A 
ATOM     15  C   LIG    1       -7.238   0.098   0.158  0.00  0.00    +0.073 A 
ATOM     16  N   LIG    1       -7.992  -0.992  -0.040  0.00  0.00    -0.255 NA
ATOM     17  C   LIG    1       -7.426  -2.195  -0.005  0.00  0.00    +0.113 A 
ATOM     18  C   LIG    1       -6.027  -2.332   0.232  0.00  0.00    +0.043 A 
BRANCH  13  19
ATOM     19  C   LIG    1       -7.840   3.839  -0.132  0.00  0.00    +0.417 C 
ATOM     20  F   LIG    1       -8.482   4.325   0.937  0.00  0.00    -0.166 F 
ATOM     21  F   LIG    1       -6.920   4.773  -0.625  0.00  0.00    -0.166 F 
ATOM     22  F   LIG    1       -8.756   3.615  -1.171  0.00  0.00    -0.166 F 
ENDBRANCH  13  19
ENDBRANCH   7   9
ENDBRANCH   1   7
BRANCH   6  23
ATOM     23  C   LIG    1       -1.255  -0.390  -0.307  0.00  0.00    +0.341 C 
ATOM     24  O   LIG    1       -1.817   0.541   0.257  0.00  0.00    -0.245 OA
BRANCH  23  25
ATOM     25  O   LIG    1       -0.118  -0.053  -1.025  0.00  0.00    -0.460 OA
BRANCH  25  26
ATOM     26  C   LIG    1        0.519   1.110  -1.210  0.00  0.00    +0.248 C 
BRANCH  26  27
ATOM     27  C   LIG    1        1.471   1.686  -0.233  0.00  0.00    +0.125 C 
BRANCH  27  28
ATOM     28  N   LIG    1        2.640   0.825  -0.037  0.00  0.00    -0.296 NA
ATOM     29  C   LIG    1        2.404  -0.286   0.872  0.00  0.00    +0.103 C 
ATOM     30  C   LIG    1        3.869  -0.696   1.267  0.00  0.00    +0.120 C 
ATOM     31  N   LIG    1        4.664  -0.528   0.072  0.00  0.00    -0.327 N 
ATOM     32  C   LIG    1        4.008  -0.754  -1.226  0.00  0.00    +0.120 C 
ATOM     33  C   LIG    1        2.870   0.200  -1.391  0.00  0.00    +0.103 C 
BRANCH  31  34
ATOM     34  C   LIG    1        6.007  -0.118   0.049  0.00  0.00    +0.030 A 
ATOM     35  C   LIG    1        6.345   1.215   0.095  0.00  0.00    +0.035 A 
ATOM     36  C   LIG    1        7.647   1.673   0.023  0.00  0.00    +0.057 A 
ATOM     37  C   LIG    1        8.654   0.739  -0.107  0.00  0.00    +0.012 A 
ATOM     38  C   LIG    1        8.329  -0.600  -0.163  0.00  0.00    +0.002 A 
ATOM     39  C   LIG    1        7.015  -1.043  -0.082  0.00  0.00    +0.023 A 
BRANCH  36  40
ATOM     40  C   LIG    1        8.007   3.111   0.056  0.00  0.00    +0.417 C 
ATOM     41  F   LIG    1        8.957   3.396   0.990  0.00  0.00    -0.166 F 
ATOM     42  F   LIG    1        6.865   3.869   0.327  0.00  0.00    -0.166 F 
ATOM     43  F   LIG    1        8.424   3.524  -1.211  0.00  0.00    -0.166 F 
ENDBRANCH  36  40
ENDBRANCH  31  34
ENDBRANCH  27  28
ENDBRANCH  26  27
ENDBRANCH  25  26
ENDBRANCH  23  25
ENDBRANCH   6  23
TORSDOF 10
