REMARK  Name = molecules/NWIBSHFKIJFRCO-WUDYKRTCSA-N.pdb
REMARK                            x       y       z     vdW  Elec       q    Type
REMARK                         _______ _______ _______ _____ _____    ______ ____
ROOT
ATOM      1  C   LIG    1        0.327  -0.471  -0.099  0.00  0.00    +0.037 C 
ATOM      2  C   LIG    1        1.109   0.506   0.366  0.00  0.00    +0.087 C 
ATOM      3  C   LIG    1        2.522   0.240   0.730  0.00  0.00    +0.205 C 
ATOM      4  O   LIG    1        3.252   1.170   1.169  0.00  0.00    -0.286 OA
ATOM      5  C   LIG    1        3.102  -1.089   0.593  0.00  0.00    +0.022 C 
ATOM      6  C   LIG    1        4.522  -1.365   0.958  0.00  0.00    +0.050 C 
ATOM      7  C   LIG    1        2.339  -2.058   0.135  0.00  0.00    +0.079 C 
ATOM      8  N   LIG    1        0.347   1.706   0.396  0.00  0.00    -0.295 N 
ATOM      9  C   LIG    1        0.217   3.011   0.979  0.00  0.00    +0.128 C 
ATOM     10  C   LIG    1       -1.157   3.485   0.681  0.00  0.00    +0.093 C 
ATOM     11  N   LIG    1       -2.212   2.642   1.199  0.00  0.00    -0.302 NA
ATOM     12  H   LIG    1       -3.132   3.077   1.367  0.00  0.00    +0.123 HD
ATOM     13  C   LIG    1       -1.827   2.428  -0.163  0.00  0.00    +0.124 C 
ATOM     14  C   LIG    1       -0.719   1.545  -0.556  0.00  0.00    +0.163 C 
ATOM     15  C   LIG    1        0.943  -1.782  -0.221  0.00  0.00    +0.205 C 
ATOM     16  O   LIG    1        0.244  -2.732  -0.657  0.00  0.00    -0.286 OA
ATOM     17  C   LIG    1       -1.031   0.068  -0.371  0.00  0.00    +0.114 C 
ENDROOT
BRANCH   7  18
ATOM     18  N   LIG    1        2.894  -3.357  -0.003  0.00  0.00    -0.355 N 
ATOM     19  H   LIG    1        2.881  -4.065   0.774  0.00  0.00    +0.142 HD
ATOM     20  H   LIG    1        3.336  -3.645  -0.897  0.00  0.00    +0.142 HD
ENDBRANCH   7  18
BRANCH  14  21
ATOM     21  O   LIG    1       -0.162   1.836  -1.791  0.00  0.00    -0.357 OA
ATOM     22  C   LIG    1       -1.010   1.757  -2.859  0.00  0.00    +0.196 C 
ENDBRANCH  14  21
BRANCH  17  23
ATOM     23  C   LIG    1       -1.979  -0.117   0.762  0.00  0.00    +0.246 C 
BRANCH  23  24
ATOM     24  O   LIG    1       -2.219  -1.428   1.130  0.00  0.00    -0.450 OA
BRANCH  24  25
ATOM     25  C   LIG    1       -2.771  -2.429   0.362  0.00  0.00    +0.398 C 
ATOM     26  N   LIG    1       -2.997  -3.750   0.777  0.00  0.00    -0.295 N 
ATOM     27  H   LIG    1       -3.544  -3.985   1.632  0.00  0.00    +0.148 HD
ATOM     28  H   LIG    1       -2.610  -4.541   0.219  0.00  0.00    +0.148 HD
ATOM     29  O   LIG    1       -3.100  -2.115  -0.828  0.00  0.00    -0.227 OA
ENDBRANCH  24  25
ENDBRANCH  23  24
ENDBRANCH  17  23
TORSDOF 5
