REMARK  Name = molecules/NWIUTZDMDHAVTP-KRWDZBQOSA-N.pdb
REMARK                            x       y       z     vdW  Elec       q    Type
REMARK                         _______ _______ _______ _____ _____    ______ ____
ROOT
ATOM      1  C   LIG    1       -0.464   0.083  -0.109  0.00  0.00    +0.121 A 
ATOM      2  C   LIG    1        0.500  -0.875  -0.190  0.00  0.00    +0.046 A 
ATOM      3  C   LIG    1        1.811  -0.541  -0.439  0.00  0.00    +0.007 A 
ATOM      4  C   LIG    1        2.200   0.779  -0.618  0.00  0.00    -0.045 A 
ATOM      5  C   LIG    1        1.212   1.730  -0.532  0.00  0.00    +0.007 A 
ATOM      6  C   LIG    1       -0.111   1.404  -0.281  0.00  0.00    +0.046 A 
ENDROOT
BRANCH   1   7
ATOM      7  O   LIG    1       -1.804  -0.203   0.141  0.00  0.00    -0.489 OA
BRANCH   7   8
ATOM      8  C   LIG    1       -2.259  -1.532   0.330  0.00  0.00    +0.261 C 
BRANCH   8   9
ATOM      9  C   LIG    1       -3.752  -1.467   0.569  0.00  0.00    +0.166 C 
BRANCH   9  10
ATOM     10  O   LIG    1       -3.957  -0.692   1.705  0.00  0.00    -0.387 OA
ATOM     11  H   LIG    1       -3.267   0.033   1.790  0.00  0.00    +0.210 HD
ENDBRANCH   9  10
BRANCH   9  12
ATOM     12  C   LIG    1       -4.385  -0.885  -0.673  0.00  0.00    +0.115 C 
BRANCH  12  13
ATOM     13  N   LIG    1       -5.788  -0.718  -0.618  0.00  0.00    -0.311 NA
ATOM     14  H   LIG    1       -6.322  -0.895  -1.469  0.00  0.00    +0.122 HD
BRANCH  13  15
ATOM     15  C   LIG    1       -6.306   0.263   0.265  0.00  0.00    +0.048 C 
ATOM     16  C   LIG    1       -7.830   0.260   0.102  0.00  0.00    +0.023 C 
ATOM     17  C   LIG    1       -5.819   1.627  -0.149  0.00  0.00    +0.023 C 
ENDBRANCH  13  15
ENDBRANCH  12  13
ENDBRANCH   9  12
ENDBRANCH   8   9
ENDBRANCH   7   8
ENDBRANCH   1   7
BRANCH   4  18
ATOM     18  C   LIG    1        3.609   1.145  -0.891  0.00  0.00    +0.063 C 
BRANCH  18  19
ATOM     19  C   LIG    1        4.359   1.384   0.415  0.00  0.00    +0.164 C 
BRANCH  19  20
ATOM     20  O   LIG    1        5.673   1.719   0.203  0.00  0.00    -0.379 OA
BRANCH  20  21
ATOM     21  C   LIG    1        6.383   0.735  -0.485  0.00  0.00    +0.163 C 
BRANCH  21  22
ATOM     22  C   LIG    1        6.395  -0.576   0.238  0.00  0.00    +0.015 C 
ATOM     23  C   LIG    1        7.655  -1.129   0.814  0.00  0.00    +0.006 C 
ATOM     24  C   LIG    1        7.158  -1.685  -0.471  0.00  0.00    +0.006 C 
ENDBRANCH  21  22
ENDBRANCH  20  21
ENDBRANCH  19  20
ENDBRANCH  18  19
ENDBRANCH   4  18
TORSDOF 12
