REMARK  Name = molecules/NWPJLRSCSQHPJV-UHFFFAOYSA-N.pdb
REMARK                            x       y       z     vdW  Elec       q    Type
REMARK                         _______ _______ _______ _____ _____    ______ ____
ROOT
ATOM      1  C   LIG    1        0.014  -0.885  -0.797  0.00  0.00    +0.086 C 
ENDROOT
BRANCH   1   5
ATOM      2  C   LIG    1        3.725   0.800   0.090  0.00  0.00    +0.101 C 
ATOM      3  C   LIG    1        3.211  -0.380   0.841  0.00  0.00    +0.047 C 
ATOM      4  C   LIG    1        1.694  -0.483   0.892  0.00  0.00    +0.086 C 
ATOM      5  N   LIG    1        1.247  -0.316  -0.466  0.00  0.00    -0.302 NA
ATOM      6  C   LIG    1        1.403   1.078  -0.816  0.00  0.00    +0.086 C 
ATOM      7  C   LIG    1        2.885   1.305  -1.027  0.00  0.00    +0.047 C 
BRANCH   2   8
ATOM      8  N   LIG    1        5.053   0.521  -0.411  0.00  0.00    -0.289 NA
ATOM      9  C   LIG    1        6.000   0.304   0.665  0.00  0.00    +0.085 C 
ATOM     10  C   LIG    1        6.751  -1.000   0.551  0.00  0.00    +0.015 C 
ATOM     11  C   LIG    1        7.434  -1.179  -0.781  0.00  0.00    +0.002 C 
ATOM     12  C   LIG    1        6.603  -0.512  -1.869  0.00  0.00    +0.015 C 
ATOM     13  C   LIG    1        5.155  -0.544  -1.345  0.00  0.00    +0.085 C 
ENDBRANCH   2   8
BRANCH   2  14
ATOM     14  C   LIG    1        3.845   1.921   1.071  0.00  0.00    +0.231 C 
ATOM     15  N   LIG    1        2.778   2.356   1.875  0.00  0.00    -0.328 N 
ATOM     16  H   LIG    1        2.605   1.903   2.787  0.00  0.00    +0.145 HD
ATOM     17  H   LIG    1        2.167   3.123   1.560  0.00  0.00    +0.145 HD
ATOM     18  O   LIG    1        4.990   2.484   1.153  0.00  0.00    -0.274 OA
ENDBRANCH   2  14
ENDBRANCH   1   5
BRANCH   1  19
ATOM     19  C   LIG    1       -1.183  -0.167  -0.117  0.00  0.00    +0.035 C 
BRANCH  19  20
ATOM     20  C   LIG    1       -2.418  -0.831  -0.503  0.00  0.00    +0.112 C 
BRANCH  20  21
ATOM     21  N   LIG    1       -3.708  -0.437  -0.114  0.00  0.00    -0.300 N 
ATOM     22  C   LIG    1       -4.290  -0.880   1.139  0.00  0.00    +0.037 A 
ATOM     23  C   LIG    1       -3.426  -1.701   1.819  0.00  0.00    +0.024 A 
ATOM     24  C   LIG    1       -3.730  -2.276   3.060  0.00  0.00    +0.002 A 
ATOM     25  C   LIG    1       -4.955  -1.988   3.595  0.00  0.00    +0.000 A 
ATOM     26  C   LIG    1       -5.850  -1.178   2.958  0.00  0.00    +0.005 A 
ATOM     27  C   LIG    1       -5.530  -0.611   1.718  0.00  0.00    -0.026 A 
ATOM     28  C   LIG    1       -6.637   0.239   1.220  0.00  0.00    +0.042 C 
ATOM     29  C   LIG    1       -6.835  -0.034  -0.242  0.00  0.00    +0.042 C 
ATOM     30  C   LIG    1       -5.828   0.617  -1.074  0.00  0.00    -0.026 A 
ATOM     31  C   LIG    1       -6.353   1.474  -1.992  0.00  0.00    +0.005 A 
ATOM     32  C   LIG    1       -5.498   2.164  -2.839  0.00  0.00    +0.000 A 
ATOM     33  C   LIG    1       -4.153   2.011  -2.785  0.00  0.00    +0.002 A 
ATOM     34  C   LIG    1       -3.629   1.121  -1.831  0.00  0.00    +0.024 A 
ATOM     35  C   LIG    1       -4.439   0.425  -0.980  0.00  0.00    +0.037 A 
ENDBRANCH  20  21
ENDBRANCH  19  20
ENDBRANCH   1  19
TORSDOF 6
