REMARK  Name = molecules/NXFQHRVNIOXGAQ-YCRREMRBSA-N.pdb
REMARK                            x       y       z     vdW  Elec       q    Type
REMARK                         _______ _______ _______ _____ _____    ______ ____
ROOT
ATOM      1  C   LIG    1        0.179  -0.395   0.320  0.00  0.00    +0.177 C 
ATOM      2  N   LIG    1       -0.751   0.434  -0.008  0.00  0.00    -0.180 NA
ENDROOT
BRANCH   2   3
ATOM      3  N   LIG    1       -2.089   0.024   0.097  0.00  0.00    -0.168 N 
ATOM      4  C   LIG    1       -3.100   0.612   0.952  0.00  0.00    +0.232 C 
ATOM      5  C   LIG    1       -4.322   0.467   0.128  0.00  0.00    +0.240 C 
ATOM      6  O   LIG    1       -5.282   1.272   0.098  0.00  0.00    -0.274 OA
ATOM      7  N   LIG    1       -4.125  -0.762  -0.581  0.00  0.00    -0.237 N 
ATOM      8  H   LIG    1       -4.903  -1.330  -1.000  0.00  0.00    +0.159 HD
ATOM      9  C   LIG    1       -2.728  -1.040  -0.600  0.00  0.00    +0.328 C 
ATOM     10  O   LIG    1       -2.154  -2.032  -1.129  0.00  0.00    -0.250 OA
ENDBRANCH   2   3
BRANCH   1  13
ATOM     11  C   LIG    1        3.721  -0.201   0.361  0.00  0.00    +0.280 A 
ATOM     12  O   LIG    1        2.582  -0.812   0.545  0.00  0.00    -0.433 OA
ATOM     13  C   LIG    1        1.585  -0.038   0.235  0.00  0.00    +0.150 A 
ATOM     14  C   LIG    1        2.079   1.178  -0.187  0.00  0.00    +0.053 A 
ATOM     15  C   LIG    1        3.446   1.060  -0.101  0.00  0.00    +0.076 A 
BRANCH  11  17
ATOM     16  O   LIG    1        6.121   0.033   0.352  0.00  0.00    -0.123 OA
ATOM     17  N   LIG    1        5.035  -0.754   0.601  0.00  0.00    +0.093 N 
ATOM     18  O   LIG    1        5.177  -1.910   1.022  0.00  0.00    -0.123 OA
ENDBRANCH  11  17
ENDBRANCH   1  13
TORSDOF 3
