REMARK  Name = molecules/NXQMNKUGGYNLBY-LBPRGKRZSA-N.pdb
REMARK                            x       y       z     vdW  Elec       q    Type
REMARK                         _______ _______ _______ _____ _____    ______ ____
ROOT
ATOM      1  C   LIG    1       -0.226  -0.426  -1.864  0.00  0.00    +0.261 C 
ENDROOT
BRANCH   1   2
ATOM      2  O   LIG    1       -0.818   0.280  -0.805  0.00  0.00    -0.489 OA
BRANCH   2   3
ATOM      3  C   LIG    1       -2.166   0.098  -0.555  0.00  0.00    +0.121 A 
ATOM      4  C   LIG    1       -2.740   0.794   0.487  0.00  0.00    +0.049 A 
ATOM      5  C   LIG    1       -4.066   0.650   0.774  0.00  0.00    -0.047 A 
ATOM      6  C   LIG    1       -4.688   1.408   1.907  0.00  0.00    +0.044 C 
ATOM      7  C   LIG    1       -4.826  -0.205   0.004  0.00  0.00    +0.003 A 
ATOM      8  C   LIG    1       -4.271  -0.908  -1.041  0.00  0.00    +0.004 A 
ATOM      9  C   LIG    1       -2.926  -0.755  -1.324  0.00  0.00    +0.045 A 
ENDBRANCH   2   3
ENDBRANCH   1   2
BRANCH   1  10
ATOM     10  C   LIG    1        1.252  -0.009  -1.878  0.00  0.00    +0.166 C 
BRANCH  10  11
ATOM     11  O   LIG    1        1.265   1.388  -2.083  0.00  0.00    -0.387 OA
ATOM     12  H   LIG    1        1.359   1.600  -3.045  0.00  0.00    +0.210 HD
ENDBRANCH  10  11
BRANCH  10  13
ATOM     13  C   LIG    1        1.748  -0.258  -0.471  0.00  0.00    +0.115 C 
BRANCH  13  14
ATOM     14  N   LIG    1        3.075   0.236  -0.244  0.00  0.00    -0.311 NA
ATOM     15  H   LIG    1        3.759  -0.046  -0.950  0.00  0.00    +0.122 HD
BRANCH  14  16
ATOM     16  C   LIG    1        3.444  -0.044   1.119  0.00  0.00    +0.048 C 
ATOM     17  C   LIG    1        4.830   0.499   1.378  0.00  0.00    +0.023 C 
ATOM     18  C   LIG    1        3.475  -1.526   1.363  0.00  0.00    +0.023 C 
ENDBRANCH  14  16
ENDBRANCH  13  14
ENDBRANCH  10  13
ENDBRANCH   1  10
TORSDOF 7
