REMARK  Name = molecules/NXTVQNIVUKXOIL-UHFFFAOYSA-N.pdb
REMARK                            x       y       z     vdW  Elec       q    Type
REMARK                         _______ _______ _______ _____ _____    ______ ____
ROOT
ATOM      1  C   LIG    1       -0.877  -0.234  -0.152  0.00  0.00    +0.106 A 
ATOM      2  C   LIG    1       -0.038  -1.192   0.412  0.00  0.00    +0.029 A 
ATOM      3  C   LIG    1        1.331  -1.044   0.453  0.00  0.00    +0.005 A 
ATOM      4  C   LIG    1        1.923   0.093  -0.080  0.00  0.00    -0.050 A 
ATOM      5  C   LIG    1        3.396   0.212  -0.014  0.00  0.00    +0.044 C 
ATOM      6  C   LIG    1        1.117   1.044  -0.637  0.00  0.00    +0.005 A 
ATOM      7  C   LIG    1       -0.247   0.890  -0.674  0.00  0.00    +0.029 A 
ENDROOT
BRANCH   1   8
ATOM      8  S   LIG    1       -2.610  -0.426  -0.201  0.00  0.00    +0.072 S 
ATOM      9  O   LIG    1       -2.998  -1.878  -0.396  0.00  0.00    -0.152 OA
ATOM     10  O   LIG    1       -3.152   0.315  -1.404  0.00  0.00    -0.152 OA
BRANCH   8  11
ATOM     11  N   LIG    1       -3.375   0.224   1.188  0.00  0.00    -0.101 NA
ATOM     12  H   LIG    1       -4.161  -0.359   1.536  0.00  0.00    +0.168 HD
ATOM     13 CL   LIG    1       -3.803   1.890   0.981  0.00  0.00    -0.002 Cl
ENDBRANCH   8  11
ENDBRANCH   1   8
TORSDOF 2
