REMARK  Name = molecules/NYIZXMGNIUSNKL-UHFFFAOYSA-N.pdb
REMARK                            x       y       z     vdW  Elec       q    Type
REMARK                         _______ _______ _______ _____ _____    ______ ____
ROOT
ATOM      1  C   LIG    1        0.880  -1.018  -0.136  0.00  0.00    +0.175 A 
ATOM      2  C   LIG    1        1.125  -2.110   0.679  0.00  0.00    +0.050 A 
ATOM      3  C   LIG    1        0.085  -2.815   1.238  0.00  0.00    +0.005 A 
ATOM      4  C   LIG    1       -1.230  -2.466   1.012  0.00  0.00    +0.019 A 
ATOM      5  C   LIG    1       -1.494  -1.364   0.191  0.00  0.00    +0.105 A 
ATOM      6  C   LIG    1       -0.434  -0.664  -0.365  0.00  0.00    +0.188 A 
ENDROOT
BRANCH   5   7
ATOM      7  C   LIG    1       -2.870  -0.969  -0.070  0.00  0.00    +0.341 C 
ATOM      8  O   LIG    1       -3.067   0.023  -0.814  0.00  0.00    -0.245 OA
BRANCH   7   9
ATOM      9  O   LIG    1       -3.900  -1.685   0.498  0.00  0.00    -0.477 OA
ATOM     10  H   LIG    1       -4.149  -2.583   0.056  0.00  0.00    +0.295 HD
ENDBRANCH   7   9
ENDBRANCH   5   7
BRANCH   1  11
ATOM     11  O   LIG    1        1.870  -0.273  -0.725  0.00  0.00    -0.422 OA
BRANCH  11  13
ATOM     12  C   LIG    1        3.597   1.562  -0.872  0.00  0.00    +0.136 C 
ATOM     13  C   LIG    1        2.529   0.792  -0.181  0.00  0.00    +0.309 C 
ATOM     14  O   LIG    1        2.214   1.150   0.982  0.00  0.00    -0.251 OA
ENDBRANCH  11  13
ENDBRANCH   1  11
BRANCH   6  15
ATOM     15  O   LIG    1       -0.712   0.427  -1.178  0.00  0.00    -0.421 OA
BRANCH  15  16
ATOM     16  C   LIG    1       -0.869   1.671  -0.584  0.00  0.00    +0.309 C 
ATOM     17  O   LIG    1       -0.774   1.870   0.656  0.00  0.00    -0.251 OA
ATOM     18  C   LIG    1       -1.167   2.865  -1.419  0.00  0.00    +0.136 C 
ENDBRANCH  15  16
ENDBRANCH   6  15
TORSDOF 6
