REMARK  Name = molecules/NYMGNSNKLVNMIA-UHFFFAOYSA-N.pdb
REMARK                            x       y       z     vdW  Elec       q    Type
REMARK                         _______ _______ _______ _____ _____    ______ ____
ROOT
ATOM      1  C   LIG    1        0.557   0.038   0.054  0.00  0.00    +0.258 C 
ATOM      2  N   LIG    1       -0.262   0.321   1.162  0.00  0.00    -0.247 N 
ATOM      3  H   LIG    1        0.204   0.281   2.109  0.00  0.00    +0.169 HD
ATOM      4  O   LIG    1        0.082   0.058  -1.112  0.00  0.00    -0.269 OA
ENDROOT
BRANCH   1   5
ATOM      5  C   LIG    1        1.993  -0.293   0.215  0.00  0.00    +0.041 A 
ATOM      6  C   LIG    1        2.708  -0.031   1.332  0.00  0.00    +0.033 A 
ATOM      7  C   LIG    1        4.040  -0.353   1.397  0.00  0.00    +0.111 A 
ATOM      8  N   LIG    1        4.618  -0.928   0.342  0.00  0.00    -0.263 NA
ATOM      9  C   LIG    1        3.955  -1.213  -0.801  0.00  0.00    +0.111 A 
ATOM     10  C   LIG    1        2.620  -0.886  -0.857  0.00  0.00    +0.033 A 
ENDBRANCH   1   5
BRANCH   2  11
ATOM     11  N   LIG    1       -1.567   0.636   1.121  0.00  0.00    -0.238 NA
ATOM     12  H   LIG    1       -2.049   0.889   1.979  0.00  0.00    +0.145 HD
BRANCH  11  13
ATOM     13  C   LIG    1       -2.326   0.593  -0.055  0.00  0.00    +0.067 C 
ATOM     14  C   LIG    1       -3.645   1.342   0.247  0.00  0.00    +0.025 C 
ATOM     15  C   LIG    1       -2.594  -0.716  -0.696  0.00  0.00    +0.025 C 
ENDBRANCH  11  13
ENDBRANCH   2  11
TORSDOF 3
