REMARK  Name = molecules/NYNZQNWKBKUAII-KBXCAEBGSA-N.pdb
REMARK                            x       y       z     vdW  Elec       q    Type
REMARK                         _______ _______ _______ _____ _____    ______ ____
ROOT
ATOM      1  C   LIG    1       -1.226  -3.021  -1.135  0.00  0.00    +0.118 A 
ATOM      2  C   LIG    1       -1.805  -1.871  -0.641  0.00  0.00    +0.063 A 
ATOM      3  C   LIG    1       -1.021  -0.896  -0.075  0.00  0.00    +0.126 A 
ATOM      4  N   LIG    1        0.315  -1.192  -0.061  0.00  0.00    -0.211 NA
ATOM      5  C   LIG    1        0.854  -2.316  -0.544  0.00  0.00    +0.179 A 
ATOM      6  C   LIG    1        2.202  -2.785  -0.579  0.00  0.00    +0.099 A 
ATOM      7  C   LIG    1        2.140  -4.031  -1.178  0.00  0.00    +0.160 A 
ATOM      8  N   LIG    1        0.852  -4.266  -1.470  0.00  0.00    -0.171 NA
ATOM      9  N   LIG    1        0.106  -3.265  -1.097  0.00  0.00    -0.220 N 
ENDROOT
BRANCH   6  10
ATOM     10  N   LIG    1        3.257  -2.025  -0.146  0.00  0.00    -0.265 N 
ATOM     11  C   LIG    1        4.296  -1.276   0.280  0.00  0.00    +0.307 C 
ATOM     12  O   LIG    1        5.414  -1.814   0.674  0.00  0.00    -0.252 OA
ATOM     13  N   LIG    1        4.300   0.197   0.350  0.00  0.00    -0.283 N 
ATOM     14  C   LIG    1        5.411   0.936   0.831  0.00  0.00    +0.140 C 
ATOM     15  C   LIG    1        4.982   2.365   0.846  0.00  0.00    +0.133 C 
ATOM     16  C   LIG    1        3.548   2.400   0.421  0.00  0.00    +0.052 C 
ATOM     17  C   LIG    1        3.244   1.011  -0.066  0.00  0.00    +0.112 C 
ATOM     18  H   LIG    1        3.916  -3.160   0.223  0.00  0.00    +0.157 HD
BRANCH  15  19
ATOM     19  O   LIG    1        5.805   3.180   0.053  0.00  0.00    -0.390 OA
ATOM     20  H   LIG    1        6.469   2.577  -0.347  0.00  0.00    +0.210 HD
ENDBRANCH  15  19
ENDBRANCH   6  10
BRANCH   3  21
ATOM     21  N   LIG    1       -1.497   0.319   0.453  0.00  0.00    -0.308 N 
ATOM     22  C   LIG    1       -0.658   1.102   1.387  0.00  0.00    +0.107 C 
ATOM     23  C   LIG    1       -1.598   1.948   2.176  0.00  0.00    +0.021 C 
ATOM     24  C   LIG    1       -2.965   1.393   1.836  0.00  0.00    +0.029 C 
ATOM     25  C   LIG    1       -2.679   1.073   0.310  0.00  0.00    +0.108 C 
BRANCH  25  26
ATOM     26  C   LIG    1       -3.889   0.574  -0.284  0.00  0.00    +0.011 A 
ATOM     27  C   LIG    1       -4.978   0.247   0.530  0.00  0.00    +0.046 A 
ATOM     28  C   LIG    1       -6.187  -0.199   0.055  0.00  0.00    +0.124 A 
ATOM     29  F   LIG    1       -7.227  -0.499   0.861  0.00  0.00    -0.205 F 
ATOM     30  C   LIG    1       -6.321  -0.328  -1.310  0.00  0.00    +0.041 A 
ATOM     31  C   LIG    1       -5.240  -0.006  -2.146  0.00  0.00    +0.041 A 
ATOM     32  C   LIG    1       -4.043   0.437  -1.649  0.00  0.00    +0.129 A 
ATOM     33  F   LIG    1       -3.001   0.740  -2.502  0.00  0.00    -0.205 F 
ENDBRANCH  25  26
ENDBRANCH   3  21
TORSDOF 4
