REMARK  Name = molecules/NYPYHUZRZVSYKL-ZETCQYMHSA-N.pdb
REMARK                            x       y       z     vdW  Elec       q    Type
REMARK                         _______ _______ _______ _____ _____    ______ ____
ROOT
ATOM      1  C   LIG    1        0.334  -0.194  -0.326  0.00  0.00    -0.043 A 
ATOM      2  C   LIG    1        0.989  -1.049   0.540  0.00  0.00    +0.021 A 
ATOM      3  C   LIG    1        2.236  -0.734   1.071  0.00  0.00    +0.056 A 
ATOM      4  I   LIG    1        3.219  -2.045   2.388  0.00  0.00    -0.040 I 
ATOM      5  C   LIG    1        2.797   0.477   0.695  0.00  0.00    +0.143 A 
ATOM      6  C   LIG    1        2.133   1.322  -0.171  0.00  0.00    +0.056 A 
ATOM      7  I   LIG    1        3.010   3.154  -0.725  0.00  0.00    -0.040 I 
ATOM      8  C   LIG    1        0.905   1.023  -0.700  0.00  0.00    +0.021 A 
ENDROOT
BRANCH   5   9
ATOM      9  O   LIG    1        4.040   0.789   1.225  0.00  0.00    -0.505 OA
ATOM     10  H   LIG    1        4.510   1.651   0.998  0.00  0.00    +0.292 HD
ENDBRANCH   5   9
BRANCH   1  11
ATOM     11  C   LIG    1       -0.961  -0.606  -0.839  0.00  0.00    +0.065 C 
BRANCH  11  12
ATOM     12  CA  LIG    1       -2.167  -0.177  -0.091  0.00  0.00    +0.165 C 
BRANCH  12  13
ATOM     13  N   LIG    1       -2.349   1.247  -0.007  0.00  0.00    -0.318 NA
ATOM     14  H1  LIG    1       -3.006   1.482   0.770  0.00  0.00    +0.119 HD
ATOM     15  H2  LIG    1       -2.663   1.678  -0.902  0.00  0.00    +0.119 HD
ENDBRANCH  12  13
BRANCH  12  16
ATOM     16  C   LIG    1       -2.101  -0.725   1.285  0.00  0.00    +0.322 C 
ATOM     17  OXT LIG    1       -2.116   0.062   2.283  0.00  0.00    -0.249 OA
BRANCH  16  18
ATOM     18  O   LIG    1       -2.025  -2.091   1.549  0.00  0.00    -0.480 OA
ATOM     19  H   LIG    1       -2.637  -2.436   2.291  0.00  0.00    +0.295 HD
ENDBRANCH  16  18
ENDBRANCH  12  16
ENDBRANCH  11  12
ENDBRANCH   1  11
TORSDOF 6
