REMARK  Name = molecules/NZCRJKRKKOLAOJ-RCRBAHGPSA-N.pdb
REMARK                            x       y       z     vdW  Elec       q    Type
REMARK                         _______ _______ _______ _____ _____    ______ ____
ROOT
ATOM      1  C   LIG    1        1.775   1.095  -0.311  0.00  0.00    +0.102 A 
ATOM      2  C   LIG    1        2.672   0.405   0.485  0.00  0.00    +0.099 A 
ATOM      3  N   LIG    1        3.545   0.738   1.529  0.00  0.00    -0.298 N 
ATOM      4  C   LIG    1        3.844   1.901   2.179  0.00  0.00    +0.093 A 
ATOM      5  C   LIG    1        4.739   2.022   3.183  0.00  0.00    +0.021 A 
ATOM      6  C   LIG    1        5.430   0.921   3.621  0.00  0.00    -0.046 A 
ATOM      7  C   LIG    1        6.414   1.008   4.719  0.00  0.00    +0.044 C 
ATOM      8  C   LIG    1        5.144  -0.250   2.980  0.00  0.00    +0.050 A 
ATOM      9  C   LIG    1        4.207  -0.316   1.947  0.00  0.00    +0.139 A 
ATOM     10  N   LIG    1        3.799  -1.275   1.228  0.00  0.00    -0.227 NA
ATOM     11  C   LIG    1        2.850  -0.958   0.286  0.00  0.00    +0.101 A 
ATOM     12  C   LIG    1        2.191  -1.747  -0.681  0.00  0.00    +0.031 A 
ATOM     13  C   LIG    1        2.289  -3.094  -0.883  0.00  0.00    +0.076 A 
ATOM     14  C   LIG    1        2.986  -4.222  -0.343  0.00  0.00    +0.238 C 
ATOM     15  O   LIG    1        4.074  -4.535   0.192  0.00  0.00    -0.285 OA
ATOM     16  C   LIG    1        1.994  -5.384  -0.524  0.00  0.00    +0.274 C 
ATOM     17  O   LIG    1        0.907  -5.290   0.299  0.00  0.00    -0.327 OA
ATOM     18  C   LIG    1       -0.446  -5.301   0.129  0.00  0.00    +0.158 C 
ATOM     19  C   LIG    1       -1.230  -4.276  -0.145  0.00  0.00    +0.058 C 
ATOM     20  C   LIG    1       -1.357  -2.997   0.612  0.00  0.00    +0.130 C 
ATOM     21  C   LIG    1       -2.468  -2.169   0.037  0.00  0.00    +0.056 C 
ATOM     22  C   LIG    1       -3.138  -1.195   0.923  0.00  0.00    +0.187 C 
ATOM     23  C   LIG    1       -3.587   0.103   0.255  0.00  0.00    +0.056 C 
ATOM     24  C   LIG    1       -2.511   1.132   0.162  0.00  0.00    +0.126 C 
ATOM     25  C   LIG    1       -2.976   2.579   0.157  0.00  0.00    +0.044 C 
ATOM     26  C   LIG    1       -4.468   2.688   0.528  0.00  0.00    +0.013 C 
ATOM     27  C   LIG    1       -2.749   3.256  -1.138  0.00  0.00    +0.123 C 
ATOM     28  C   LIG    1       -1.875   4.491  -1.178  0.00  0.00    +0.018 C 
ATOM     29  C   LIG    1       -1.381   4.966   0.137  0.00  0.00    +0.010 C 
ATOM     30  C   LIG    1       -0.887   4.441  -2.287  0.00  0.00    +0.002 C 
ATOM     31  C   LIG    1        0.180   5.012  -2.654  0.00  0.00    +0.001 C 
ATOM     32  C   LIG    1        1.607   4.955  -2.411  0.00  0.00    +0.013 C 
ATOM     33  C   LIG    1        2.241   4.547  -1.331  0.00  0.00    +0.062 C 
ATOM     34  C   LIG    1        1.682   3.709  -0.326  0.00  0.00    +0.225 C 
ATOM     35  O   LIG    1        1.626   4.284   0.872  0.00  0.00    -0.275 OA
ATOM     36  C   LIG    1        3.670   5.036  -1.129  0.00  0.00    +0.022 C 
ATOM     37  C   LIG    1       -4.180  -0.110  -1.110  0.00  0.00    +0.014 C 
ATOM     38  C   LIG    1       -3.545  -3.084  -0.587  0.00  0.00    +0.014 C 
ATOM     39  C   LIG    1        2.617  -6.718  -0.502  0.00  0.00    +0.098 C 
ATOM     40  O   LIG    1        1.744  -5.062  -1.908  0.00  0.00    -0.453 OA
ATOM     41  C   LIG    1        1.494  -3.698  -1.883  0.00  0.00    +0.142 A 
ATOM     42  C   LIG    1        0.623  -2.987  -2.670  0.00  0.00    +0.034 A 
ATOM     43  C   LIG    1        0.507  -1.638  -2.485  0.00  0.00    +0.135 A 
ATOM     44  C   LIG    1       -0.225  -3.581  -3.736  0.00  0.00    +0.051 C 
ATOM     45  C   LIG    1        1.301  -1.059  -1.486  0.00  0.00    +0.070 A 
ATOM     46  N   LIG    1        1.173   2.393  -0.341  0.00  0.00    -0.280 N 
ATOM     47  H   LIG    1        0.055   2.421  -0.342  0.00  0.00    +0.155 HD
ATOM     48  C   LIG    1        1.123   0.297  -1.289  0.00  0.00    +0.151 A 
ENDROOT
BRANCH  20  49
ATOM     49  O   LIG    1       -1.337  -3.145   1.970  0.00  0.00    -0.379 OA
ATOM     50  C   LIG    1       -0.142  -2.740   2.554  0.00  0.00    +0.194 C 
ENDBRANCH  20  49
BRANCH  24  51
ATOM     51  O   LIG    1       -1.587   0.882   1.194  0.00  0.00    -0.391 OA
ATOM     52  H   LIG    1       -1.744   1.556   1.931  0.00  0.00    +0.210 HD
ENDBRANCH  24  51
BRANCH  27  53
ATOM     53  O   LIG    1       -4.007   3.514  -1.760  0.00  0.00    -0.391 OA
ATOM     54  H   LIG    1       -4.090   4.476  -1.985  0.00  0.00    +0.210 HD
ENDBRANCH  27  53
BRANCH  43  55
ATOM     55  O   LIG    1       -0.348  -0.855  -3.236  0.00  0.00    -0.506 OA
ATOM     56  H   LIG    1       -0.935  -1.203  -3.969  0.00  0.00    +0.292 HD
ENDBRANCH  43  55
BRANCH  48  57
ATOM     57  O   LIG    1        0.199   0.899  -2.180  0.00  0.00    -0.504 OA
ATOM     58  H   LIG    1        0.036   1.842  -2.254  0.00  0.00    +0.292 HD
ENDBRANCH  48  57
BRANCH  22  59
ATOM     59  O   LIG    1       -2.497  -0.832   2.097  0.00  0.00    -0.461 OA
BRANCH  59  60
ATOM     60  C   LIG    1       -2.974  -1.006   3.381  0.00  0.00    +0.304 C 
ATOM     61  C   LIG    1       -2.233  -0.594   4.600  0.00  0.00    +0.136 C 
ATOM     62  O   LIG    1       -4.096  -1.543   3.534  0.00  0.00    -0.251 OA
ENDBRANCH  59  60
ENDBRANCH  22  59
TORSDOF 7
