REMARK  Name = molecules/NZGMVSJQULXLHF-QOGHJSHSSA-N.pdb
REMARK                            x       y       z     vdW  Elec       q    Type
REMARK                         _______ _______ _______ _____ _____    ______ ____
ROOT
ATOM      1  C   LIG    1        1.710  -1.213  -0.803  0.00  0.00    +0.169 C 
ATOM      2  C   LIG    1        1.572  -2.688  -0.797  0.00  0.00    +0.084 C 
ATOM      3  C   LIG    1        0.146  -3.090  -1.089  0.00  0.00    +0.042 C 
ATOM      4  C   LIG    1       -0.874  -2.428  -0.235  0.00  0.00    +0.087 C 
ATOM      5  C   LIG    1       -0.693  -0.917  -0.173  0.00  0.00    +0.169 C 
ATOM      6  C   LIG    1        0.381  -0.526  -1.158  0.00  0.00    +0.175 C 
ENDROOT
BRANCH   2   7
ATOM      7  N   LIG    1        2.002  -3.205   0.505  0.00  0.00    -0.325 NA
ATOM      8  H   LIG    1        2.760  -2.530   0.829  0.00  0.00    +0.119 HD
ATOM      9  H   LIG    1        2.515  -4.128   0.396  0.00  0.00    +0.119 HD
ENDBRANCH   2   7
BRANCH   4  10
ATOM     10  N   LIG    1       -1.010  -2.921   1.102  0.00  0.00    -0.311 NA
ATOM     11  H   LIG    1       -0.166  -2.848   1.687  0.00  0.00    +0.122 HD
BRANCH  10  12
ATOM     12  C   LIG    1       -1.454  -4.287   1.121  0.00  0.00    +0.078 C 
ATOM     13  C   LIG    1       -1.635  -4.744   2.564  0.00  0.00    +0.020 C 
ENDBRANCH  10  12
ENDBRANCH   4  10
BRANCH   6  14
ATOM     14  O   LIG    1        0.638   0.832  -1.145  0.00  0.00    -0.387 OA
ATOM     15  H   LIG    1        0.387   1.239  -0.289  0.00  0.00    +0.210 HD
ENDBRANCH   6  14
BRANCH   1  16
ATOM     16  O   LIG    1        2.659  -0.674  -1.627  0.00  0.00    -0.342 OA
BRANCH  16  22
ATOM     17  C   LIG    1        4.949  -0.365  -1.287  0.00  0.00    +0.107 C 
ATOM     18  C   LIG    1        6.022   0.495  -0.658  0.00  0.00    +0.026 C 
ATOM     19  C   LIG    1        5.745   1.961  -1.025  0.00  0.00    +0.034 C 
ATOM     20  C   LIG    1        4.312   2.215  -0.614  0.00  0.00    +0.135 C 
ATOM     21  O   LIG    1        3.514   1.472  -1.497  0.00  0.00    -0.345 OA
ATOM     22  C   LIG    1        3.562   0.160  -0.996  0.00  0.00    +0.268 C 
BRANCH  17  23
ATOM     23  N   LIG    1        5.127  -1.721  -0.813  0.00  0.00    -0.323 NA
ATOM     24  H   LIG    1        6.100  -1.845  -0.445  0.00  0.00    +0.119 HD
ATOM     25  H   LIG    1        4.855  -2.404  -1.532  0.00  0.00    +0.119 HD
ENDBRANCH  17  23
BRANCH  20  26
ATOM     26  C   LIG    1        3.992   3.670  -0.600  0.00  0.00    +0.109 C 
BRANCH  26  27
ATOM     27  N   LIG    1        4.186   4.214  -1.917  0.00  0.00    -0.328 NA
ATOM     28  H   LIG    1        4.562   5.192  -1.853  0.00  0.00    +0.118 HD
ATOM     29  H   LIG    1        4.703   3.605  -2.569  0.00  0.00    +0.118 HD
ENDBRANCH  26  27
ENDBRANCH  20  26
ENDBRANCH  16  22
ENDBRANCH   1  16
BRANCH   5  30
ATOM     30  O   LIG    1       -1.879  -0.349  -0.499  0.00  0.00    -0.341 OA
BRANCH  30  31
ATOM     31  C   LIG    1       -2.455   0.449   0.469  0.00  0.00    +0.281 C 
ATOM     32  C   LIG    1       -3.785   0.011   0.936  0.00  0.00    +0.190 C 
ATOM     33  C   LIG    1       -4.639   1.243   1.222  0.00  0.00    +0.121 C 
ATOM     34  C   LIG    1       -4.749   2.093  -0.001  0.00  0.00    +0.104 C 
ATOM     35  C   LIG    1       -3.451   2.137  -0.759  0.00  0.00    +0.199 C 
ATOM     36  C   LIG    1       -5.809   1.535  -0.963  0.00  0.00    +0.045 C 
ATOM     37  O   LIG    1       -2.368   1.746  -0.007  0.00  0.00    -0.346 OA
BRANCH  33  38
ATOM     38  N   LIG    1       -3.997   1.976   2.279  0.00  0.00    -0.311 NA
ATOM     39  C   LIG    1       -4.702   3.127   2.736  0.00  0.00    +0.101 C 
ATOM     40  H   LIG    1       -3.005   2.163   2.162  0.00  0.00    +0.122 HD
ENDBRANCH  33  38
BRANCH  34  41
ATOM     41  O   LIG    1       -5.150   3.401   0.253  0.00  0.00    -0.385 OA
ATOM     42  H   LIG    1       -5.258   3.837  -0.620  0.00  0.00    +0.210 HD
ENDBRANCH  34  41
BRANCH  32  43
ATOM     43  O   LIG    1       -4.449  -0.833   0.053  0.00  0.00    -0.385 OA
ATOM     44  H   LIG    1       -3.844  -1.288  -0.573  0.00  0.00    +0.210 HD
ENDBRANCH  32  43
ENDBRANCH  30  31
ENDBRANCH   5  30
TORSDOF 14
