REMARK  Name = molecules/NZHGWWWHIYHZNX-CSKARUKUSA-N.pdb
REMARK                            x       y       z     vdW  Elec       q    Type
REMARK                         _______ _______ _______ _____ _____    ______ ____
ROOT
ATOM      1  N   LIG    1        2.829   0.903  -0.956  0.00  0.00    -0.281 N 
ATOM      2  C   LIG    1        1.613   1.457  -1.072  0.00  0.00    +0.241 C 
ATOM      3  O   LIG    1        1.290   2.505  -1.689  0.00  0.00    -0.270 OA
ATOM      4  H   LIG    1        3.356   2.082  -1.466  0.00  0.00    +0.155 HD
ENDROOT
BRANCH   1   5
ATOM      5  C   LIG    1        4.044   0.349  -0.840  0.00  0.00    +0.048 A 
ATOM      6  C   LIG    1        4.390  -0.409   0.283  0.00  0.00    +0.080 A 
ATOM      7  C   LIG    1        5.533  -1.168   0.247  0.00  0.00    +0.017 A 
ATOM      8  C   LIG    1        6.339  -1.188  -0.866  0.00  0.00    +0.001 A 
ATOM      9  C   LIG    1        6.045  -0.462  -1.977  0.00  0.00    +0.002 A 
ATOM     10  C   LIG    1        4.893   0.312  -1.970  0.00  0.00    +0.024 A 
BRANCH   6  11
ATOM     11  C   LIG    1        3.657  -0.298   1.560  0.00  0.00    +0.339 C 
ATOM     12  O   LIG    1        3.989  -1.063   2.519  0.00  0.00    -0.245 OA
BRANCH  11  13
ATOM     13  O   LIG    1        2.656   0.608   1.708  0.00  0.00    -0.477 OA
ATOM     14  H   LIG    1        2.726   1.401   2.359  0.00  0.00    +0.295 HD
ENDBRANCH  11  13
ENDBRANCH   6  11
ENDBRANCH   1   5
BRANCH   2  15
ATOM     15  C   LIG    1        0.455   0.790  -0.416  0.00  0.00    +0.068 C 
ATOM     16  C   LIG    1       -0.758   1.224  -0.558  0.00  0.00    +0.013 C 
BRANCH  16  17
ATOM     17  C   LIG    1       -1.820   0.520   0.122  0.00  0.00    -0.021 A 
ATOM     18  C   LIG    1       -1.581  -0.429   1.069  0.00  0.00    +0.012 A 
ATOM     19  C   LIG    1       -2.662  -1.081   1.735  0.00  0.00    +0.050 A 
ATOM     20  C   LIG    1       -3.936  -0.722   1.396  0.00  0.00    +0.162 A 
ATOM     21  C   LIG    1       -4.193   0.254   0.423  0.00  0.00    +0.162 A 
ATOM     22  C   LIG    1       -3.131   0.847  -0.186  0.00  0.00    +0.057 A 
BRANCH  20  23
ATOM     23  O   LIG    1       -5.010  -1.324   2.011  0.00  0.00    -0.491 OA
ATOM     24  C   LIG    1       -4.726  -2.338   2.988  0.00  0.00    +0.277 C 
ENDBRANCH  20  23
BRANCH  21  25
ATOM     25  O   LIG    1       -5.531   0.522   0.165  0.00  0.00    -0.491 OA
ATOM     26  C   LIG    1       -5.933   1.465  -0.818  0.00  0.00    +0.277 C 
ENDBRANCH  21  25
ENDBRANCH  16  17
ENDBRANCH   2  15
TORSDOF 7
