REMARK  Name = molecules/NZLBHDRPUJLHCE-UHFFFAOYSA-N.pdb
REMARK                            x       y       z     vdW  Elec       q    Type
REMARK                         _______ _______ _______ _____ _____    ______ ____
ROOT
ATOM      1  N   LIG    1       -0.925  -0.948  -0.106  0.00  0.00    -0.326 N 
ENDROOT
BRANCH   1   2
ATOM      2  C   LIG    1       -1.690   0.119   0.432  0.00  0.00    +0.082 C 
ATOM      3  C   LIG    1       -2.987  -0.228   1.031  0.00  0.00    +0.058 C 
ATOM      4  C   LIG    1       -3.814   1.017   0.822  0.00  0.00    -0.042 A 
ATOM      5  C   LIG    1       -5.004   1.419   1.390  0.00  0.00    +0.004 A 
ATOM      6  C   LIG    1       -5.633   2.608   1.079  0.00  0.00    +0.000 A 
ATOM      7  C   LIG    1       -4.984   3.403   0.128  0.00  0.00    +0.000 A 
ATOM      8  C   LIG    1       -3.806   3.020  -0.444  0.00  0.00    +0.004 A 
ATOM      9  C   LIG    1       -3.212   1.824  -0.101  0.00  0.00    -0.042 A 
ATOM     10  C   LIG    1       -1.942   1.196  -0.567  0.00  0.00    +0.058 C 
ENDBRANCH   1   2
BRANCH   1  11
ATOM     11  C   LIG    1       -1.271  -2.326  -0.190  0.00  0.00    +0.030 A 
ATOM     12  C   LIG    1       -0.440  -3.209   0.478  0.00  0.00    +0.023 A 
ATOM     13  C   LIG    1       -0.687  -4.566   0.401  0.00  0.00    +0.002 A 
ATOM     14  C   LIG    1       -1.773  -5.011  -0.354  0.00  0.00    +0.000 A 
ATOM     15  C   LIG    1       -2.587  -4.116  -1.012  0.00  0.00    +0.002 A 
ATOM     16  C   LIG    1       -2.336  -2.761  -0.931  0.00  0.00    +0.023 A 
ENDBRANCH   1  11
BRANCH   1  17
ATOM     17  C   LIG    1        0.378  -0.627  -0.705  0.00  0.00    +0.106 C 
BRANCH  17  18
ATOM     18  C   LIG    1        1.337  -0.079   0.333  0.00  0.00    +0.034 C 
BRANCH  18  19
ATOM     19  C   LIG    1        2.653   0.099  -0.338  0.00  0.00    +0.086 C 
BRANCH  19  20
ATOM     20  N   LIG    1        3.693   0.701   0.448  0.00  0.00    -0.303 NA
BRANCH  20  21
ATOM     21  C   LIG    1        3.405   2.135   0.482  0.00  0.00    +0.081 C 
ATOM     22  C   LIG    1        4.505   2.902   1.163  0.00  0.00    +0.020 C 
ENDBRANCH  20  21
BRANCH  20  23
ATOM     23  C   LIG    1        5.003   0.511  -0.200  0.00  0.00    +0.081 C 
ATOM     24  C   LIG    1        5.393  -0.961  -0.103  0.00  0.00    +0.020 C 
ENDBRANCH  20  23
ENDBRANCH  19  20
ENDBRANCH  18  19
ENDBRANCH  17  18
ENDBRANCH   1  17
TORSDOF 8
