REMARK  Name = molecules/NZLVRVYNQYGMAB-UHFFFAOYSA-N.pdb
REMARK                            x       y       z     vdW  Elec       q    Type
REMARK                         _______ _______ _______ _____ _____    ______ ____
ROOT
ATOM      1  C   LIG    1       -0.777  -0.134  -0.077  0.00  0.00    +0.043 C 
ATOM      2  C   LIG    1       -1.412   1.192   0.184  0.00  0.00    -0.021 A 
ATOM      3  C   LIG    1       -2.696   1.381   0.583  0.00  0.00    +0.017 A 
ATOM      4  S   LIG    1       -3.654  -0.011   1.211  0.00  0.00    -0.089 S 
ATOM      5  C   LIG    1       -2.897  -1.434   0.419  0.00  0.00    +0.017 A 
ATOM      6  C   LIG    1       -3.657  -2.559   0.299  0.00  0.00    +0.015 A 
ATOM      7  C   LIG    1       -3.122  -3.712  -0.210  0.00  0.00    +0.001 A 
ATOM      8  C   LIG    1       -1.822  -3.741  -0.603  0.00  0.00    +0.000 A 
ATOM      9  C   LIG    1       -1.049  -2.591  -0.483  0.00  0.00    +0.005 A 
ATOM     10  C   LIG    1       -3.372   2.549   0.557  0.00  0.00    +0.015 A 
ATOM     11  C   LIG    1       -2.768   3.696   0.097  0.00  0.00    +0.001 A 
ATOM     12  C   LIG    1       -1.468   3.560  -0.323  0.00  0.00    +0.000 A 
ATOM     13  C   LIG    1       -0.797   2.363  -0.293  0.00  0.00    +0.005 A 
ATOM     14  C   LIG    1       -1.574  -1.406   0.035  0.00  0.00    -0.021 A 
ENDROOT
BRANCH   1  19
ATOM     15  C   LIG    1        4.627   0.602   0.141  0.00  0.00    +0.104 C 
ATOM     16  N   LIG    1        3.450   0.090  -0.529  0.00  0.00    -0.305 NA
ATOM     17  C   LIG    1        2.924  -0.963   0.258  0.00  0.00    +0.084 C 
ATOM     18  C   LIG    1        1.472  -1.364  -0.133  0.00  0.00    +0.024 C 
ATOM     19  C   LIG    1        0.531  -0.217  -0.129  0.00  0.00    -0.005 C 
ATOM     20  C   LIG    1        1.403   0.921   0.254  0.00  0.00    +0.024 C 
ATOM     21  C   LIG    1        2.507   1.183  -0.717  0.00  0.00    +0.084 C 
ENDBRANCH   1  19
TORSDOF 1
