REMARK  Name = molecules/NZUPCNDJBJXXRF-LURJTMIESA-O.pdb
REMARK                            x       y       z     vdW  Elec       q    Type
REMARK                         _______ _______ _______ _____ _____    ______ ____
ROOT
ATOM      1  C   LIG    1        1.972  -1.922  -0.338  0.00  0.00    +0.050 C 
ATOM      2  C   LIG    1        1.062  -0.692  -0.383  0.00  0.00    +0.159 C 
ENDROOT
BRANCH   2   3
ATOM      3  O   LIG    1        1.540   0.200   0.586  0.00  0.00    -0.449 OA
BRANCH   3   4
ATOM      4  C   LIG    1        2.087   1.426   0.187  0.00  0.00    +0.398 C 
ATOM      5  N   LIG    1        2.565   2.316   1.167  0.00  0.00    -0.295 N 
ATOM      6  H   LIG    1        3.340   2.020   1.779  0.00  0.00    +0.148 HD
ATOM      7  H   LIG    1        2.127   3.253   1.253  0.00  0.00    +0.148 HD
ATOM      8  O   LIG    1        2.146   1.716  -1.022  0.00  0.00    -0.227 OA
ENDBRANCH   3   4
ENDBRANCH   2   3
BRANCH   2   9
ATOM      9  C   LIG    1       -0.329  -1.161  -0.131  0.00  0.00    -0.031 C 
BRANCH   9  10
ATOM     10  N   LIG    1       -1.318  -0.136  -0.088  0.00  0.00    +0.377 N 
ATOM     11  C   LIG    1       -1.327   0.595   1.183  0.00  0.00    -0.093 C 
ATOM     12  C   LIG    1       -2.631  -0.798  -0.159  0.00  0.00    -0.093 C 
ATOM     13  C   LIG    1       -1.260   0.800  -1.166  0.00  0.00    -0.093 C 
ENDBRANCH   9  10
ENDBRANCH   2   9
TORSDOF 4
