REMARK  Name = molecules/NZVYCXVTEHPMHE-ZSUJOUNUSA-N.pdb
REMARK                            x       y       z     vdW  Elec       q    Type
REMARK                         _______ _______ _______ _____ _____    ______ ____
ROOT
ATOM      1  C   LIG    1        2.397   7.044   0.000  0.00  0.00    +0.000 C 
ENDROOT
TORSDOF 0
REMARK  Name = molecules/NZVYCXVTEHPMHE-ZSUJOUNUSA-N.pdb
REMARK                            x       y       z     vdW  Elec       q    Type
REMARK                         _______ _______ _______ _____ _____    ______ ____
ROOT
ATOM      1  N   LIG    1        2.397   8.544   0.000  0.00  0.00    +0.042 NA
ATOM      2  O   LIG    1        1.893   8.022   0.000  0.00  0.00    -0.246 OA
ATOM      3  C   LIG    1        2.049   7.245   0.000  0.00  0.00    +0.204 C 
ENDROOT
TORSDOF 0
REMARK  Name = molecules/NZVYCXVTEHPMHE-ZSUJOUNUSA-N.pdb
REMARK                            x       y       z     vdW  Elec       q    Type
REMARK                         _______ _______ _______ _____ _____    ______ ____
ROOT
ATOM      1  C   LIG    1        2.946  13.191   0.000  0.00  0.00    +0.093 C 
ATOM      2  C   LIG    1        1.647  12.843   0.000  0.00  0.00    +0.013 C 
ENDROOT
BRANCH   1   3
ATOM      3  N   LIG    1        3.696  11.892   0.000  0.00  0.00    -0.223 NA
ATOM      4  C   LIG    1        2.397  11.544   0.000  0.00  0.00    +0.107 C 
ENDBRANCH   1   3
BRANCH   1   5
ATOM      5  C   LIG    1        4.245  13.941   0.000  0.00  0.00    +0.146 C 
BRANCH   5   6
ATOM      6  C   LIG    1        5.544  14.691   0.000  0.00  0.00    +0.358 C 
ATOM      7  O   LIG    1        6.843  13.941   0.000  0.00  0.00    -0.246 OA
ATOM      8  O   LIG    1        5.544  16.191   0.000  0.00  0.00    -0.246 OA
ENDBRANCH   5   6
ENDBRANCH   1   5
TORSDOF 3
REMARK  Name = molecules/NZVYCXVTEHPMHE-ZSUJOUNUSA-N.pdb
REMARK                            x       y       z     vdW  Elec       q    Type
REMARK                         _______ _______ _______ _____ _____    ______ ____
ROOT
ATOM      1  N   LIG    1        0.348  13.191   0.000  0.00  0.00    -0.309 NA
ATOM      2  C   LIG    1        0.897  14.142   0.000  0.00  0.00    +0.091 C 
ATOM      3  C   LIG    1        0.348  12.093   0.000  0.00  0.00    +0.096 C 
ATOM      4  H   LIG    1       -0.238  13.474   0.000  0.00  0.00    +0.122 HD
ENDROOT
TORSDOF 0
REMARK  Name = molecules/NZVYCXVTEHPMHE-ZSUJOUNUSA-N.pdb
REMARK                            x       y       z     vdW  Elec       q    Type
REMARK                         _______ _______ _______ _____ _____    ______ ____
ROOT
ATOM      1  N   LIG    1       -0.951   9.843   0.000  0.00  0.00    -0.163 NA
ATOM      2  H   LIG    1       -1.452  11.041   0.000  0.00  0.00    +0.163 HD
ENDROOT
TORSDOF 0
REMARK  Name = molecules/NZVYCXVTEHPMHE-ZSUJOUNUSA-N.pdb
REMARK                            x       y       z     vdW  Elec       q    Type
REMARK                         _______ _______ _______ _____ _____    ______ ____
ROOT
ATOM      1  N   LIG    1        1.098  10.794   0.000  0.00  0.00    -0.163 NA
ATOM      2  H   LIG    1        0.400  10.594   0.000  0.00  0.00    +0.163 HD
ENDROOT
TORSDOF 0
REMARK  Name = molecules/NZVYCXVTEHPMHE-ZSUJOUNUSA-N.pdb
REMARK                            x       y       z     vdW  Elec       q    Type
REMARK                         _______ _______ _______ _____ _____    ______ ____
ROOT
ATOM      1  N   LIG    1        4.647  10.245   0.000  0.00  0.00    -0.241 NA
ATOM      2  C   LIG    1        3.696   9.294   0.000  0.00  0.00    +0.177 C 
ATOM      3  C   LIG    1        3.147  10.245   0.000  0.00  0.00    +0.087 C 
ATOM      4  C   LIG    1        4.098   8.196   0.000  0.00  0.00    +0.087 C 
ATOM      5  O   LIG    1        2.635   8.626   0.000  0.00  0.00    -0.282 OA
ATOM      6  H   LIG    1        5.138   9.708   0.000  0.00  0.00    +0.172 HD
ENDROOT
TORSDOF 0
REMARK  Name = molecules/NZVYCXVTEHPMHE-ZSUJOUNUSA-N.pdb
REMARK                            x       y       z     vdW  Elec       q    Type
REMARK                         _______ _______ _______ _____ _____    ______ ____
ROOT
ATOM      1  N   LIG    1        4.098   6.696   0.000  0.00  0.00    -0.163 NA
ATOM      2  H   LIG    1        4.968   7.089   0.000  0.00  0.00    +0.163 HD
ENDROOT
TORSDOF 0
REMARK  Name = molecules/NZVYCXVTEHPMHE-ZSUJOUNUSA-N.pdb
REMARK                            x       y       z     vdW  Elec       q    Type
REMARK                         _______ _______ _______ _____ _____    ______ ____
ROOT
ATOM      1  N   LIG    1        0.549   7.245   0.000  0.00  0.00    -0.163 NA
ATOM      2  H   LIG    1        0.397   6.587   0.000  0.00  0.00    +0.163 HD
ENDROOT
TORSDOF 0
REMARK  Name = molecules/NZVYCXVTEHPMHE-ZSUJOUNUSA-N.pdb
REMARK                            x       y       z     vdW  Elec       q    Type
REMARK                         _______ _______ _______ _____ _____    ______ ____
ROOT
ATOM      1  N   LIG    1       -2.799   8.544   0.000  0.00  0.00    -0.163 NA
ATOM      2  H   LIG    1       -2.243   9.710   0.000  0.00  0.00    +0.163 HD
ENDROOT
TORSDOF 0
REMARK  Name = molecules/NZVYCXVTEHPMHE-ZSUJOUNUSA-N.pdb
REMARK                            x       y       z     vdW  Elec       q    Type
REMARK                         _______ _______ _______ _____ _____    ______ ____
ROOT
ATOM      1  N   LIG    1       -4.098   5.196   0.000  0.00  0.00    -0.157 NA
ATOM      2  C   LIG    1       -3.549   4.647   0.000  0.00  0.00    +0.059 C 
ATOM      3  C   LIG    1       -3.348   3.897   0.000  0.00  0.00    +0.049 C 
ATOM      4  C   LIG    1       -2.799   4.446   0.000  0.00  0.00    +0.049 C 
ENDROOT
TORSDOF 0
REMARK  Name = molecules/NZVYCXVTEHPMHE-ZSUJOUNUSA-N.pdb
REMARK                            x       y       z     vdW  Elec       q    Type
REMARK                         _______ _______ _______ _____ _____    ______ ____
ROOT
ATOM      1  N   LIG    1       -0.750   3.897   0.000  0.00  0.00    -0.344 NA
ATOM      2  H   LIG    1       -0.048   2.845   0.000  0.00  0.00    +0.115 HD
ATOM      3  H   LIG    1       -1.518   2.833   0.000  0.00  0.00    +0.115 HD
ATOM      4  H   LIG    1       -1.440   3.812   0.000  0.00  0.00    +0.115 HD
ENDROOT
TORSDOF 0
REMARK  Name = molecules/NZVYCXVTEHPMHE-ZSUJOUNUSA-N.pdb
REMARK                            x       y       z     vdW  Elec       q    Type
REMARK                         _______ _______ _______ _____ _____    ______ ____
ROOT
ATOM      1  N   LIG    1        0.549   2.049   0.000  0.00  0.00    -0.163 NA
ATOM      2  H   LIG    1       -0.212   2.497   0.000  0.00  0.00    +0.163 HD
ENDROOT
TORSDOF 0
REMARK  Name = molecules/NZVYCXVTEHPMHE-ZSUJOUNUSA-N.pdb
REMARK                            x       y       z     vdW  Elec       q    Type
REMARK                         _______ _______ _______ _____ _____    ______ ____
ROOT
ATOM      1  N   LIG    1       -1.299   0.750   0.000  0.00  0.00    +0.038 NA
ATOM      2  O   LIG    1       -1.007   0.128   0.000  0.00  0.00    -0.278 OA
ATOM      3  H   LIG    1       -1.759  -0.065   0.000  0.00  0.00    +0.240 HD
ENDROOT
TORSDOF 0
REMARK  Name = molecules/NZVYCXVTEHPMHE-ZSUJOUNUSA-N.pdb
REMARK                            x       y       z     vdW  Elec       q    Type
REMARK                         _______ _______ _______ _____ _____    ______ ____
ROOT
ATOM      1  N   LIG    1       -2.598  -2.598   0.000  0.00  0.00    -0.163 NA
ATOM      2  H   LIG    1       -3.402  -3.000   0.000  0.00  0.00    +0.163 HD
ENDROOT
TORSDOF 0
REMARK  Name = molecules/NZVYCXVTEHPMHE-ZSUJOUNUSA-N.pdb
REMARK                            x       y       z     vdW  Elec       q    Type
REMARK                         _______ _______ _______ _____ _____    ______ ____
ROOT
ATOM      1  N   LIG    1        0.750  -3.897   0.000  0.00  0.00    +0.403 N 
ATOM      2  C   LIG    1        0.147  -3.549   0.000  0.00  0.00    -0.058 C 
ATOM      3  C   LIG    1       -0.549  -3.549   0.000  0.00  0.00    -0.031 C 
ATOM      4  C   LIG    1       -0.054  -4.299   0.000  0.00  0.00    -0.055 C 
ATOM      5  C   LIG    1        0.696  -3.000   0.000  0.00  0.00    -0.062 C 
ENDROOT
BRANCH   1   6
ATOM      6  N   LIG    1        1.446  -4.299   0.000  0.00  0.00    -0.282 NA
ATOM      7  C   LIG    1        2.049  -3.147   0.000  0.00  0.00    +0.085 C 
ENDBRANCH   1   6
TORSDOF 1
REMARK  Name = molecules/NZVYCXVTEHPMHE-ZSUJOUNUSA-N.pdb
REMARK                            x       y       z     vdW  Elec       q    Type
REMARK                         _______ _______ _______ _____ _____    ______ ____
ROOT
ATOM      1  N   LIG    1        2.049  -0.549   0.000  0.00  0.00    +0.000 NA
ENDROOT
TORSDOF 0
REMARK  Name = molecules/NZVYCXVTEHPMHE-ZSUJOUNUSA-N.pdb
REMARK                            x       y       z     vdW  Elec       q    Type
REMARK                         _______ _______ _______ _____ _____    ______ ____
ROOT
ATOM      1  N   LIG    1        0.000  -1.500   0.000  0.00  0.00    +0.119 NA
ATOM      2  O   LIG    1       -0.704  -1.324   0.000  0.00  0.00    -0.119 OA
ENDROOT
TORSDOF 0
REMARK  Name = molecules/NZVYCXVTEHPMHE-ZSUJOUNUSA-N.pdb
REMARK                            x       y       z     vdW  Elec       q    Type
REMARK                         _______ _______ _______ _____ _____    ______ ____
ROOT
ATOM      1  N   LIG    1       -3.549  -0.951   0.000  0.00  0.00    -0.273 NA
ATOM      2  H   LIG    1       -2.847  -0.101   0.000  0.00  0.00    +0.137 HD
ATOM      3  H   LIG    1       -4.040  -0.413   0.000  0.00  0.00    +0.137 HD
ENDROOT
TORSDOF 0
REMARK  Name = molecules/NZVYCXVTEHPMHE-ZSUJOUNUSA-N.pdb
REMARK                            x       y       z     vdW  Elec       q    Type
REMARK                         _______ _______ _______ _____ _____    ______ ____
ROOT
ATOM      1  N   LIG    1       -3.000   2.598   0.000  0.00  0.00    -0.273 NA
ATOM      2  H   LIG    1       -2.754   3.375   0.000  0.00  0.00    +0.137 HD
ATOM      3  H   LIG    1       -3.070   1.611   0.000  0.00  0.00    +0.137 HD
ENDROOT
TORSDOF 0
REMARK  Name = molecules/NZVYCXVTEHPMHE-ZSUJOUNUSA-N.pdb
REMARK                            x       y       z     vdW  Elec       q    Type
REMARK                         _______ _______ _______ _____ _____    ______ ____
ROOT
ATOM      1  N   LIG    1       -4.299   0.750   0.000  0.00  0.00    -0.075 NA
ATOM      2  O   LIG    1       -4.997   0.550   0.000  0.00  0.00    -0.104 OA
ATOM      3  H   LIG    1       -4.595   1.648   0.000  0.00  0.00    +0.179 HD
ENDROOT
TORSDOF 0
REMARK  Name = molecules/NZVYCXVTEHPMHE-ZSUJOUNUSA-N.pdb
REMARK                            x       y       z     vdW  Elec       q    Type
REMARK                         _______ _______ _______ _____ _____    ______ ____
ROOT
ATOM      1  C   LIG    1       -6.897  -1.152   0.000  0.00  0.00    +0.167 C 
ENDROOT
BRANCH   1   2
ATOM      2  N   LIG    1       -7.647  -0.549   0.000  0.00  0.00    -0.141 NA
ATOM      3  O   LIG    1       -7.245   0.147   0.000  0.00  0.00    -0.120 OA
ATOM      4  H   LIG    1       -8.370  -0.866   0.000  0.00  0.00    +0.159 HD
ENDBRANCH   1   2
BRANCH   1   5
ATOM      5  N   LIG    1       -6.000  -1.500   0.000  0.00  0.00    -0.306 NA
ATOM      6  H   LIG    1       -6.311  -2.533   0.000  0.00  0.00    +0.120 HD
ATOM      7  H   LIG    1       -5.284  -2.031   0.000  0.00  0.00    +0.120 HD
ENDBRANCH   1   5
TORSDOF 2
REMARK  Name = molecules/NZVYCXVTEHPMHE-ZSUJOUNUSA-N.pdb
REMARK                            x       y       z     vdW  Elec       q    Type
REMARK                         _______ _______ _______ _____ _____    ______ ____
ROOT
ATOM      1  N   LIG    1       -8.946   2.799   0.000  0.00  0.00    -0.273 NA
ATOM      2  H   LIG    1       -9.311   3.631   0.000  0.00  0.00    +0.137 HD
ATOM      3  H   LIG    1       -8.185   2.942   0.000  0.00  0.00    +0.137 HD
ENDROOT
TORSDOF 0
REMARK  Name = molecules/NZVYCXVTEHPMHE-ZSUJOUNUSA-N.pdb
REMARK                            x       y       z     vdW  Elec       q    Type
REMARK                         _______ _______ _______ _____ _____    ______ ____
ROOT
ATOM      1  N   LIG    1       -5.598   4.098   0.000  0.00  0.00    -0.163 NA
ATOM      2  H   LIG    1       -6.208   4.763   0.000  0.00  0.00    +0.163 HD
ENDROOT
TORSDOF 0
REMARK  Name = molecules/NZVYCXVTEHPMHE-ZSUJOUNUSA-N.pdb
REMARK                            x       y       z     vdW  Elec       q    Type
REMARK                         _______ _______ _______ _____ _____    ______ ____
ROOT
ATOM      1  N   LIG    1       -6.549   2.049   0.000  0.00  0.00    -0.054 NA
ATOM      2  O   LIG    1       -6.707   1.317   0.000  0.00  0.00    -0.148 OA
ATOM      3  C   LIG    1       -5.946   2.397   0.000  0.00  0.00    +0.202 C 
ENDROOT
TORSDOF 0
REMARK  Name = molecules/NZVYCXVTEHPMHE-ZSUJOUNUSA-N.pdb
REMARK                            x       y       z     vdW  Elec       q    Type
REMARK                         _______ _______ _______ _____ _____    ______ ____
ROOT
ATOM      1  N   LIG    1       -4.701  -4.848   0.000  0.00  0.00    +0.000 NA
ENDROOT
TORSDOF 0
REMARK  Name = molecules/NZVYCXVTEHPMHE-ZSUJOUNUSA-N.pdb
REMARK                            x       y       z     vdW  Elec       q    Type
REMARK                         _______ _______ _______ _____ _____    ______ ____
ROOT
ATOM      1  N   LIG    1       -2.853  -6.147   0.000  0.00  0.00    -0.344 NA
ATOM      2  H   LIG    1       -2.105  -5.726   0.000  0.00  0.00    +0.115 HD
ATOM      3  H   LIG    1       -3.212  -5.031   0.000  0.00  0.00    +0.115 HD
ATOM      4  H   LIG    1       -3.404  -6.476   0.000  0.00  0.00    +0.115 HD
ENDROOT
TORSDOF 0
REMARK  Name = molecules/NZVYCXVTEHPMHE-ZSUJOUNUSA-N.pdb
REMARK                            x       y       z     vdW  Elec       q    Type
REMARK                         _______ _______ _______ _____ _____    ______ ____
ROOT
ATOM      1  CA  ASN A  1       -2.304 -10.794   0.000  0.00  0.00    +0.147 C 
ENDROOT
BRANCH   1   2
ATOM      2  N   ASN A  1       -1.554  -9.495   0.000  0.00  0.00    -0.214 NA
ATOM      3  C   UNK A  0       -2.304  -8.196   0.000  0.00  0.00    +0.346 C 
ATOM      4  O   UNK A  0       -3.603  -8.544   0.000  0.00  0.00    -0.278 OA
ENDBRANCH   1   2
BRANCH   1   5
ATOM      5  C   ASN A  1       -3.603 -10.044   0.000  0.00  0.00    +0.198 C 
ATOM      6  O   ASN A  1       -4.902 -10.794   0.000  0.00  0.00    -0.219 OA
ENDBRANCH   1   5
BRANCH   1   7
ATOM      7  CB  ASN A  1       -1.005 -11.544   0.000  0.00  0.00    +0.126 C 
BRANCH   7   8
ATOM      8  CG  ASN A  1        0.294 -12.294   0.000  0.00  0.00    +0.254 C 
ATOM      9  ND2 ASN A  1        0.294 -13.794   0.000  0.00  0.00    -0.088 NA
ATOM     10  OD1 ASN A  1        1.593 -11.544   0.000  0.00  0.00    -0.272 OA
ENDBRANCH   7   8
ENDBRANCH   1   7
TORSDOF 4
REMARK  Name = molecules/NZVYCXVTEHPMHE-ZSUJOUNUSA-N.pdb
REMARK                            x       y       z     vdW  Elec       q    Type
REMARK                         _______ _______ _______ _____ _____    ______ ____
ROOT
ATOM      1  C   LIG    1        3.696   6.294   0.000  0.00  0.00    +0.009 C 
ATOM      2  C   LIG    1        2.799   5.946   0.000  0.00  0.00    -0.009 C 
ENDROOT
TORSDOF 0
REMARK  Name = molecules/NZVYCXVTEHPMHE-ZSUJOUNUSA-N.pdb
REMARK                            x       y       z     vdW  Elec       q    Type
REMARK                         _______ _______ _______ _____ _____    ______ ____
ROOT
ATOM      1  O   HOH    1        1.199   6.141   0.000  0.00  0.00    -0.253 OA
ATOM      2  H   HOH    0        1.747   5.550   0.000  0.00  0.00    +0.253 HD
ENDROOT
TORSDOF 0
REMARK  Name = molecules/NZVYCXVTEHPMHE-ZSUJOUNUSA-N.pdb
REMARK                            x       y       z     vdW  Elec       q    Type
REMARK                         _______ _______ _______ _____ _____    ______ ____
ROOT
ATOM      1  C   LIG    1        2.946  10.593   0.000  0.00  0.00    +0.325 C 
ATOM      2  O   LIG    1        2.185  11.041   0.000  0.00  0.00    -0.184 OA
ENDROOT
BRANCH   1   3
ATOM      3  O   LIG    1        2.397  10.044   0.000  0.00  0.00    -0.354 OA
ATOM      4  H   LIG    1        1.763   9.904   0.000  0.00  0.00    +0.213 HD
ENDBRANCH   1   3
TORSDOF 1
REMARK  Name = molecules/NZVYCXVTEHPMHE-ZSUJOUNUSA-N.pdb
REMARK                            x       y       z     vdW  Elec       q    Type
REMARK                         _______ _______ _______ _____ _____    ______ ____
ROOT
ATOM      1  C   LIG    1        6.696   9.696   0.000  0.00  0.00    +0.129 C 
ENDROOT
BRANCH   1   2
ATOM      2  C   LIG    1        7.995  10.446   0.000  0.00  0.00    +0.356 C 
ATOM      3  O   LIG    1        9.294   9.696   0.000  0.00  0.00    -0.246 OA
ATOM      4  O   LIG    1        7.995  11.946   0.000  0.00  0.00    -0.246 OA
ENDBRANCH   1   2
BRANCH   1   6
ATOM      5  C   LIG    1        4.446   7.995   0.000  0.00  0.00    -0.005 C 
ATOM      6  C   LIG    1        5.397   8.946   0.000  0.00  0.00    +0.012 C 
ENDBRANCH   1   6
TORSDOF 2
REMARK  Name = molecules/NZVYCXVTEHPMHE-ZSUJOUNUSA-N.pdb
REMARK                            x       y       z     vdW  Elec       q    Type
REMARK                         _______ _______ _______ _____ _____    ______ ____
ROOT
ATOM      1  O   HOH    1        5.196   6.696   0.000  0.00  0.00    -0.253 OA
ATOM      2  H   HOH    0        5.397   5.946   0.000  0.00  0.00    +0.253 HD
ENDROOT
TORSDOF 0
REMARK  Name = molecules/NZVYCXVTEHPMHE-ZSUJOUNUSA-N.pdb
REMARK                            x       y       z     vdW  Elec       q    Type
REMARK                         _______ _______ _______ _____ _____    ______ ____
ROOT
ATOM      1  O   LIG    1        1.446  10.593   0.000  0.00  0.00    -0.038 OA
ATOM      2  O   LIG    1        1.288  11.325   0.000  0.00  0.00    -0.218 OA
ATOM      3  H   LIG    1        2.034  11.500   0.000  0.00  0.00    +0.256 HD
ENDROOT
TORSDOF 0
REMARK  Name = molecules/NZVYCXVTEHPMHE-ZSUJOUNUSA-N.pdb
REMARK                            x       y       z     vdW  Elec       q    Type
REMARK                         _______ _______ _______ _____ _____    ______ ____
ROOT
ATOM      1  C   LIG    1        1.647  12.441   0.000  0.00  0.00    +0.000 C 
ENDROOT
TORSDOF 0
REMARK  Name = molecules/NZVYCXVTEHPMHE-ZSUJOUNUSA-N.pdb
REMARK                            x       y       z     vdW  Elec       q    Type
REMARK                         _______ _______ _______ _____ _____    ______ ____
ROOT
ATOM      1  C   LIG    1       -0.201  11.142   0.000  0.00  0.00    +0.000 C 
ENDROOT
TORSDOF 0
REMARK  Name = molecules/NZVYCXVTEHPMHE-ZSUJOUNUSA-N.pdb
REMARK                            x       y       z     vdW  Elec       q    Type
REMARK                         _______ _______ _______ _____ _____    ______ ____
ROOT
ATOM      1  C   LIG    1       -1.701  13.740   0.000  0.00  0.00    +0.000 C 
ENDROOT
TORSDOF 0
REMARK  Name = molecules/NZVYCXVTEHPMHE-ZSUJOUNUSA-N.pdb
REMARK                            x       y       z     vdW  Elec       q    Type
REMARK                         _______ _______ _______ _____ _____    ______ ____
ROOT
ATOM      1  C   LIG    1       -0.951  12.441   0.000  0.00  0.00    +0.000 C 
ENDROOT
TORSDOF 0
REMARK  Name = molecules/NZVYCXVTEHPMHE-ZSUJOUNUSA-N.pdb
REMARK                            x       y       z     vdW  Elec       q    Type
REMARK                         _______ _______ _______ _____ _____    ______ ____
ROOT
ATOM      1  C   LIG    1        1.098   9.294   0.000  0.00  0.00    +0.000 C 
ENDROOT
TORSDOF 0
REMARK  Name = molecules/NZVYCXVTEHPMHE-ZSUJOUNUSA-N.pdb
REMARK                            x       y       z     vdW  Elec       q    Type
REMARK                         _______ _______ _______ _____ _____    ______ ____
ROOT
ATOM      1  C   LIG    1       -1.500   7.794   0.000  0.00  0.00    -0.064 C 
ATOM      2  C   LIG    1       -2.049   7.245   0.000  0.00  0.00    +0.030 C 
ATOM      3  C   LIG    1       -1.299   8.544   0.000  0.00  0.00    +0.025 C 
ATOM      4  C   LIG    1       -0.951   7.245   0.000  0.00  0.00    +0.008 C 
ENDROOT
TORSDOF 0
REMARK  Name = molecules/NZVYCXVTEHPMHE-ZSUJOUNUSA-N.pdb
REMARK                            x       y       z     vdW  Elec       q    Type
REMARK                         _______ _______ _______ _____ _____    ______ ____
ROOT
ATOM      1  C   LIG    1       -0.201   8.544   0.000  0.00  0.00    +0.000 C 
ENDROOT
TORSDOF 0
REMARK  Name = molecules/NZVYCXVTEHPMHE-ZSUJOUNUSA-N.pdb
REMARK                            x       y       z     vdW  Elec       q    Type
REMARK                         _______ _______ _______ _____ _____    ______ ____
ROOT
ATOM      1  O   LIG    1        2.244   9.047   0.000  0.00  0.00    -0.038 OA
ATOM      2  O   LIG    1        2.616   8.431   0.000  0.00  0.00    -0.218 OA
ATOM      3  H   LIG    1        2.001   8.096   0.000  0.00  0.00    +0.256 HD
ENDROOT
TORSDOF 0
REMARK  Name = molecules/NZVYCXVTEHPMHE-ZSUJOUNUSA-N.pdb
REMARK                            x       y       z     vdW  Elec       q    Type
REMARK                         _______ _______ _______ _____ _____    ______ ____
ROOT
ATOM      1  O   HOH    1        2.250   3.897   0.000  0.00  0.00    +0.000 OA
ENDROOT
TORSDOF 0
REMARK  Name = molecules/NZVYCXVTEHPMHE-ZSUJOUNUSA-N.pdb
REMARK                            x       y       z     vdW  Elec       q    Type
REMARK                         _______ _______ _______ _____ _____    ______ ____
ROOT
ATOM      1  C   LIG    1        4.299   3.348   0.000  0.00  0.00    +0.000 C 
ENDROOT
TORSDOF 0
REMARK  Name = molecules/NZVYCXVTEHPMHE-ZSUJOUNUSA-N.pdb
REMARK                            x       y       z     vdW  Elec       q    Type
REMARK                         _______ _______ _______ _____ _____    ______ ____
ROOT
ATOM      1  C   LIG    1        3.549   4.647   0.000  0.00  0.00    +0.000 C 
ENDROOT
TORSDOF 0
REMARK  Name = molecules/NZVYCXVTEHPMHE-ZSUJOUNUSA-N.pdb
REMARK                            x       y       z     vdW  Elec       q    Type
REMARK                         _______ _______ _______ _____ _____    ______ ____
ROOT
ATOM      1  C   LIG    1       -1.500   7.794   0.000  0.00  0.00    +0.000 C 
ENDROOT
TORSDOF 0
REMARK  Name = molecules/NZVYCXVTEHPMHE-ZSUJOUNUSA-N.pdb
REMARK                            x       y       z     vdW  Elec       q    Type
REMARK                         _______ _______ _______ _____ _____    ______ ____
ROOT
ATOM      1  C   LIG    1        1.098   9.294   0.000  0.00  0.00    +0.000 C 
ENDROOT
TORSDOF 0
REMARK  Name = molecules/NZVYCXVTEHPMHE-ZSUJOUNUSA-N.pdb
REMARK                            x       y       z     vdW  Elec       q    Type
REMARK                         _______ _______ _______ _____ _____    ______ ____
ROOT
ATOM      1  C   LIG    1       -0.201   8.544   0.000  0.00  0.00    +0.000 C 
ENDROOT
TORSDOF 0
REMARK  Name = molecules/NZVYCXVTEHPMHE-ZSUJOUNUSA-N.pdb
REMARK                            x       y       z     vdW  Elec       q    Type
REMARK                         _______ _______ _______ _____ _____    ______ ____
ROOT
ATOM      1  O   HOH    1       -1.500   6.294   0.000  0.00  0.00    +0.000 OA
ENDROOT
TORSDOF 0
REMARK  Name = molecules/NZVYCXVTEHPMHE-ZSUJOUNUSA-N.pdb
REMARK                            x       y       z     vdW  Elec       q    Type
REMARK                         _______ _______ _______ _____ _____    ______ ____
ROOT
ATOM      1  C   LIG    1       -3.348   6.495   0.000  0.00  0.00    +0.000 C 
ENDROOT
TORSDOF 0
REMARK  Name = molecules/NZVYCXVTEHPMHE-ZSUJOUNUSA-N.pdb
REMARK                            x       y       z     vdW  Elec       q    Type
REMARK                         _______ _______ _______ _____ _____    ______ ____
ROOT
ATOM      1  C   LIG    1       -4.848   9.093   0.000  0.00  0.00    +0.232 C 
ATOM      2  O   LIG    1       -5.598  10.392   0.000  0.00  0.00    -0.232 OA
ENDROOT
TORSDOF 0
REMARK  Name = molecules/NZVYCXVTEHPMHE-ZSUJOUNUSA-N.pdb
REMARK                            x       y       z     vdW  Elec       q    Type
REMARK                         _______ _______ _______ _____ _____    ______ ____
ROOT
ATOM      1  C   LIG    1       -4.098   7.794   0.000  0.00  0.00    +0.000 C 
ENDROOT
TORSDOF 0
REMARK  Name = molecules/NZVYCXVTEHPMHE-ZSUJOUNUSA-N.pdb
REMARK                            x       y       z     vdW  Elec       q    Type
REMARK                         _______ _______ _______ _____ _____    ______ ____
ROOT
ATOM      1  O   HOH    1       -1.948   7.033   0.000  0.00  0.00    -0.253 OA
ATOM      2  H   HOH    0       -1.631   6.300   0.000  0.00  0.00    +0.253 HD
ENDROOT
TORSDOF 0
REMARK  Name = molecules/NZVYCXVTEHPMHE-ZSUJOUNUSA-N.pdb
REMARK                            x       y       z     vdW  Elec       q    Type
REMARK                         _______ _______ _______ _____ _____    ______ ____
ROOT
ATOM      1  C   LIG    1       -2.049   4.647   0.000  0.00  0.00    -0.018 C 
ATOM      2  C   LIG    1       -1.500   5.196   0.000  0.00  0.00    +0.018 C 
ENDROOT
TORSDOF 0
REMARK  Name = molecules/NZVYCXVTEHPMHE-ZSUJOUNUSA-N.pdb
REMARK                            x       y       z     vdW  Elec       q    Type
REMARK                         _______ _______ _______ _____ _____    ______ ____
ROOT
ATOM      1  C   LIG    1       -4.647   3.147   0.000  0.00  0.00    +0.018 C 
ATOM      2  C   LIG    1       -4.098   2.598   0.000  0.00  0.00    -0.018 C 
ENDROOT
TORSDOF 0
REMARK  Name = molecules/NZVYCXVTEHPMHE-ZSUJOUNUSA-N.pdb
REMARK                            x       y       z     vdW  Elec       q    Type
REMARK                         _______ _______ _______ _____ _____    ______ ____
ROOT
ATOM      1  C   LIG    1       -7.245   1.647   0.000  0.00  0.00    +0.279 C 
ATOM      2  O   LIG    1       -6.538   1.866   0.000  0.00  0.00    -0.279 OA
ENDROOT
TORSDOF 0
REMARK  Name = molecules/NZVYCXVTEHPMHE-ZSUJOUNUSA-N.pdb
REMARK                            x       y       z     vdW  Elec       q    Type
REMARK                         _______ _______ _______ _____ _____    ______ ____
ROOT
ATOM      1  O   HOH    1       -8.324   2.689   0.000  0.00  0.00    +0.000 OA
ENDROOT
TORSDOF 0
REMARK  Name = molecules/NZVYCXVTEHPMHE-ZSUJOUNUSA-N.pdb
REMARK                            x       y       z     vdW  Elec       q    Type
REMARK                         _______ _______ _______ _____ _____    ______ ____
ROOT
ATOM      1  O   HOH    1       -1.686   6.103   0.000  0.00  0.00    -0.410 OA
ATOM      2  H   HOH    0       -1.418   5.360   0.000  0.00  0.00    +0.205 HD
ATOM      3  H   HOH    0       -1.527   6.741   0.000  0.00  0.00    +0.205 HD
ENDROOT
TORSDOF 0
REMARK  Name = molecules/NZVYCXVTEHPMHE-ZSUJOUNUSA-N.pdb
REMARK                            x       y       z     vdW  Elec       q    Type
REMARK                         _______ _______ _______ _____ _____    ______ ____
ROOT
ATOM      1  C   LIG    1        1.299   3.348   0.000  0.00  0.00    +0.000 C 
ENDROOT
TORSDOF 0
REMARK  Name = molecules/NZVYCXVTEHPMHE-ZSUJOUNUSA-N.pdb
REMARK                            x       y       z     vdW  Elec       q    Type
REMARK                         _______ _______ _______ _____ _____    ______ ____
ROOT
ATOM      1  C   LIG    1       -0.201   5.946   0.000  0.00  0.00    +0.000 C 
ENDROOT
TORSDOF 0
REMARK  Name = molecules/NZVYCXVTEHPMHE-ZSUJOUNUSA-N.pdb
REMARK                            x       y       z     vdW  Elec       q    Type
REMARK                         _______ _______ _______ _____ _____    ______ ____
ROOT
ATOM      1  C   LIG    1        0.549   4.647   0.000  0.00  0.00    -0.000 C 
ENDROOT
TORSDOF 0
REMARK  Name = molecules/NZVYCXVTEHPMHE-ZSUJOUNUSA-N.pdb
REMARK                            x       y       z     vdW  Elec       q    Type
REMARK                         _______ _______ _______ _____ _____    ______ ____
ROOT
ATOM      1  O   HOH    1        2.788   3.165   0.000  0.00  0.00    -0.410 OA
ATOM      2  H   HOH    0        3.484   3.692   0.000  0.00  0.00    +0.205 HD
ATOM      3  H   HOH    0        2.185   2.942   0.000  0.00  0.00    +0.205 HD
ENDROOT
TORSDOF 0
REMARK  Name = molecules/NZVYCXVTEHPMHE-ZSUJOUNUSA-N.pdb
REMARK                            x       y       z     vdW  Elec       q    Type
REMARK                         _______ _______ _______ _____ _____    ______ ____
ROOT
ATOM      1  C   LIG    1        0.000   0.000   0.000  0.00  0.00    +0.000 C 
ENDROOT
TORSDOF 0
REMARK  Name = molecules/NZVYCXVTEHPMHE-ZSUJOUNUSA-N.pdb
REMARK                            x       y       z     vdW  Elec       q    Type
REMARK                         _______ _______ _______ _____ _____    ______ ____
ROOT
ATOM      1  O   HOH    1        3.348   0.201   0.000  0.00  0.00    -0.410 OA
ATOM      2  H   HOH    0        3.852  -0.321   0.000  0.00  0.00    +0.205 HD
ATOM      3  H   HOH    0        2.341  -0.329   0.000  0.00  0.00    +0.205 HD
ENDROOT
TORSDOF 0
REMARK  Name = molecules/NZVYCXVTEHPMHE-ZSUJOUNUSA-N.pdb
REMARK                            x       y       z     vdW  Elec       q    Type
REMARK                         _______ _______ _______ _____ _____    ______ ____
ROOT
ATOM      1  C   LIG    1        1.299   0.750   0.000  0.00  0.00    +0.000 C 
ENDROOT
TORSDOF 0
REMARK  Name = molecules/NZVYCXVTEHPMHE-ZSUJOUNUSA-N.pdb
REMARK                            x       y       z     vdW  Elec       q    Type
REMARK                         _______ _______ _______ _____ _____    ______ ____
ROOT
ATOM      1  C   LIG    1        3.897   2.250   0.000  0.00  0.00    +0.000 C 
ENDROOT
TORSDOF 0
REMARK  Name = molecules/NZVYCXVTEHPMHE-ZSUJOUNUSA-N.pdb
REMARK                            x       y       z     vdW  Elec       q    Type
REMARK                         _______ _______ _______ _____ _____    ______ ____
ROOT
ATOM      1  C   LIG    1        2.598   1.500   0.000  0.00  0.00    +0.000 C 
ENDROOT
TORSDOF 0
REMARK  Name = molecules/NZVYCXVTEHPMHE-ZSUJOUNUSA-N.pdb
REMARK                            x       y       z     vdW  Elec       q    Type
REMARK                         _______ _______ _______ _____ _____    ______ ____
ROOT
ATOM      1  C   LIG    1       -1.848  -1.299   0.000  0.00  0.00    +0.147 C 
ATOM      2  C   LIG    1       -2.451  -2.049   0.000  0.00  0.00    +0.032 C 
ENDROOT
BRANCH   1   3
ATOM      3  O   LIG    1       -1.253  -1.823   0.000  0.00  0.00    -0.389 OA
ATOM      4  H   LIG    1       -0.402  -1.500   0.000  0.00  0.00    +0.210 HD
ENDBRANCH   1   3
TORSDOF 1
REMARK  Name = molecules/NZVYCXVTEHPMHE-ZSUJOUNUSA-N.pdb
REMARK                            x       y       z     vdW  Elec       q    Type
REMARK                         _______ _______ _______ _____ _____    ______ ____
ROOT
ATOM      1  O   HOH    1       -4.647   0.549   0.000  0.00  0.00    -0.253 OA
ATOM      2  H   HOH    0       -4.384   1.126   0.000  0.00  0.00    +0.253 HD
ENDROOT
TORSDOF 0
REMARK  Name = molecules/NZVYCXVTEHPMHE-ZSUJOUNUSA-N.pdb
REMARK                            x       y       z     vdW  Elec       q    Type
REMARK                         _______ _______ _______ _____ _____    ______ ____
ROOT
ATOM      1  C   LIG    1       -2.598   0.000   0.000  0.00  0.00    +0.005 C 
ATOM      2  C   LIG    1       -3.201   0.348   0.000  0.00  0.00    +0.025 C 
ENDROOT
BRANCH   2   3
ATOM      3  C   LIG    1       -3.000   1.098   0.000  0.00  0.00    -0.035 C 
ATOM      4  C   LIG    1       -2.451   1.647   0.000  0.00  0.00    +0.005 C 
ENDBRANCH   2   3
TORSDOF 1
REMARK  Name = molecules/NZVYCXVTEHPMHE-ZSUJOUNUSA-N.pdb
REMARK                            x       y       z     vdW  Elec       q    Type
REMARK                         _______ _______ _______ _____ _____    ______ ____
ROOT
ATOM      1  C   LIG    1       -3.348   1.299   0.000  0.00  0.00    +0.000 C 
ENDROOT
TORSDOF 0
REMARK  Name = molecules/NZVYCXVTEHPMHE-ZSUJOUNUSA-N.pdb
REMARK                            x       y       z     vdW  Elec       q    Type
REMARK                         _______ _______ _______ _____ _____    ______ ____
ROOT
ATOM      1  O   HOH    1       -0.348  -1.299   0.000  0.00  0.00    +0.000 OA
ENDROOT
TORSDOF 0
REMARK  Name = molecules/NZVYCXVTEHPMHE-ZSUJOUNUSA-N.pdb
REMARK                            x       y       z     vdW  Elec       q    Type
REMARK                         _______ _______ _______ _____ _____    ______ ____
ROOT
ATOM      1  C   LIG    1       -0.549  -3.147   0.000  0.00  0.00    +0.000 C 
ATOM      2  C   LIG    1       -1.152  -2.799   0.000  0.00  0.00    +0.000 C 
ENDROOT
TORSDOF 0
REMARK  Name = molecules/NZVYCXVTEHPMHE-ZSUJOUNUSA-N.pdb
REMARK                            x       y       z     vdW  Elec       q    Type
REMARK                         _______ _______ _______ _____ _____    ______ ____
ROOT
ATOM      1  C   LIG    1       -5.745  -6.147   0.000  0.00  0.00    -0.013 C 
ATOM      2  C   LIG    1       -7.044  -6.897   0.000  0.00  0.00    +0.009 C 
ATOM      3  C   LIG    1       -6.750  -5.397   0.000  0.00  0.00    +0.004 C 
ENDROOT
TORSDOF 0
REMARK  Name = molecules/NZVYCXVTEHPMHE-ZSUJOUNUSA-N.pdb
REMARK                            x       y       z     vdW  Elec       q    Type
REMARK                         _______ _______ _______ _____ _____    ______ ____
ROOT
ATOM      1  C   LIG    1       -4.446  -5.397   0.000  0.00  0.00    +0.000 C 
ATOM      2  C   LIG    1       -5.451  -6.147   0.000  0.00  0.00    +0.000 C 
ENDROOT
TORSDOF 0
REMARK  Name = molecules/NZVYCXVTEHPMHE-ZSUJOUNUSA-N.pdb
REMARK                            x       y       z     vdW  Elec       q    Type
REMARK                         _______ _______ _______ _____ _____    ______ ____
ROOT
ATOM      1  C   LIG    1       -3.147  -4.647   0.000  0.00  0.00    +0.000 C 
ENDROOT
TORSDOF 0
REMARK  Name = molecules/NZVYCXVTEHPMHE-ZSUJOUNUSA-N.pdb
REMARK                            x       y       z     vdW  Elec       q    Type
REMARK                         _______ _______ _______ _____ _____    ______ ____
ROOT
ATOM      1  C   LIG    1       -1.848  -3.897   0.000  0.00  0.00    -0.000 C 
ENDROOT
TORSDOF 0
REMARK  Name = molecules/NZVYCXVTEHPMHE-ZSUJOUNUSA-N.pdb
REMARK                            x       y       z     vdW  Elec       q    Type
REMARK                         _______ _______ _______ _____ _____    ______ ____
ROOT
ATOM      1  N   LIG    1       -8.343  -7.647   0.000  0.00  0.00    +0.000 NA
ENDROOT
TORSDOF 0
REMARK  Name = molecules/NZVYCXVTEHPMHE-ZSUJOUNUSA-N.pdb
REMARK                            x       y       z     vdW  Elec       q    Type
REMARK                         _______ _______ _______ _____ _____    ______ ____
ROOT
ATOM      1  C   LIG    1        1.299  -1.848   0.000  0.00  0.00    +0.000 C 
ENDROOT
TORSDOF 0
REMARK  Name = molecules/NZVYCXVTEHPMHE-ZSUJOUNUSA-N.pdb
REMARK                            x       y       z     vdW  Elec       q    Type
REMARK                         _______ _______ _______ _____ _____    ______ ____
ROOT
ATOM      1  C   LIG    1        2.799  -4.446   0.000  0.00  0.00    -0.000 C 
ENDROOT
TORSDOF 0
REMARK  Name = molecules/NZVYCXVTEHPMHE-ZSUJOUNUSA-N.pdb
REMARK                            x       y       z     vdW  Elec       q    Type
REMARK                         _______ _______ _______ _____ _____    ______ ____
ROOT
ATOM      1  C   LIG    1        3.549  -5.745   0.000  0.00  0.00    +0.000 C 
ENDROOT
TORSDOF 0
REMARK  Name = molecules/NZVYCXVTEHPMHE-ZSUJOUNUSA-N.pdb
REMARK                            x       y       z     vdW  Elec       q    Type
REMARK                         _______ _______ _______ _____ _____    ______ ____
ROOT
ATOM      1  C   LIG    1        1.701  -7.446   0.000  0.00  0.00    +0.227 C 
ENDROOT
BRANCH   1   2
ATOM      2  O   LIG    1        2.799  -7.044   0.000  0.00  0.00    -0.366 OA
ATOM      3  H   LIG    1        2.336  -5.873   0.000  0.00  0.00    +0.212 HD
ENDBRANCH   1   2
BRANCH   1   4
ATOM      4  N   LIG    1        2.451  -8.745   0.000  0.00  0.00    -0.217 NA
ATOM      5  H   LIG    1        3.702  -8.242   0.000  0.00  0.00    +0.144 HD
ENDBRANCH   1   4
TORSDOF 2
REMARK  Name = molecules/NZVYCXVTEHPMHE-ZSUJOUNUSA-N.pdb
REMARK                            x       y       z     vdW  Elec       q    Type
REMARK                         _______ _______ _______ _____ _____    ______ ____
ROOT
ATOM      1  O   HOH    1        5.049  -5.745   0.000  0.00  0.00    +0.000 OA
ENDROOT
TORSDOF 0
REMARK  Name = molecules/NZVYCXVTEHPMHE-ZSUJOUNUSA-N.pdb
REMARK                            x       y       z     vdW  Elec       q    Type
REMARK                         _______ _______ _______ _____ _____    ______ ____
ROOT
ATOM      1  O   HOH    1       -0.201  -1.848   0.000  0.00  0.00    +0.000 OA
ENDROOT
TORSDOF 0
REMARK  Name = molecules/NZVYCXVTEHPMHE-ZSUJOUNUSA-N.pdb
REMARK                            x       y       z     vdW  Elec       q    Type
REMARK                         _______ _______ _______ _____ _____    ______ ____
ROOT
ATOM      1  C   LIG    1        0.000   0.000   0.000  0.00  0.00    +0.000 C 
ENDROOT
TORSDOF 0
REMARK  Name = molecules/NZVYCXVTEHPMHE-ZSUJOUNUSA-N.pdb
REMARK                            x       y       z     vdW  Elec       q    Type
REMARK                         _______ _______ _______ _____ _____    ______ ____
ROOT
ATOM      1  C   LIG    1        5.196   3.000   0.000  0.00  0.00    -0.000 C 
ENDROOT
TORSDOF 0
REMARK  Name = molecules/NZVYCXVTEHPMHE-ZSUJOUNUSA-N.pdb
REMARK                            x       y       z     vdW  Elec       q    Type
REMARK                         _______ _______ _______ _____ _____    ______ ____
ROOT
ATOM      1  C   LIG    1        2.598   1.500   0.000  0.00  0.00    +0.000 C 
ENDROOT
TORSDOF 0
REMARK  Name = molecules/NZVYCXVTEHPMHE-ZSUJOUNUSA-N.pdb
REMARK                            x       y       z     vdW  Elec       q    Type
REMARK                         _______ _______ _______ _____ _____    ______ ____
ROOT
ATOM      1  C   LIG    1        1.299   0.750   0.000  0.00  0.00    +0.000 C 
ENDROOT
TORSDOF 0
REMARK  Name = molecules/NZVYCXVTEHPMHE-ZSUJOUNUSA-N.pdb
REMARK                            x       y       z     vdW  Elec       q    Type
REMARK                         _______ _______ _______ _____ _____    ______ ____
ROOT
ATOM      1  C   LIG    1        4.647   0.951   0.000  0.00  0.00    -0.000 C 
ENDROOT
TORSDOF 0
REMARK  Name = molecules/NZVYCXVTEHPMHE-ZSUJOUNUSA-N.pdb
REMARK                            x       y       z     vdW  Elec       q    Type
REMARK                         _______ _______ _______ _____ _____    ______ ____
ROOT
ATOM      1  C   LIG    1        3.897   2.250   0.000  0.00  0.00    +0.000 C 
ENDROOT
TORSDOF 0
REMARK  Name = molecules/NZVYCXVTEHPMHE-ZSUJOUNUSA-N.pdb
REMARK                            x       y       z     vdW  Elec       q    Type
REMARK                         _______ _______ _______ _____ _____    ______ ____
ROOT
ATOM      1  O   HOH    1       -0.795   1.272   0.000  0.00  0.00    +0.000 OA
ENDROOT
TORSDOF 0
REMARK  Name = molecules/NZVYCXVTEHPMHE-ZSUJOUNUSA-N.pdb
REMARK                            x       y       z     vdW  Elec       q    Type
REMARK                         _______ _______ _______ _____ _____    ______ ____
ROOT
ATOM      1  C   LIG    1       -2.049  -0.951   0.000  0.00  0.00    +0.000 C 
ENDROOT
TORSDOF 0
REMARK  Name = molecules/NZVYCXVTEHPMHE-ZSUJOUNUSA-N.pdb
REMARK                            x       y       z     vdW  Elec       q    Type
REMARK                         _______ _______ _______ _____ _____    ______ ____
ROOT
ATOM      1  C   LIG    1        0.951  -6.147   0.000  0.00  0.00    -0.000 C 
ENDROOT
TORSDOF 0
REMARK  Name = molecules/NZVYCXVTEHPMHE-ZSUJOUNUSA-N.pdb
REMARK                            x       y       z     vdW  Elec       q    Type
REMARK                         _______ _______ _______ _____ _____    ______ ____
ROOT
ATOM      1  C   LIG    1        0.201  -4.848   0.000  0.00  0.00    +0.000 C 
ENDROOT
TORSDOF 0
REMARK  Name = molecules/NZVYCXVTEHPMHE-ZSUJOUNUSA-N.pdb
REMARK                            x       y       z     vdW  Elec       q    Type
REMARK                         _______ _______ _______ _____ _____    ______ ____
ROOT
ATOM      1  C   LIG    1       -1.299  -2.250   0.000  0.00  0.00    +0.000 C 
ENDROOT
TORSDOF 0
REMARK  Name = molecules/NZVYCXVTEHPMHE-ZSUJOUNUSA-N.pdb
REMARK                            x       y       z     vdW  Elec       q    Type
REMARK                         _______ _______ _______ _____ _____    ______ ____
ROOT
ATOM      1  C   LIG    1       -5.598  -0.402   0.000  0.00  0.00    +0.000 C 
ENDROOT
TORSDOF 0
REMARK  Name = molecules/NZVYCXVTEHPMHE-ZSUJOUNUSA-N.pdb
REMARK                            x       y       z     vdW  Elec       q    Type
REMARK                         _______ _______ _______ _____ _____    ______ ____
ROOT
ATOM      1  C   LIG    1       -8.196  -1.902   0.000  0.00  0.00    -0.000 C 
ENDROOT
TORSDOF 0
REMARK  Name = molecules/NZVYCXVTEHPMHE-ZSUJOUNUSA-N.pdb
REMARK                            x       y       z     vdW  Elec       q    Type
REMARK                         _______ _______ _______ _____ _____    ______ ____
ROOT
ATOM      1  O   HOH    1       -9.495  -1.152   0.000  0.00  0.00    +0.000 OA
ENDROOT
TORSDOF 0
REMARK  Name = molecules/NZVYCXVTEHPMHE-ZSUJOUNUSA-N.pdb
REMARK                            x       y       z     vdW  Elec       q    Type
REMARK                         _______ _______ _______ _____ _____    ______ ____
ROOT
ATOM      1  O   HOH    1       -8.196  -3.402   0.000  0.00  0.00    -0.253 OA
ATOM      2  H   HOH    0       -9.147  -3.147   0.000  0.00  0.00    +0.253 HD
ENDROOT
TORSDOF 0
REMARK  Name = molecules/NZVYCXVTEHPMHE-ZSUJOUNUSA-N.pdb
REMARK                            x       y       z     vdW  Elec       q    Type
REMARK                         _______ _______ _______ _____ _____    ______ ____
ROOT
ATOM      1  C   LIG    1       -4.299   0.348   0.000  0.00  0.00    +0.000 C 
ENDROOT
TORSDOF 0
REMARK  Name = molecules/NZVYCXVTEHPMHE-ZSUJOUNUSA-N.pdb
REMARK                            x       y       z     vdW  Elec       q    Type
REMARK                         _______ _______ _______ _____ _____    ______ ____
ROOT
ATOM      1  O   LIG    1       -1.506   1.229   0.000  0.00  0.00    -0.038 OA
ATOM      2  O   LIG    1       -0.951   1.647   0.000  0.00  0.00    -0.218 OA
ATOM      3  H   LIG    1       -0.906   2.412   0.000  0.00  0.00    +0.256 HD
ENDROOT
TORSDOF 0
REMARK  Name = molecules/NZVYCXVTEHPMHE-ZSUJOUNUSA-N.pdb
REMARK                            x       y       z     vdW  Elec       q    Type
REMARK                         _______ _______ _______ _____ _____    ______ ____
ROOT
ATOM      1  C   LIG    1       -5.049   2.049   0.000  0.00  0.00    +0.000 C 
ENDROOT
TORSDOF 0
REMARK  Name = molecules/NZVYCXVTEHPMHE-ZSUJOUNUSA-N.pdb
REMARK                            x       y       z     vdW  Elec       q    Type
REMARK                         _______ _______ _______ _____ _____    ______ ____
ROOT
ATOM      1  C   LIG    1       -2.799   5.946   0.000  0.00  0.00    +0.000 C 
ENDROOT
TORSDOF 0
REMARK  Name = molecules/NZVYCXVTEHPMHE-ZSUJOUNUSA-N.pdb
REMARK                            x       y       z     vdW  Elec       q    Type
REMARK                         _______ _______ _______ _____ _____    ______ ____
ROOT
ATOM      1  C   LIG    1       -4.299   3.348   0.000  0.00  0.00    -0.005 C 
ATOM      2  C   LIG    1       -3.549   4.647   0.000  0.00  0.00    +0.005 C 
ENDROOT
TORSDOF 0
REMARK  Name = molecules/NZVYCXVTEHPMHE-ZSUJOUNUSA-N.pdb
REMARK                            x       y       z     vdW  Elec       q    Type
REMARK                         _______ _______ _______ _____ _____    ______ ____
ROOT
ATOM      1  N   LIG    1       -0.549   9.843   0.000  0.00  0.00    +0.000 NA
ENDROOT
TORSDOF 0
REMARK  Name = molecules/NZVYCXVTEHPMHE-ZSUJOUNUSA-N.pdb
REMARK                            x       y       z     vdW  Elec       q    Type
REMARK                         _______ _______ _______ _____ _____    ______ ____
ROOT
ATOM      1  C   LIG    1       -6.348   0.201   0.000  0.00  0.00    +0.000 C 
ENDROOT
TORSDOF 0
REMARK  Name = molecules/NZVYCXVTEHPMHE-ZSUJOUNUSA-N.pdb
REMARK                            x       y       z     vdW  Elec       q    Type
REMARK                         _______ _______ _______ _____ _____    ______ ____
ROOT
ATOM      1  C   LIG    1       -3.750  -1.299   0.000  0.00  0.00    +0.000 C 
ENDROOT
TORSDOF 0
REMARK  Name = molecules/NZVYCXVTEHPMHE-ZSUJOUNUSA-N.pdb
REMARK                            x       y       z     vdW  Elec       q    Type
REMARK                         _______ _______ _______ _____ _____    ______ ____
ROOT
ATOM      1  C   LIG    1       -5.049  -0.549   0.000  0.00  0.00    +0.000 C 
ENDROOT
TORSDOF 0
REMARK  Name = molecules/NZVYCXVTEHPMHE-ZSUJOUNUSA-N.pdb
REMARK                            x       y       z     vdW  Elec       q    Type
REMARK                         _______ _______ _______ _____ _____    ______ ____
ROOT
ATOM      1  O   LIG    1       -7.209   1.430   0.000  0.00  0.00    -0.219 OA
ATOM      2  C   LIG    1       -7.299   0.750   0.000  0.00  0.00    +0.270 C 
ENDROOT
BRANCH   2   3
ATOM      3  C   LIG    1       -8.196   1.500   0.000  0.00  0.00    +0.236 C 
ATOM      4  O   LIG    1       -8.029   2.364   0.000  0.00  0.00    -0.286 OA
ENDBRANCH   2   3
TORSDOF 1
REMARK  Name = molecules/NZVYCXVTEHPMHE-ZSUJOUNUSA-N.pdb
REMARK                            x       y       z     vdW  Elec       q    Type
REMARK                         _______ _______ _______ _____ _____    ______ ____
ROOT
ATOM      1  C   LIG    1       -9.696  -1.098   0.000  0.00  0.00    +0.000 C 
ENDROOT
TORSDOF 0
REMARK  Name = molecules/NZVYCXVTEHPMHE-ZSUJOUNUSA-N.pdb
REMARK                            x       y       z     vdW  Elec       q    Type
REMARK                         _______ _______ _______ _____ _____    ______ ____
ROOT
ATOM      1  C   LIG    1      -10.446  -2.397   0.000  0.00  0.00    +0.131 C 
ATOM      2  C   LIG    1      -11.196  -3.696   0.000  0.00  0.00    +0.361 C 
ATOM      3  O   LIG    1      -12.696  -3.696   0.000  0.00  0.00    -0.246 OA
ATOM      4  O   LIG    1      -10.446  -4.995   0.000  0.00  0.00    -0.246 OA
ENDROOT
TORSDOF 0
REMARK  Name = molecules/NZVYCXVTEHPMHE-ZSUJOUNUSA-N.pdb
REMARK                            x       y       z     vdW  Elec       q    Type
REMARK                         _______ _______ _______ _____ _____    ______ ____
ROOT
ATOM      1  C   LIG    1       -8.946   0.201   0.000  0.00  0.00    -0.000 C 
ENDROOT
TORSDOF 0
REMARK  Name = molecules/NZVYCXVTEHPMHE-ZSUJOUNUSA-N.pdb
REMARK                            x       y       z     vdW  Elec       q    Type
REMARK                         _______ _______ _______ _____ _____    ______ ____
ROOT
ATOM      1  C   LIG    1       -6.897   3.348   0.000  0.00  0.00    -0.000 C 
ENDROOT
TORSDOF 0
REMARK  Name = molecules/NZVYCXVTEHPMHE-ZSUJOUNUSA-N.pdb
REMARK                            x       y       z     vdW  Elec       q    Type
REMARK                         _______ _______ _______ _____ _____    ______ ____
ROOT
ATOM      1  C   LIG    1      -10.794   5.598   0.000  0.00  0.00    +0.225 C 
ATOM      2  O   LIG    1      -11.559   4.455   0.000  0.00  0.00    -0.225 OA
ENDROOT
TORSDOF 0
REMARK  Name = molecules/NZVYCXVTEHPMHE-ZSUJOUNUSA-N.pdb
REMARK                            x       y       z     vdW  Elec       q    Type
REMARK                         _______ _______ _______ _____ _____    ______ ____
ROOT
ATOM      1  C   LIG    1       -8.196   4.098   0.000  0.00  0.00    +0.000 C 
ENDROOT
TORSDOF 0
REMARK  Name = molecules/NZVYCXVTEHPMHE-ZSUJOUNUSA-N.pdb
REMARK                            x       y       z     vdW  Elec       q    Type
REMARK                         _______ _______ _______ _____ _____    ______ ____
ROOT
ATOM      1  C   LIG    1      -10.245   3.549   0.000  0.00  0.00    +0.000 C 
ENDROOT
TORSDOF 0
REMARK  Name = molecules/NZVYCXVTEHPMHE-ZSUJOUNUSA-N.pdb
REMARK                            x       y       z     vdW  Elec       q    Type
REMARK                         _______ _______ _______ _____ _____    ______ ____
ROOT
ATOM      1  C   LIG    1       -9.495   4.848   0.000  0.00  0.00    +0.000 C 
ENDROOT
TORSDOF 0
REMARK  Name = molecules/NZVYCXVTEHPMHE-ZSUJOUNUSA-N.pdb
REMARK                            x       y       z     vdW  Elec       q    Type
REMARK                         _______ _______ _______ _____ _____    ______ ____
ROOT
ATOM      1  C   LIG    1       -5.049   2.049   0.000  0.00  0.00    +0.000 C 
ENDROOT
TORSDOF 0
REMARK  Name = molecules/NZVYCXVTEHPMHE-ZSUJOUNUSA-N.pdb
REMARK                            x       y       z     vdW  Elec       q    Type
REMARK                         _______ _______ _______ _____ _____    ______ ____
ROOT
ATOM      1  C   LIG    1       -2.799   5.946   0.000  0.00  0.00    +0.000 C 
ENDROOT
TORSDOF 0
REMARK  Name = molecules/NZVYCXVTEHPMHE-ZSUJOUNUSA-N.pdb
REMARK                            x       y       z     vdW  Elec       q    Type
REMARK                         _______ _______ _______ _____ _____    ______ ____
ROOT
ATOM      1  C   LIG    1       -4.299   3.348   0.000  0.00  0.00    +0.000 C 
ENDROOT
TORSDOF 0
REMARK  Name = molecules/NZVYCXVTEHPMHE-ZSUJOUNUSA-N.pdb
REMARK                            x       y       z     vdW  Elec       q    Type
REMARK                         _______ _______ _______ _____ _____    ______ ____
ROOT
ATOM      1  C   LIG    1       -4.848   5.397   0.000  0.00  0.00    +0.000 C 
ENDROOT
TORSDOF 0
REMARK  Name = molecules/NZVYCXVTEHPMHE-ZSUJOUNUSA-N.pdb
REMARK                            x       y       z     vdW  Elec       q    Type
REMARK                         _______ _______ _______ _____ _____    ______ ____
ROOT
ATOM      1  C   LIG    1       -6.000   0.000   0.000  0.00  0.00    -0.000 C 
ENDROOT
TORSDOF 0
REMARK  Name = molecules/NZVYCXVTEHPMHE-ZSUJOUNUSA-N.pdb
REMARK                            x       y       z     vdW  Elec       q    Type
REMARK                         _______ _______ _______ _____ _____    ______ ____
ROOT
ATOM      1  C   LIG    1       -8.598   1.500   0.000  0.00  0.00    +0.000 C 
ENDROOT
TORSDOF 0
REMARK  Name = molecules/NZVYCXVTEHPMHE-ZSUJOUNUSA-N.pdb
REMARK                            x       y       z     vdW  Elec       q    Type
REMARK                         _______ _______ _______ _____ _____    ______ ____
ROOT
ATOM      1  C   LIG    1       -9.897   2.250   0.000  0.00  0.00    +0.000 C 
ENDROOT
TORSDOF 0
REMARK  Name = molecules/NZVYCXVTEHPMHE-ZSUJOUNUSA-N.pdb
REMARK                            x       y       z     vdW  Elec       q    Type
REMARK                         _______ _______ _______ _____ _____    ______ ____
ROOT
ATOM      1  C   LIG    1      -11.196   3.000   0.000  0.00  0.00    +0.000 C 
ENDROOT
TORSDOF 0
REMARK  Name = molecules/NZVYCXVTEHPMHE-ZSUJOUNUSA-N.pdb
REMARK                            x       y       z     vdW  Elec       q    Type
REMARK                         _______ _______ _______ _____ _____    ______ ____
ROOT
ATOM      1  O   HOH    1      -12.495   2.250   0.000  0.00  0.00    -0.253 OA
ATOM      2  H   HOH    0      -11.411   2.605   0.000  0.00  0.00    +0.253 HD
ENDROOT
TORSDOF 0
REMARK  Name = molecules/NZVYCXVTEHPMHE-ZSUJOUNUSA-N.pdb
REMARK                            x       y       z     vdW  Elec       q    Type
REMARK                         _______ _______ _______ _____ _____    ______ ____
ROOT
ATOM      1  O   HOH    1       -5.714   1.472   0.000  0.00  0.00    -0.253 OA
ATOM      2  H   HOH    0       -6.077   0.903   0.000  0.00  0.00    +0.253 HD
ENDROOT
TORSDOF 0
REMARK  Name = molecules/NZVYCXVTEHPMHE-ZSUJOUNUSA-N.pdb
REMARK                            x       y       z     vdW  Elec       q    Type
REMARK                         _______ _______ _______ _____ _____    ______ ____
ROOT
ATOM      1  C   LIG    1       -5.451  -3.549   0.000  0.00  0.00    +0.000 C 
ENDROOT
TORSDOF 0
REMARK  Name = molecules/NZVYCXVTEHPMHE-ZSUJOUNUSA-N.pdb
REMARK                            x       y       z     vdW  Elec       q    Type
REMARK                         _______ _______ _______ _____ _____    ______ ____
ROOT
ATOM      1  C   LIG    1       -3.951  -0.951   0.000  0.00  0.00    +0.000 C 
ENDROOT
TORSDOF 0
REMARK  Name = molecules/NZVYCXVTEHPMHE-ZSUJOUNUSA-N.pdb
REMARK                            x       y       z     vdW  Elec       q    Type
REMARK                         _______ _______ _______ _____ _____    ______ ____
ROOT
ATOM      1  O   HOH    1       -2.686   3.129   0.000  0.00  0.00    -0.253 OA
ATOM      2  H   HOH    0       -1.988   3.263   0.000  0.00  0.00    +0.253 HD
ENDROOT
TORSDOF 0
REMARK  Name = molecules/NZVYCXVTEHPMHE-ZSUJOUNUSA-N.pdb
REMARK                            x       y       z     vdW  Elec       q    Type
REMARK                         _______ _______ _______ _____ _____    ______ ____
ROOT
ATOM      1  C   LIG    1       -4.701  -2.250   0.000  0.00  0.00    -0.000 C 
ENDROOT
TORSDOF 0
REMARK  Name = molecules/NZVYCXVTEHPMHE-ZSUJOUNUSA-N.pdb
REMARK                            x       y       z     vdW  Elec       q    Type
REMARK                         _______ _______ _______ _____ _____    ______ ____
ROOT
ATOM      1  O   HOH    1       -6.951  -3.549   0.000  0.00  0.00    +0.000 OA
ENDROOT
TORSDOF 0
REMARK  Name = molecules/NZVYCXVTEHPMHE-ZSUJOUNUSA-N.pdb
REMARK                            x       y       z     vdW  Elec       q    Type
REMARK                         _______ _______ _______ _____ _____    ______ ____
ROOT
ATOM      1  C   LIG    1       -4.152  -6.897   0.000  0.00  0.00    +0.217 C 
ATOM      2  O   LIG    1       -3.793  -8.013   0.000  0.00  0.00    -0.221 OA
ENDROOT
BRANCH   2   3
ATOM      3  O   LIG    1       -4.690  -8.297   0.000  0.00  0.00    -0.249 OA
ATOM      4  H   LIG    1       -4.995  -7.446   0.000  0.00  0.00    +0.253 HD
ENDBRANCH   2   3
TORSDOF 1
REMARK  Name = molecules/NZVYCXVTEHPMHE-ZSUJOUNUSA-N.pdb
REMARK                            x       y       z     vdW  Elec       q    Type
REMARK                         _______ _______ _______ _____ _____    ______ ____
ROOT
ATOM      1  C   LIG    1       -0.804  -5.598   0.000  0.00  0.00    +0.000 C 
ENDROOT
TORSDOF 0
REMARK  Name = molecules/NZVYCXVTEHPMHE-ZSUJOUNUSA-N.pdb
REMARK                            x       y       z     vdW  Elec       q    Type
REMARK                         _______ _______ _______ _____ _____    ______ ____
ROOT
ATOM      1  O   HOH    1       -0.054  -1.701   0.000  0.00  0.00    -0.253 OA
ATOM      2  H   HOH    0        0.560  -2.107   0.000  0.00  0.00    +0.253 HD
ENDROOT
TORSDOF 0
REMARK  Name = molecules/NZVYCXVTEHPMHE-ZSUJOUNUSA-N.pdb
REMARK                            x       y       z     vdW  Elec       q    Type
REMARK                         _______ _______ _______ _____ _____    ______ ____
ROOT
ATOM      1  O   HOH    1        2.185  -3.183   0.000  0.00  0.00    +0.000 OA
ENDROOT
TORSDOF 0
REMARK  Name = molecules/NZVYCXVTEHPMHE-ZSUJOUNUSA-N.pdb
REMARK                            x       y       z     vdW  Elec       q    Type
REMARK                         _______ _______ _______ _____ _____    ______ ____
ROOT
ATOM      1  C   LIG    1       -1.554  -6.897   0.000  0.00  0.00    +0.000 C 
ENDROOT
TORSDOF 0
REMARK  Name = molecules/NZVYCXVTEHPMHE-ZSUJOUNUSA-N.pdb
REMARK                            x       y       z     vdW  Elec       q    Type
REMARK                         _______ _______ _______ _____ _____    ______ ____
ROOT
ATOM      1  H   UNK    1        5.196  11.892   0.000  0.00  0.00    +0.000 HD
ENDROOT
TORSDOF 0
REMARK  Name = molecules/NZVYCXVTEHPMHE-ZSUJOUNUSA-N.pdb
REMARK                            x       y       z     vdW  Elec       q    Type
REMARK                         _______ _______ _______ _____ _____    ______ ____
ROOT
ATOM      1  H   UNK    1       -2.351  10.381   0.000  0.00  0.00    +0.000 HD
ENDROOT
TORSDOF 0
REMARK  Name = molecules/NZVYCXVTEHPMHE-ZSUJOUNUSA-N.pdb
REMARK                            x       y       z     vdW  Elec       q    Type
REMARK                         _______ _______ _______ _____ _____    ______ ____
ROOT
ATOM      1  H   UNK    1        5.397  11.544   0.000  0.00  0.00    +0.000 HD
ENDROOT
TORSDOF 0
REMARK  Name = molecules/NZVYCXVTEHPMHE-ZSUJOUNUSA-N.pdb
REMARK                            x       y       z     vdW  Elec       q    Type
REMARK                         _______ _______ _______ _____ _____    ______ ____
ROOT
ATOM      1  H   UNK    1       -2.982  10.033   0.000  0.00  0.00    +0.000 HD
ENDROOT
TORSDOF 0
REMARK  Name = molecules/NZVYCXVTEHPMHE-ZSUJOUNUSA-N.pdb
REMARK                            x       y       z     vdW  Elec       q    Type
REMARK                         _______ _______ _______ _____ _____    ______ ____
ROOT
ATOM      1  H   UNK    1       -0.761   2.150   0.000  0.00  0.00    +0.000 HD
ENDROOT
TORSDOF 0
REMARK  Name = molecules/NZVYCXVTEHPMHE-ZSUJOUNUSA-N.pdb
REMARK                            x       y       z     vdW  Elec       q    Type
REMARK                         _______ _______ _______ _____ _____    ______ ____
ROOT
ATOM      1  H   UNK    1       -3.922  -3.302   0.000  0.00  0.00    +0.000 HD
ENDROOT
TORSDOF 0
REMARK  Name = molecules/NZVYCXVTEHPMHE-ZSUJOUNUSA-N.pdb
REMARK                            x       y       z     vdW  Elec       q    Type
REMARK                         _______ _______ _______ _____ _____    ______ ____
ROOT
ATOM      1  H   UNK    1        3.373  -1.253   0.000  0.00  0.00    +0.000 HD
ENDROOT
TORSDOF 0
REMARK  Name = molecules/NZVYCXVTEHPMHE-ZSUJOUNUSA-N.pdb
REMARK                            x       y       z     vdW  Elec       q    Type
REMARK                         _______ _______ _______ _____ _____    ______ ____
ROOT
ATOM      1  H   UNK    1       -8.010  -2.005   0.000  0.00  0.00    +0.000 HD
ENDROOT
TORSDOF 0
REMARK  Name = molecules/NZVYCXVTEHPMHE-ZSUJOUNUSA-N.pdb
REMARK                            x       y       z     vdW  Elec       q    Type
REMARK                         _______ _______ _______ _____ _____    ______ ____
ROOT
ATOM      1  H   UNK    1       -6.459   5.327   0.000  0.00  0.00    +0.000 HD
ENDROOT
TORSDOF 0
REMARK  Name = molecules/NZVYCXVTEHPMHE-ZSUJOUNUSA-N.pdb
REMARK                            x       y       z     vdW  Elec       q    Type
REMARK                         _______ _______ _______ _____ _____    ______ ____
ROOT
ATOM      1  H   UNK    1       -3.216  -4.692   0.000  0.00  0.00    +0.000 HD
ENDROOT
TORSDOF 0
REMARK  Name = molecules/NZVYCXVTEHPMHE-ZSUJOUNUSA-N.pdb
REMARK                            x       y       z     vdW  Elec       q    Type
REMARK                         _______ _______ _______ _____ _____    ______ ____
ROOT
ATOM      1  H   UNK    1       -0.065  -9.312   0.000  0.00  0.00    +0.000 HD
ENDROOT
TORSDOF 0
REMARK  Name = molecules/NZVYCXVTEHPMHE-ZSUJOUNUSA-N.pdb
REMARK                            x       y       z     vdW  Elec       q    Type
REMARK                         _______ _______ _______ _____ _____    ______ ____
ROOT
ATOM      1  H   UNK    1        4.894   5.391   0.000  0.00  0.00    +0.000 HD
ENDROOT
TORSDOF 0
REMARK  Name = molecules/NZVYCXVTEHPMHE-ZSUJOUNUSA-N.pdb
REMARK                            x       y       z     vdW  Elec       q    Type
REMARK                         _______ _______ _______ _____ _____    ______ ____
ROOT
ATOM      1  H   UNK    1        4.783   5.254   0.000  0.00  0.00    +0.000 HD
ENDROOT
TORSDOF 0
REMARK  Name = molecules/NZVYCXVTEHPMHE-ZSUJOUNUSA-N.pdb
REMARK                            x       y       z     vdW  Elec       q    Type
REMARK                         _______ _______ _______ _____ _____    ______ ____
ROOT
ATOM      1  H   UNK    1        6.843  16.941   0.000  0.00  0.00    +0.000 HD
ENDROOT
TORSDOF 0
REMARK  Name = molecules/NZVYCXVTEHPMHE-ZSUJOUNUSA-N.pdb
REMARK                            x       y       z     vdW  Elec       q    Type
REMARK                         _______ _______ _______ _____ _____    ______ ____
ROOT
ATOM      1  H   UNK    1        2.360  14.572   0.000  0.00  0.00    +0.000 HD
ENDROOT
TORSDOF 0
REMARK  Name = molecules/NZVYCXVTEHPMHE-ZSUJOUNUSA-N.pdb
REMARK                            x       y       z     vdW  Elec       q    Type
REMARK                         _______ _______ _______ _____ _____    ______ ____
ROOT
ATOM      1  H   UNK    1       -2.451  15.039   0.000  0.00  0.00    +0.000 HD
ENDROOT
TORSDOF 0
REMARK  Name = molecules/NZVYCXVTEHPMHE-ZSUJOUNUSA-N.pdb
REMARK                            x       y       z     vdW  Elec       q    Type
REMARK                         _______ _______ _______ _____ _____    ______ ____
ROOT
ATOM      1  H   UNK    1       -3.000  12.990   0.000  0.00  0.00    +0.000 HD
ENDROOT
TORSDOF 0
REMARK  Name = molecules/NZVYCXVTEHPMHE-ZSUJOUNUSA-N.pdb
REMARK                            x       y       z     vdW  Elec       q    Type
REMARK                         _______ _______ _______ _____ _____    ______ ____
ROOT
ATOM      1  H   UNK    1       -0.503  14.643   0.000  0.00  0.00    +0.000 HD
ENDROOT
TORSDOF 0
REMARK  Name = molecules/NZVYCXVTEHPMHE-ZSUJOUNUSA-N.pdb
REMARK                            x       y       z     vdW  Elec       q    Type
REMARK                         _______ _______ _______ _____ _____    ______ ____
ROOT
ATOM      1  H   UNK    1       -2.250  11.691   0.000  0.00  0.00    +0.000 HD
ENDROOT
TORSDOF 0
REMARK  Name = molecules/NZVYCXVTEHPMHE-ZSUJOUNUSA-N.pdb
REMARK                            x       y       z     vdW  Elec       q    Type
REMARK                         _______ _______ _______ _____ _____    ______ ____
ROOT
ATOM      1  H   UNK    1       -2.860   8.428   0.000  0.00  0.00    +0.000 HD
ENDROOT
TORSDOF 0
REMARK  Name = molecules/NZVYCXVTEHPMHE-ZSUJOUNUSA-N.pdb
REMARK                            x       y       z     vdW  Elec       q    Type
REMARK                         _______ _______ _______ _____ _____    ______ ____
ROOT
ATOM      1  H   UNK    1        0.702   7.346   0.000  0.00  0.00    +0.000 HD
ENDROOT
TORSDOF 0
REMARK  Name = molecules/NZVYCXVTEHPMHE-ZSUJOUNUSA-N.pdb
REMARK                            x       y       z     vdW  Elec       q    Type
REMARK                         _______ _______ _______ _____ _____    ______ ____
ROOT
ATOM      1  H   UNK    1        0.311  15.523   0.000  0.00  0.00    +0.000 HD
ENDROOT
TORSDOF 0
REMARK  Name = molecules/NZVYCXVTEHPMHE-ZSUJOUNUSA-N.pdb
REMARK                            x       y       z     vdW  Elec       q    Type
REMARK                         _______ _______ _______ _____ _____    ______ ____
ROOT
ATOM      1  H   UNK    1        2.095  15.045   0.000  0.00  0.00    +0.000 HD
ENDROOT
TORSDOF 0
REMARK  Name = molecules/NZVYCXVTEHPMHE-ZSUJOUNUSA-N.pdb
REMARK                            x       y       z     vdW  Elec       q    Type
REMARK                         _______ _______ _______ _____ _____    ______ ____
ROOT
ATOM      1  H   UNK    1        3.839  11.958   0.000  0.00  0.00    +0.000 HD
ENDROOT
TORSDOF 0
REMARK  Name = molecules/NZVYCXVTEHPMHE-ZSUJOUNUSA-N.pdb
REMARK                            x       y       z     vdW  Elec       q    Type
REMARK                         _______ _______ _______ _____ _____    ______ ____
ROOT
ATOM      1  H   UNK    1       10.593  10.446   0.000  0.00  0.00    +0.000 HD
ENDROOT
TORSDOF 0
REMARK  Name = molecules/NZVYCXVTEHPMHE-ZSUJOUNUSA-N.pdb
REMARK                            x       y       z     vdW  Elec       q    Type
REMARK                         _______ _______ _______ _____ _____    ______ ____
ROOT
ATOM      1  H   UNK    1        6.147   7.647   0.000  0.00  0.00    +0.000 HD
ENDROOT
TORSDOF 0
REMARK  Name = molecules/NZVYCXVTEHPMHE-ZSUJOUNUSA-N.pdb
REMARK                            x       y       z     vdW  Elec       q    Type
REMARK                         _______ _______ _______ _____ _____    ______ ____
ROOT
ATOM      1  H   UNK    1        5.031   4.882   0.000  0.00  0.00    +0.000 HD
ENDROOT
TORSDOF 0
REMARK  Name = molecules/NZVYCXVTEHPMHE-ZSUJOUNUSA-N.pdb
REMARK                            x       y       z     vdW  Elec       q    Type
REMARK                         _______ _______ _______ _____ _____    ______ ____
ROOT
ATOM      1  H   UNK    1       -0.951   9.843   0.000  0.00  0.00    +0.000 HD
ENDROOT
TORSDOF 0
REMARK  Name = molecules/NZVYCXVTEHPMHE-ZSUJOUNUSA-N.pdb
REMARK                            x       y       z     vdW  Elec       q    Type
REMARK                         _______ _______ _______ _____ _____    ______ ____
ROOT
ATOM      1  H   UNK    1       -7.098  10.392   0.000  0.00  0.00    +0.000 HD
ENDROOT
TORSDOF 0
REMARK  Name = molecules/NZVYCXVTEHPMHE-ZSUJOUNUSA-N.pdb
REMARK                            x       y       z     vdW  Elec       q    Type
REMARK                         _______ _______ _______ _____ _____    ______ ____
ROOT
ATOM      1  H   UNK    1       -5.397   7.044   0.000  0.00  0.00    +0.000 HD
ENDROOT
TORSDOF 0
REMARK  Name = molecules/NZVYCXVTEHPMHE-ZSUJOUNUSA-N.pdb
REMARK                            x       y       z     vdW  Elec       q    Type
REMARK                         _______ _______ _______ _____ _____    ______ ____
ROOT
ATOM      1  H   UNK    1       -5.689   4.226   0.000  0.00  0.00    +0.000 HD
ENDROOT
TORSDOF 0
REMARK  Name = molecules/NZVYCXVTEHPMHE-ZSUJOUNUSA-N.pdb
REMARK                            x       y       z     vdW  Elec       q    Type
REMARK                         _______ _______ _______ _____ _____    ______ ____
ROOT
ATOM      1  H   UNK    1        1.298   5.998   0.000  0.00  0.00    +0.000 HD
ENDROOT
TORSDOF 0
REMARK  Name = molecules/NZVYCXVTEHPMHE-ZSUJOUNUSA-N.pdb
REMARK                            x       y       z     vdW  Elec       q    Type
REMARK                         _______ _______ _______ _____ _____    ______ ____
ROOT
ATOM      1  H   UNK    1       -0.535   6.345   0.000  0.00  0.00    +0.000 HD
ENDROOT
TORSDOF 0
REMARK  Name = molecules/NZVYCXVTEHPMHE-ZSUJOUNUSA-N.pdb
REMARK                            x       y       z     vdW  Elec       q    Type
REMARK                         _______ _______ _______ _____ _____    ______ ____
ROOT
ATOM      1  H   UNK    1       -1.087   3.754   0.000  0.00  0.00    +0.000 HD
ENDROOT
TORSDOF 0
REMARK  Name = molecules/NZVYCXVTEHPMHE-ZSUJOUNUSA-N.pdb
REMARK                            x       y       z     vdW  Elec       q    Type
REMARK                         _______ _______ _______ _____ _____    ______ ____
ROOT
ATOM      1  H   UNK    1        4.483   0.869   0.000  0.00  0.00    +0.000 HD
ENDROOT
TORSDOF 0
REMARK  Name = molecules/NZVYCXVTEHPMHE-ZSUJOUNUSA-N.pdb
REMARK                            x       y       z     vdW  Elec       q    Type
REMARK                         _______ _______ _______ _____ _____    ______ ____
ROOT
ATOM      1  H   UNK    1        3.147   3.549   0.000  0.00  0.00    +0.000 HD
ENDROOT
TORSDOF 0
REMARK  Name = molecules/NZVYCXVTEHPMHE-ZSUJOUNUSA-N.pdb
REMARK                            x       y       z     vdW  Elec       q    Type
REMARK                         _______ _______ _______ _____ _____    ______ ____
ROOT
ATOM      1  H   UNK    1       -2.599   2.650   0.000  0.00  0.00    +0.000 HD
ENDROOT
TORSDOF 0
REMARK  Name = molecules/NZVYCXVTEHPMHE-ZSUJOUNUSA-N.pdb
REMARK                            x       y       z     vdW  Elec       q    Type
REMARK                         _______ _______ _______ _____ _____    ______ ____
ROOT
ATOM      1  H   UNK    1       -6.648  -4.949   0.000  0.00  0.00    +0.000 HD
ENDROOT
TORSDOF 0
REMARK  Name = molecules/NZVYCXVTEHPMHE-ZSUJOUNUSA-N.pdb
REMARK                            x       y       z     vdW  Elec       q    Type
REMARK                         _______ _______ _______ _____ _____    ______ ____
ROOT
ATOM      1  H   UNK    1       -4.050  -3.449   0.000  0.00  0.00    +0.000 HD
ENDROOT
TORSDOF 0
REMARK  Name = molecules/NZVYCXVTEHPMHE-ZSUJOUNUSA-N.pdb
REMARK                            x       y       z     vdW  Elec       q    Type
REMARK                         _______ _______ _______ _____ _____    ______ ____
ROOT
ATOM      1  H   UNK    1       -1.098  -5.196   0.000  0.00  0.00    +0.000 HD
ENDROOT
TORSDOF 0
REMARK  Name = molecules/NZVYCXVTEHPMHE-ZSUJOUNUSA-N.pdb
REMARK                            x       y       z     vdW  Elec       q    Type
REMARK                         _______ _______ _______ _____ _____    ______ ____
ROOT
ATOM      1  H   UNK    1       -9.642  -6.897   0.000  0.00  0.00    +0.000 HD
ENDROOT
TORSDOF 0
REMARK  Name = molecules/NZVYCXVTEHPMHE-ZSUJOUNUSA-N.pdb
REMARK                            x       y       z     vdW  Elec       q    Type
REMARK                         _______ _______ _______ _____ _____    ______ ____
ROOT
ATOM      1  H   UNK    1       -8.343  -9.147   0.000  0.00  0.00    +0.000 HD
ENDROOT
TORSDOF 0
REMARK  Name = molecules/NZVYCXVTEHPMHE-ZSUJOUNUSA-N.pdb
REMARK                            x       y       z     vdW  Elec       q    Type
REMARK                         _______ _______ _______ _____ _____    ______ ____
ROOT
ATOM      1  H   UNK    1       -6.458  -8.278   0.000  0.00  0.00    +0.000 HD
ENDROOT
TORSDOF 0
REMARK  Name = molecules/NZVYCXVTEHPMHE-ZSUJOUNUSA-N.pdb
REMARK                            x       y       z     vdW  Elec       q    Type
REMARK                         _______ _______ _______ _____ _____    ______ ____
ROOT
ATOM      1  H   UNK    1        4.098  -3.696   0.000  0.00  0.00    +0.000 HD
ENDROOT
TORSDOF 0
REMARK  Name = molecules/NZVYCXVTEHPMHE-ZSUJOUNUSA-N.pdb
REMARK                            x       y       z     vdW  Elec       q    Type
REMARK                         _______ _______ _______ _____ _____    ______ ____
ROOT
ATOM      1  H   UNK    1        3.348  -2.397   0.000  0.00  0.00    +0.000 HD
ENDROOT
TORSDOF 0
REMARK  Name = molecules/NZVYCXVTEHPMHE-ZSUJOUNUSA-N.pdb
REMARK                            x       y       z     vdW  Elec       q    Type
REMARK                         _______ _______ _______ _____ _____    ______ ____
ROOT
ATOM      1  H   UNK    1        6.495   3.750   0.000  0.00  0.00    +0.000 HD
ENDROOT
TORSDOF 0
REMARK  Name = molecules/NZVYCXVTEHPMHE-ZSUJOUNUSA-N.pdb
REMARK                            x       y       z     vdW  Elec       q    Type
REMARK                         _______ _______ _______ _____ _____    ______ ____
ROOT
ATOM      1  H   UNK    1        6.099   1.802   0.000  0.00  0.00    +0.000 HD
ENDROOT
TORSDOF 0
REMARK  Name = molecules/NZVYCXVTEHPMHE-ZSUJOUNUSA-N.pdb
REMARK                            x       y       z     vdW  Elec       q    Type
REMARK                         _______ _______ _______ _____ _____    ______ ____
ROOT
ATOM      1  H   UNK    1        0.886   2.192   0.000  0.00  0.00    +0.000 HD
ENDROOT
TORSDOF 0
REMARK  Name = molecules/NZVYCXVTEHPMHE-ZSUJOUNUSA-N.pdb
REMARK                            x       y       z     vdW  Elec       q    Type
REMARK                         _______ _______ _______ _____ _____    ______ ____
ROOT
ATOM      1  H   UNK    1        5.550  -0.247   0.000  0.00  0.00    +0.000 HD
ENDROOT
TORSDOF 0
REMARK  Name = molecules/NZVYCXVTEHPMHE-ZSUJOUNUSA-N.pdb
REMARK                            x       y       z     vdW  Elec       q    Type
REMARK                         _______ _______ _______ _____ _____    ______ ____
ROOT
ATOM      1  H   UNK    1        6.028   1.537   0.000  0.00  0.00    +0.000 HD
ENDROOT
TORSDOF 0
REMARK  Name = molecules/NZVYCXVTEHPMHE-ZSUJOUNUSA-N.pdb
REMARK                            x       y       z     vdW  Elec       q    Type
REMARK                         _______ _______ _______ _____ _____    ______ ____
ROOT
ATOM      1  H   UNK    1       -1.098  -5.598   0.000  0.00  0.00    +0.000 HD
ENDROOT
TORSDOF 0
REMARK  Name = molecules/NZVYCXVTEHPMHE-ZSUJOUNUSA-N.pdb
REMARK                            x       y       z     vdW  Elec       q    Type
REMARK                         _______ _______ _______ _____ _____    ______ ____
ROOT
ATOM      1  H   UNK    1        0.530  -2.507   0.000  0.00  0.00    +0.000 HD
ENDROOT
TORSDOF 0
REMARK  Name = molecules/NZVYCXVTEHPMHE-ZSUJOUNUSA-N.pdb
REMARK                            x       y       z     vdW  Elec       q    Type
REMARK                         _______ _______ _______ _____ _____    ______ ____
ROOT
ATOM      1  H   UNK    1       -1.747  -4.452   0.000  0.00  0.00    +0.000 HD
ENDROOT
TORSDOF 0
REMARK  Name = molecules/NZVYCXVTEHPMHE-ZSUJOUNUSA-N.pdb
REMARK                            x       y       z     vdW  Elec       q    Type
REMARK                         _______ _______ _______ _____ _____    ______ ____
ROOT
ATOM      1  H   UNK    1        3.940  -8.928   0.000  0.00  0.00    +0.000 HD
ENDROOT
TORSDOF 0
REMARK  Name = molecules/NZVYCXVTEHPMHE-ZSUJOUNUSA-N.pdb
REMARK                            x       y       z     vdW  Elec       q    Type
REMARK                         _______ _______ _______ _____ _____    ______ ____
ROOT
ATOM      1  H   UNK    1        1.701 -10.044   0.000  0.00  0.00    +0.000 HD
ENDROOT
TORSDOF 0
REMARK  Name = molecules/NZVYCXVTEHPMHE-ZSUJOUNUSA-N.pdb
REMARK                            x       y       z     vdW  Elec       q    Type
REMARK                         _______ _______ _______ _____ _____    ______ ____
ROOT
ATOM      1  H   UNK    1        0.503  -8.349   0.000  0.00  0.00    +0.000 HD
ENDROOT
TORSDOF 0
REMARK  Name = molecules/NZVYCXVTEHPMHE-ZSUJOUNUSA-N.pdb
REMARK                            x       y       z     vdW  Elec       q    Type
REMARK                         _______ _______ _______ _____ _____    ______ ____
ROOT
ATOM      1  H   UNK    1        3.143  -7.033   0.000  0.00  0.00    +0.000 HD
ENDROOT
TORSDOF 0
REMARK  Name = molecules/NZVYCXVTEHPMHE-ZSUJOUNUSA-N.pdb
REMARK                            x       y       z     vdW  Elec       q    Type
REMARK                         _______ _______ _______ _____ _____    ______ ____
ROOT
ATOM      1  H   UNK    1      -10.574  -2.194   0.000  0.00  0.00    +0.000 HD
ENDROOT
TORSDOF 0
REMARK  Name = molecules/NZVYCXVTEHPMHE-ZSUJOUNUSA-N.pdb
REMARK                            x       y       z     vdW  Elec       q    Type
REMARK                         _______ _______ _______ _____ _____    ______ ____
ROOT
ATOM      1  H   UNK    1       -2.844   8.517   0.000  0.00  0.00    +0.000 HD
ENDROOT
TORSDOF 0
REMARK  Name = molecules/NZVYCXVTEHPMHE-ZSUJOUNUSA-N.pdb
REMARK                            x       y       z     vdW  Elec       q    Type
REMARK                         _______ _______ _______ _____ _____    ______ ____
ROOT
ATOM      1  H   UNK    1       -2.470   3.605   0.000  0.00  0.00    +0.000 HD
ENDROOT
TORSDOF 0
REMARK  Name = molecules/NZVYCXVTEHPMHE-ZSUJOUNUSA-N.pdb
REMARK                            x       y       z     vdW  Elec       q    Type
REMARK                         _______ _______ _______ _____ _____    ______ ____
ROOT
ATOM      1  H   UNK    1        0.951   9.843   0.000  0.00  0.00    +0.000 HD
ENDROOT
TORSDOF 0
REMARK  Name = molecules/NZVYCXVTEHPMHE-ZSUJOUNUSA-N.pdb
REMARK                            x       y       z     vdW  Elec       q    Type
REMARK                         _______ _______ _______ _____ _____    ______ ____
ROOT
ATOM      1  H   UNK    1       -1.548  -0.851   0.000  0.00  0.00    +0.000 HD
ENDROOT
TORSDOF 0
REMARK  Name = molecules/NZVYCXVTEHPMHE-ZSUJOUNUSA-N.pdb
REMARK                            x       y       z     vdW  Elec       q    Type
REMARK                         _______ _______ _______ _____ _____    ______ ____
ROOT
ATOM      1  H   UNK    1       -3.354  -3.247   0.000  0.00  0.00    +0.000 HD
ENDROOT
TORSDOF 0
REMARK  Name = molecules/NZVYCXVTEHPMHE-ZSUJOUNUSA-N.pdb
REMARK                            x       y       z     vdW  Elec       q    Type
REMARK                         _______ _______ _______ _____ _____    ______ ____
ROOT
ATOM      1  H   UNK    1        2.151  -5.623   0.000  0.00  0.00    +0.000 HD
ENDROOT
TORSDOF 0
REMARK  Name = molecules/NZVYCXVTEHPMHE-ZSUJOUNUSA-N.pdb
REMARK                            x       y       z     vdW  Elec       q    Type
REMARK                         _______ _______ _______ _____ _____    ______ ____
ROOT
ATOM      1  H   UNK    1      -10.995  -0.348   0.000  0.00  0.00    +0.000 HD
ENDROOT
TORSDOF 0
REMARK  Name = molecules/NZVYCXVTEHPMHE-ZSUJOUNUSA-N.pdb
REMARK                            x       y       z     vdW  Elec       q    Type
REMARK                         _______ _______ _______ _____ _____    ______ ____
ROOT
ATOM      1  H   UNK    1      -13.446  -4.995   0.000  0.00  0.00    +0.000 HD
ENDROOT
TORSDOF 0
REMARK  Name = molecules/NZVYCXVTEHPMHE-ZSUJOUNUSA-N.pdb
REMARK                            x       y       z     vdW  Elec       q    Type
REMARK                         _______ _______ _______ _____ _____    ______ ____
ROOT
ATOM      1  H   UNK    1      -10.327   0.787   0.000  0.00  0.00    +0.000 HD
ENDROOT
TORSDOF 0
REMARK  Name = molecules/NZVYCXVTEHPMHE-ZSUJOUNUSA-N.pdb
REMARK                            x       y       z     vdW  Elec       q    Type
REMARK                         _______ _______ _______ _____ _____    ______ ____
ROOT
ATOM      1  H   UNK    1      -10.044   6.897   0.000  0.00  0.00    +0.000 HD
ENDROOT
TORSDOF 0
REMARK  Name = molecules/NZVYCXVTEHPMHE-ZSUJOUNUSA-N.pdb
REMARK                            x       y       z     vdW  Elec       q    Type
REMARK                         _______ _______ _______ _____ _____    ______ ____
ROOT
ATOM      1  H   UNK    1      -11.836   4.519   0.000  0.00  0.00    +0.000 HD
ENDROOT
TORSDOF 0
REMARK  Name = molecules/NZVYCXVTEHPMHE-ZSUJOUNUSA-N.pdb
REMARK                            x       y       z     vdW  Elec       q    Type
REMARK                         _______ _______ _______ _____ _____    ______ ____
ROOT
ATOM      1  H   UNK    1       -7.446   5.397   0.000  0.00  0.00    +0.000 HD
ENDROOT
TORSDOF 0
REMARK  Name = molecules/NZVYCXVTEHPMHE-ZSUJOUNUSA-N.pdb
REMARK                            x       y       z     vdW  Elec       q    Type
REMARK                         _______ _______ _______ _____ _____    ______ ____
ROOT
ATOM      1  H   UNK    1      -11.544   4.299   0.000  0.00  0.00    +0.000 HD
ENDROOT
TORSDOF 0
REMARK  Name = molecules/NZVYCXVTEHPMHE-ZSUJOUNUSA-N.pdb
REMARK                            x       y       z     vdW  Elec       q    Type
REMARK                         _______ _______ _______ _____ _____    ______ ____
ROOT
ATOM      1  H   UNK    1       -8.745   6.147   0.000  0.00  0.00    +0.000 HD
ENDROOT
TORSDOF 0
REMARK  Name = molecules/NZVYCXVTEHPMHE-ZSUJOUNUSA-N.pdb
REMARK                            x       y       z     vdW  Elec       q    Type
REMARK                         _______ _______ _______ _____ _____    ______ ____
ROOT
ATOM      1  H   UNK    1       -1.601   5.043   0.000  0.00  0.00    +0.000 HD
ENDROOT
TORSDOF 0
REMARK  Name = molecules/NZVYCXVTEHPMHE-ZSUJOUNUSA-N.pdb
REMARK                            x       y       z     vdW  Elec       q    Type
REMARK                         _______ _______ _______ _____ _____    ______ ____
ROOT
ATOM      1  H   UNK    1       -6.046   6.300   0.000  0.00  0.00    +0.000 HD
ENDROOT
TORSDOF 0
REMARK  Name = molecules/NZVYCXVTEHPMHE-ZSUJOUNUSA-N.pdb
REMARK                            x       y       z     vdW  Elec       q    Type
REMARK                         _______ _______ _______ _____ _____    ______ ____
ROOT
ATOM      1  H   UNK    1       -4.796   6.896   0.000  0.00  0.00    +0.000 HD
ENDROOT
TORSDOF 0
REMARK  Name = molecules/NZVYCXVTEHPMHE-ZSUJOUNUSA-N.pdb
REMARK                            x       y       z     vdW  Elec       q    Type
REMARK                         _______ _______ _______ _____ _____    ______ ____
ROOT
ATOM      1  H   UNK    1      -10.800   1.052   0.000  0.00  0.00    +0.000 HD
ENDROOT
TORSDOF 0
REMARK  Name = molecules/NZVYCXVTEHPMHE-ZSUJOUNUSA-N.pdb
REMARK                            x       y       z     vdW  Elec       q    Type
REMARK                         _______ _______ _______ _____ _____    ______ ____
ROOT
ATOM      1  H   UNK    1      -13.794   3.000   0.000  0.00  0.00    +0.000 HD
ENDROOT
TORSDOF 0
REMARK  Name = molecules/NZVYCXVTEHPMHE-ZSUJOUNUSA-N.pdb
REMARK                            x       y       z     vdW  Elec       q    Type
REMARK                         _______ _______ _______ _____ _____    ______ ____
ROOT
ATOM      1  H   UNK    1       -8.049  -0.549   0.000  0.00  0.00    +0.000 HD
ENDROOT
TORSDOF 0
REMARK  Name = molecules/NZVYCXVTEHPMHE-ZSUJOUNUSA-N.pdb
REMARK                            x       y       z     vdW  Elec       q    Type
REMARK                         _______ _______ _______ _____ _____    ______ ____
ROOT
ATOM      1  H   UNK    1       -4.643   0.761   0.000  0.00  0.00    +0.000 HD
ENDROOT
TORSDOF 0
REMARK  Name = molecules/NZVYCXVTEHPMHE-ZSUJOUNUSA-N.pdb
REMARK                            x       y       z     vdW  Elec       q    Type
REMARK                         _______ _______ _______ _____ _____    ______ ____
ROOT
ATOM      1  H   UNK    1       -8.049  -4.647   0.000  0.00  0.00    +0.000 HD
ENDROOT
TORSDOF 0
REMARK  Name = molecules/NZVYCXVTEHPMHE-ZSUJOUNUSA-N.pdb
REMARK                            x       y       z     vdW  Elec       q    Type
REMARK                         _______ _______ _______ _____ _____    ______ ____
ROOT
ATOM      1  H   UNK    1       -0.475  -7.939   0.000  0.00  0.00    +0.000 HD
ENDROOT
TORSDOF 0
REMARK  Name = molecules/NZVYCXVTEHPMHE-ZSUJOUNUSA-N.pdb
REMARK                            x       y       z     vdW  Elec       q    Type
REMARK                         _______ _______ _______ _____ _____    ______ ____
ROOT
ATOM      1  H   UNK    1        1.593 -14.544   0.000  0.00  0.00    +0.000 HD
ENDROOT
TORSDOF 0
REMARK  Name = molecules/NZVYCXVTEHPMHE-ZSUJOUNUSA-N.pdb
REMARK                            x       y       z     vdW  Elec       q    Type
REMARK                         _______ _______ _______ _____ _____    ______ ____
ROOT
ATOM      1  H   UNK    1       -1.005 -14.544   0.000  0.00  0.00    +0.000 HD
ENDROOT
TORSDOF 0
