REMARK  Name = molecules/NZWOPGCLSHLLPA-ZETCQYMHSA-N.pdb
REMARK                            x       y       z     vdW  Elec       q    Type
REMARK                         _______ _______ _______ _____ _____    ______ ____
ROOT
ATOM      1  C   LIG    1        0.828   1.262   2.218  0.00  0.00    +0.050 C 
ATOM      2  C   LIG    1        0.580   0.415   0.965  0.00  0.00    +0.157 C 
ENDROOT
BRANCH   2   3
ATOM      3  C   LIG    1       -0.868   0.488   0.686  0.00  0.00    -0.031 C 
BRANCH   3   4
ATOM      4  N   LIG    1       -1.351  -0.340  -0.379  0.00  0.00    +0.377 N 
ATOM      5  C   LIG    1       -1.172  -1.744  -0.168  0.00  0.00    -0.093 C 
ATOM      6  C   LIG    1       -2.808  -0.107  -0.387  0.00  0.00    -0.093 C 
ATOM      7  C   LIG    1       -0.872   0.017  -1.678  0.00  0.00    -0.093 C 
ENDBRANCH   3   4
ENDBRANCH   2   3
BRANCH   2   8
ATOM      8  O   LIG    1        1.418   0.770  -0.085  0.00  0.00    -0.464 OA
BRANCH   8   9
ATOM      9  C   LIG    1        2.382  -0.092  -0.599  0.00  0.00    +0.304 C 
ATOM     10  O   LIG    1        2.450  -1.222  -0.050  0.00  0.00    -0.251 OA
ATOM     11  C   LIG    1        3.284   0.269  -1.718  0.00  0.00    +0.136 C 
ENDBRANCH   8   9
ENDBRANCH   2   8
TORSDOF 4
