REMARK  Name = molecules/NZXKDOXHBHYTKP-IINYFYTJSA-N.pdb
REMARK                            x       y       z     vdW  Elec       q    Type
REMARK                         _______ _______ _______ _____ _____    ______ ____
ROOT
ATOM      1  C   LIG    1       -0.799   0.260   0.005  0.00  0.00    +0.140 C 
ATOM      2  C   LIG    1       -0.371  -0.109   1.371  0.00  0.00    +0.237 C 
ATOM      3  O   LIG    1        0.323   0.622   2.131  0.00  0.00    -0.274 OA
ATOM      4  N   LIG    1       -0.741  -1.383   1.936  0.00  0.00    -0.239 N 
ATOM      5  H   LIG    1       -0.705  -1.536   2.962  0.00  0.00    +0.159 HD
ATOM      6  C   LIG    1       -1.151  -2.418   1.079  0.00  0.00    +0.315 C 
ATOM      7  O   LIG    1       -1.490  -3.566   1.513  0.00  0.00    -0.252 OA
ATOM      8  N   LIG    1       -1.206  -2.232  -0.306  0.00  0.00    -0.228 N 
ATOM      9  C   LIG    1       -1.619  -3.257  -1.252  0.00  0.00    +0.143 C 
ATOM     10  C   LIG    1       -0.838  -0.967  -0.851  0.00  0.00    +0.239 C 
ATOM     11  O   LIG    1       -0.537  -0.842  -2.062  0.00  0.00    -0.274 OA
ENDROOT
BRANCH   1  12
ATOM     12  C   LIG    1        0.103   1.244  -0.661  0.00  0.00    +0.085 C 
ATOM     13  C   LIG    1        0.256   2.562   0.015  0.00  0.00    +0.023 C 
BRANCH  12  14
ATOM     14  C   LIG    1        1.439   0.604  -0.762  0.00  0.00    -0.098 C 
ATOM     15  C   LIG    1        2.524   0.088  -0.862  0.00  0.00    -0.102 C 
BRANCH  15  16
ATOM     16  C   LIG    1        3.844  -0.535  -1.007  0.00  0.00    +0.085 C 
ATOM     17  C   LIG    1        4.481  -0.566   0.349  0.00  0.00    +0.017 C 
ENDBRANCH  15  16
ENDBRANCH  12  14
ENDBRANCH   1  12
BRANCH   1  18
ATOM     18  C   LIG    1       -2.247   0.739   0.046  0.00  0.00    +0.053 C 
BRANCH  18  19
ATOM     19  C   LIG    1       -2.426   1.926   0.928  0.00  0.00    -0.033 C 
ATOM     20  C   LIG    1       -2.893   3.039   0.379  0.00  0.00    +0.004 C 
ENDBRANCH  18  19
ENDBRANCH   1  18
TORSDOF 5
