REMARK  Name = molecules/OAIJSZIZWZSQBC-GYZMGTAESA-N.pdb
REMARK                            x       y       z     vdW  Elec       q    Type
REMARK                         _______ _______ _______ _____ _____    ______ ____
ROOT
ATOM      1  C   LIG    1        0.484   0.011   0.230  0.00  0.00    +0.000 C 
ATOM      2  C   LIG    1       -0.462  -0.052   1.149  0.00  0.00    +0.000 C 
ENDROOT
BRANCH   2   3
ATOM      3  C   LIG    1       -1.829  -0.119   0.688  0.00  0.00    +0.003 C 
ATOM      4  C   LIG    1       -2.841  -0.190   1.582  0.00  0.00    -0.050 C 
ATOM      5  C   LIG    1       -2.477  -0.202   2.987  0.00  0.00    +0.044 C 
BRANCH   4   6
ATOM      6  C   LIG    1       -4.206  -0.256   1.080  0.00  0.00    +0.003 C 
ATOM      7  C   LIG    1       -5.281  -0.328   1.842  0.00  0.00    +0.001 C 
BRANCH   7   8
ATOM      8  C   LIG    1       -6.607  -0.391   1.215  0.00  0.00    +0.003 C 
ATOM      9  C   LIG    1       -7.732  -0.466   1.909  0.00  0.00    -0.050 C 
ATOM     10  C   LIG    1       -7.593  -0.486   3.371  0.00  0.00    +0.044 C 
BRANCH   9  11
ATOM     11  C   LIG    1       -9.001  -0.525   1.199  0.00  0.00    +0.003 C 
ATOM     12  C   LIG    1      -10.170  -0.600   1.805  0.00  0.00    +0.000 C 
BRANCH  12  13
ATOM     13  C   LIG    1      -11.415  -0.659   1.015  0.00  0.00    -0.001 C 
ATOM     14  C   LIG    1      -12.553  -0.735   1.658  0.00  0.00    -0.072 C 
ATOM     15  C   LIG    1      -12.615  -0.755   3.160  0.00  0.00    +0.039 C 
BRANCH  14  16
ATOM     16  C   LIG    1      -13.825  -0.796   0.893  0.00  0.00    +0.034 C 
BRANCH  16  17
ATOM     17  C   LIG    1      -13.572  -0.759  -0.597  0.00  0.00    +0.031 C 
BRANCH  17  18
ATOM     18  C   LIG    1      -14.826  -0.826  -1.379  0.00  0.00    -0.028 C 
ATOM     19  C   LIG    1      -15.137   0.103  -2.239  0.00  0.00    -0.080 C 
ATOM     20  C   LIG    1      -14.235   1.259  -2.457  0.00  0.00    +0.038 C 
ATOM     21  C   LIG    1      -16.393   0.026  -3.027  0.00  0.00    +0.038 C 
ENDBRANCH  17  18
ENDBRANCH  16  17
ENDBRANCH  14  16
ENDBRANCH  12  13
ENDBRANCH   9  11
ENDBRANCH   7   8
ENDBRANCH   4   6
ENDBRANCH   2   3
BRANCH   1  23
ATOM     22  C   LIG    1        2.814   0.140  -0.454  0.00  0.00    -0.050 C 
ATOM     23  C   LIG    1        1.899   0.083   0.520  0.00  0.00    +0.003 C 
ATOM     24  C   LIG    1        2.300   0.119  -1.839  0.00  0.00    +0.044 C 
BRANCH  22  26
ATOM     25  C   LIG    1        5.161   0.268  -1.018  0.00  0.00    +0.001 C 
ATOM     26  C   LIG    1        4.220   0.212  -0.125  0.00  0.00    +0.003 C 
BRANCH  25  28
ATOM     27  C   LIG    1        7.541   0.391  -1.497  0.00  0.00    -0.050 C 
ATOM     28  C   LIG    1        6.580   0.339  -0.591  0.00  0.00    +0.003 C 
ATOM     29  C   LIG    1        7.143   0.377  -2.913  0.00  0.00    +0.044 C 
BRANCH  27  30
ATOM     30  C   LIG    1        8.927   0.460  -1.105  0.00  0.00    +0.003 C 
ATOM     31  C   LIG    1        9.972   0.511  -1.902  0.00  0.00    +0.000 C 
BRANCH  31  32
ATOM     32  C   LIG    1       11.322   0.579  -1.363  0.00  0.00    -0.001 C 
ATOM     33  C   LIG    1       12.363   0.622  -2.170  0.00  0.00    -0.072 C 
ATOM     34  C   LIG    1       12.085   0.594  -3.630  0.00  0.00    +0.039 C 
BRANCH  33  35
ATOM     35  C   LIG    1       13.749   0.691  -1.639  0.00  0.00    +0.034 C 
BRANCH  35  36
ATOM     36  C   LIG    1       13.737   0.721  -0.128  0.00  0.00    +0.031 C 
BRANCH  36  37
ATOM     37  C   LIG    1       15.110   0.749   0.433  0.00  0.00    -0.028 C 
ATOM     38  C   LIG    1       15.608  -0.107   1.298  0.00  0.00    -0.080 C 
ATOM     39  C   LIG    1       14.774  -1.218   1.806  0.00  0.00    +0.038 C 
ATOM     40  C   LIG    1       16.999   0.047   1.770  0.00  0.00    +0.038 C 
ENDBRANCH  36  37
ENDBRANCH  35  36
ENDBRANCH  33  35
ENDBRANCH  31  32
ENDBRANCH  27  30
ENDBRANCH  25  28
ENDBRANCH  22  26
ENDBRANCH   1  23
TORSDOF 16
