REMARK  Name = molecules/OAYRYNVEFFWSHK-UHFFFAOYSA-N.pdb
REMARK                            x       y       z     vdW  Elec       q    Type
REMARK                         _______ _______ _______ _____ _____    ______ ____
ROOT
ATOM      1  O   LIG    1       -2.941  -2.327  -0.409  0.00  0.00    -0.223 OA
ATOM      2  C   LIG    1       -2.095  -1.397  -0.265  0.00  0.00    +0.421 A 
ATOM      3  N   LIG    1       -2.493  -0.118  -0.153  0.00  0.00    -0.258 N 
ATOM      4  C   LIG    1       -1.557   0.834  -0.001  0.00  0.00    +0.264 A 
ATOM      5  O   LIG    1       -1.894   2.027   0.105  0.00  0.00    -0.267 OA
ATOM      6  C   LIG    1       -0.223   0.516   0.041  0.00  0.00    +0.082 A 
ATOM      7  C   LIG    1        0.788   1.465   0.198  0.00  0.00    +0.017 A 
ATOM      8  C   LIG    1        2.123   1.102   0.235  0.00  0.00    +0.001 A 
ATOM      9  C   LIG    1        2.452  -0.230   0.115  0.00  0.00    +0.004 A 
ATOM     10  C   LIG    1        1.459  -1.172  -0.040  0.00  0.00    +0.047 A 
ATOM     11  C   LIG    1        0.121  -0.814  -0.078  0.00  0.00    +0.146 A 
ATOM     12  H   LIG    1       -3.498   0.153  -0.182  0.00  0.00    +0.175 HD
ATOM     13  O   LIG    1       -0.806  -1.695  -0.223  0.00  0.00    -0.409 OA
ENDROOT
TORSDOF 0
