REMARK  Name = molecules/OBATZBGFDSVCJD-LALPQLPRSA-N.pdb
REMARK                            x       y       z     vdW  Elec       q    Type
REMARK                         _______ _______ _______ _____ _____    ______ ____
ROOT
ATOM      1  C   LIG    1       -1.392  -1.009   1.507  0.00  0.00    +0.253 C 
ATOM      2  O   LIG    1       -0.644   0.010   2.085  0.00  0.00    -0.346 OA
ATOM      3  C   LIG    1       -0.246   0.980   1.228  0.00  0.00    +0.150 C 
ATOM      4  C   LIG    1       -1.416   1.967   1.070  0.00  0.00    +0.041 C 
ATOM      5  C   LIG    1        0.169   0.599  -0.142  0.00  0.00    +0.178 C 
ATOM      6  C   LIG    1       -0.379  -0.697  -0.666  0.00  0.00    +0.151 C 
ATOM      7  C   LIG    1       -0.487  -1.674   0.455  0.00  0.00    +0.095 C 
ENDROOT
BRANCH   6   8
ATOM      8  O   LIG    1        0.456  -1.264  -1.634  0.00  0.00    -0.389 OA
ATOM      9  H   LIG    1        0.362  -2.243  -1.580  0.00  0.00    +0.210 HD
ENDBRANCH   6   8
BRANCH   5  10
ATOM     10  O   LIG    1        1.580   0.461  -0.096  0.00  0.00    -0.343 OA
BRANCH  10  11
ATOM     11  C   LIG    1        2.185   1.298  -1.012  0.00  0.00    +0.254 C 
ATOM     12  C   LIG    1        2.994   2.350  -0.253  0.00  0.00    +0.095 C 
ATOM     13  C   LIG    1        4.463   2.072  -0.271  0.00  0.00    +0.151 C 
ATOM     14  C   LIG    1        4.701   0.572  -0.150  0.00  0.00    +0.178 C 
ATOM     15  C   LIG    1        4.047  -0.059  -1.345  0.00  0.00    +0.150 C 
ATOM     16  C   LIG    1        3.667  -1.512  -1.045  0.00  0.00    +0.041 C 
ATOM     17  O   LIG    1        3.009   0.656  -1.886  0.00  0.00    -0.346 OA
BRANCH  13  18
ATOM     18  O   LIG    1        5.061   2.584  -1.417  0.00  0.00    -0.389 OA
ATOM     19  H   LIG    1        4.773   2.141  -2.236  0.00  0.00    +0.210 HD
ENDBRANCH  13  18
BRANCH  14  20
ATOM     20  O   LIG    1        6.054   0.331  -0.114  0.00  0.00    -0.343 OA
BRANCH  20  21
ATOM     21  C   LIG    1        6.491  -0.222   1.069  0.00  0.00    +0.254 C 
ATOM     22  O   LIG    1        7.272   0.729   1.731  0.00  0.00    -0.346 OA
ATOM     23  C   LIG    1        8.471   0.994   1.114  0.00  0.00    +0.150 C 
ATOM     24  C   LIG    1        9.268  -0.277   0.905  0.00  0.00    +0.178 C 
ATOM     25  C   LIG    1        8.560  -1.392   1.613  0.00  0.00    +0.151 C 
ATOM     26  C   LIG    1        8.243   1.718  -0.195  0.00  0.00    +0.041 C 
ATOM     27  C   LIG    1        7.194  -1.541   0.927  0.00  0.00    +0.095 C 
BRANCH  25  28
ATOM     28  O   LIG    1        8.285  -1.126   2.942  0.00  0.00    -0.389 OA
ATOM     29  H   LIG    1        8.566  -1.905   3.484  0.00  0.00    +0.210 HD
ENDBRANCH  25  28
BRANCH  24  30
ATOM     30  O   LIG    1       10.594  -0.121   1.275  0.00  0.00    -0.340 OA
BRANCH  30  31
ATOM     31  C   LIG    1       11.501  -0.272   0.234  0.00  0.00    +0.282 C 
ATOM     32  O   LIG    1       12.446  -1.253   0.495  0.00  0.00    -0.341 OA
ATOM     33  C   LIG    1       13.477  -1.118  -0.429  0.00  0.00    +0.178 C 
ATOM     34  C   LIG    1       14.439  -0.105   0.156  0.00  0.00    +0.177 C 
ATOM     35  C   LIG    1       13.605   1.065   0.632  0.00  0.00    +0.179 C 
ATOM     36  C   LIG    1       12.220   1.045   0.076  0.00  0.00    +0.201 C 
BRANCH  35  37
ATOM     37  O   LIG    1       13.661   1.197   2.012  0.00  0.00    -0.386 OA
ATOM     38  H   LIG    1       12.722   1.121   2.358  0.00  0.00    +0.210 HD
ENDBRANCH  35  37
BRANCH  34  39
ATOM     39  O   LIG    1       15.442   0.273  -0.703  0.00  0.00    -0.386 OA
ATOM     40  H   LIG    1       15.624   1.247  -0.703  0.00  0.00    +0.210 HD
ENDBRANCH  34  39
BRANCH  36  41
ATOM     41  O   LIG    1       12.279   1.439  -1.278  0.00  0.00    -0.384 OA
ATOM     42  H   LIG    1       12.808   2.279  -1.281  0.00  0.00    +0.210 HD
ENDBRANCH  36  41
BRANCH  33  43
ATOM     43  C   LIG    1       14.177  -2.444  -0.673  0.00  0.00    +0.190 C 
BRANCH  43  44
ATOM     44  O   LIG    1       14.690  -2.853   0.568  0.00  0.00    -0.392 OA
ATOM     45  H   LIG    1       15.371  -3.561   0.452  0.00  0.00    +0.210 HD
ENDBRANCH  43  44
ENDBRANCH  33  43
ENDBRANCH  30  31
ENDBRANCH  24  30
ENDBRANCH  20  21
ENDBRANCH  14  20
ENDBRANCH  10  11
ENDBRANCH   5  10
BRANCH   1  46
ATOM     46  O   LIG    1       -2.433  -0.452   0.862  0.00  0.00    -0.348 OA
BRANCH  46  55
ATOM     47  C   LIG    1       -9.461  -0.659  -0.838  0.00  0.00    +0.077 C 
ATOM     48  C   LIG    1      -10.167   0.196   0.171  0.00  0.00    +0.029 C 
ATOM     49  C   LIG    1       -9.299   0.218   1.437  0.00  0.00    +0.124 C 
ATOM     50  C   LIG    1       -8.011   0.908   1.066  0.00  0.00    +0.036 C 
ATOM     51  C   LIG    1       -7.238  -0.013   0.189  0.00  0.00    +0.003 C 
ATOM     52  C   LIG    1       -5.919   0.527  -0.274  0.00  0.00    -0.026 C 
ATOM     53  C   LIG    1       -5.114   1.180   0.788  0.00  0.00    +0.010 C 
ATOM     54  C   LIG    1       -4.579   0.173   1.772  0.00  0.00    +0.032 C 
ATOM     55  C   LIG    1       -3.708  -0.870   1.101  0.00  0.00    +0.122 C 
ATOM     56  C   LIG    1       -4.405  -1.496  -0.081  0.00  0.00    +0.035 C 
ATOM     57  C   LIG    1       -5.109  -0.517  -0.965  0.00  0.00    -0.002 C 
ATOM     58  C   LIG    1       -5.897  -1.302  -1.994  0.00  0.00    +0.004 C 
ATOM     59  C   LIG    1       -7.293  -1.630  -1.592  0.00  0.00    +0.007 C 
ATOM     60  C   LIG    1       -6.185   1.607  -1.336  0.00  0.00    +0.012 C 
ATOM     61  C   LIG    1      -11.412  -0.511   0.519  0.00  0.00    +0.030 C 
ATOM     62  C   LIG    1      -11.228  -1.948   0.137  0.00  0.00    +0.011 C 
ATOM     63  C   LIG    1      -10.304   1.621  -0.263  0.00  0.00    +0.017 C 
ATOM     64  C   LIG    1       -9.788  -2.063  -0.368  0.00  0.00    +0.036 C 
ATOM     65  C   LIG    1       -8.015  -0.418  -1.015  0.00  0.00    +0.025 C 
BRANCH  61  66
ATOM     66  C   LIG    1      -12.696   0.073   0.032  0.00  0.00    -0.022 C 
ATOM     67  C   LIG    1      -13.591   0.615   0.834  0.00  0.00    +0.094 C 
ATOM     68  C   LIG    1      -14.700   1.075   0.033  0.00  0.00    +0.332 C 
ATOM     69  O   LIG    1      -15.766   1.653   0.415  0.00  0.00    -0.246 OA
ATOM     70  O   LIG    1      -14.430   0.784  -1.286  0.00  0.00    -0.457 OA
ATOM     71  C   LIG    1      -13.204   0.102  -1.343  0.00  0.00    +0.264 C 
ENDBRANCH  61  66
BRANCH  49  72
ATOM     72  O   LIG    1       -9.973   0.870   2.455  0.00  0.00    -0.391 OA
ATOM     73  H   LIG    1      -10.164   0.210   3.170  0.00  0.00    +0.210 HD
ENDBRANCH  49  72
BRANCH  47  74
ATOM     74  O   LIG    1      -10.074  -0.486  -2.075  0.00  0.00    -0.388 OA
ATOM     75  H   LIG    1       -9.677   0.282  -2.577  0.00  0.00    +0.210 HD
ENDBRANCH  47  74
ENDBRANCH  46  55
ENDBRANCH   1  46
TORSDOF 19
