REMARK  Name = molecules/OBKXEAXTFZPCHS-UHFFFAOYSA-N.pdb
REMARK                            x       y       z     vdW  Elec       q    Type
REMARK                         _______ _______ _______ _____ _____    ______ ____
ROOT
ATOM      1  C   LIG    1        0.407   0.201  -0.638  0.00  0.00    +0.035 C 
ENDROOT
BRANCH   1   2
ATOM      2  C   LIG    1       -0.986  -0.088  -0.299  0.00  0.00    -0.047 A 
ATOM      3  C   LIG    1       -1.328  -1.312   0.275  0.00  0.00    +0.003 A 
ATOM      4  C   LIG    1       -2.612  -1.610   0.609  0.00  0.00    +0.000 A 
ATOM      5  C   LIG    1       -3.653  -0.737   0.408  0.00  0.00    +0.000 A 
ATOM      6  C   LIG    1       -3.345   0.500  -0.164  0.00  0.00    +0.000 A 
ATOM      7  C   LIG    1       -2.040   0.786  -0.496  0.00  0.00    +0.003 A 
ENDBRANCH   1   2
BRANCH   1   8
ATOM      8  C   LIG    1        1.120   0.829   0.543  0.00  0.00    +0.016 C 
BRANCH   8   9
ATOM      9  C   LIG    1        2.556   1.122   0.218  0.00  0.00    +0.121 C 
BRANCH   9  10
ATOM     10  C   LIG    1        3.312  -0.059  -0.195  0.00  0.00    +0.305 C 
ATOM     11  O   LIG    1        3.607  -0.191  -1.409  0.00  0.00    -0.251 OA
BRANCH  10  12
ATOM     12  O   LIG    1        3.698  -1.010   0.714  0.00  0.00    -0.481 OA
ATOM     13  H   LIG    1        4.577  -1.510   0.684  0.00  0.00    +0.295 HD
ENDBRANCH  10  12
ENDBRANCH   9  10
ENDBRANCH   8   9
ENDBRANCH   1   8
TORSDOF 5
