REMARK  Name = molecules/OBMLHUPNRURLOK-XGRAFVIBSA-N.pdb
REMARK                            x       y       z     vdW  Elec       q    Type
REMARK                         _______ _______ _______ _____ _____    ______ ____
ROOT
ATOM      1  C   LIG    1        1.961  -1.144  -1.292  0.00  0.00    +0.012 C 
ATOM      2  C   LIG    1        1.758   0.089  -0.474  0.00  0.00    -0.025 C 
ATOM      3  C   LIG    1        2.331  -0.109   0.938  0.00  0.00    -0.004 C 
ATOM      4  C   LIG    1        1.771  -1.426   1.405  0.00  0.00    +0.004 C 
ATOM      5  C   LIG    1        0.290  -1.256   1.589  0.00  0.00    +0.004 C 
ATOM      6  C   LIG    1       -0.413  -0.715   0.386  0.00  0.00    -0.004 C 
ATOM      7  C   LIG    1       -1.721  -0.133   0.818  0.00  0.00    +0.001 C 
ATOM      8  C   LIG    1       -2.694  -1.073   1.408  0.00  0.00    +0.007 C 
ATOM      9  C   LIG    1       -3.956  -0.200   1.458  0.00  0.00    +0.032 C 
ATOM     10  C   LIG    1       -3.776   0.845   0.363  0.00  0.00    +0.121 C 
ATOM     11  C   LIG    1       -2.508   0.450  -0.338  0.00  0.00    -0.003 C 
ATOM     12  C   LIG    1       -1.733   1.569  -0.916  0.00  0.00    +0.010 C 
ATOM     13  C   LIG    1       -0.395   1.014  -1.400  0.00  0.00    +0.005 C 
ATOM     14  C   LIG    1       -2.847  -0.558  -1.391  0.00  0.00    +0.014 C 
ATOM     15  C   LIG    1        3.792   0.017   1.012  0.00  0.00    +0.019 C 
ATOM     16  C   LIG    1        4.543  -0.070  -0.260  0.00  0.00    +0.060 C 
ATOM     17  S   LIG    1        5.388   1.445  -0.855  0.00  0.00    -0.152 S 
ATOM     18  C   LIG    1        3.939   0.650  -1.410  0.00  0.00    +0.060 C 
ATOM     19  C   LIG    1        0.333   0.457  -0.237  0.00  0.00    -0.001 C 
ATOM     20  C   LIG    1        2.543   1.205  -1.094  0.00  0.00    +0.022 C 
ENDROOT
BRANCH  10  21
ATOM     21  O   LIG    1       -4.876   0.856  -0.497  0.00  0.00    -0.391 OA
ATOM     22  H   LIG    1       -5.670   0.441  -0.043  0.00  0.00    +0.210 HD
ENDBRANCH  10  21
TORSDOF 1
