REMARK  Name = molecules/OBMNJSNZOWALQB-NCQNOWPTSA-N.pdb
REMARK                            x       y       z     vdW  Elec       q    Type
REMARK                         _______ _______ _______ _____ _____    ______ ____
ROOT
ATOM      1  C   LIG    1       -2.972   1.021  -2.732  0.00  0.00    +0.061 C 
ATOM      2  C   LIG    1       -3.221   2.128  -1.766  0.00  0.00    +0.103 A 
ATOM      3  C   LIG    1       -2.502   2.254  -0.559  0.00  0.00    +0.238 A 
ATOM      4  N   LIG    1       -2.857   3.304   0.215  0.00  0.00    -0.210 NA
ATOM      5  C   LIG    1       -3.796   4.209  -0.040  0.00  0.00    +0.096 A 
ATOM      6  C   LIG    1       -4.094   5.249   0.822  0.00  0.00    +0.075 A 
ATOM      7  C   LIG    1       -5.083   6.126   0.469  0.00  0.00    +0.122 A 
ATOM      8  C   LIG    1       -5.788   5.995  -0.725  0.00  0.00    +0.048 A 
ATOM      9  C   LIG    1       -5.476   4.951  -1.569  0.00  0.00    +0.033 A 
ATOM     10  C   LIG    1       -4.486   4.055  -1.237  0.00  0.00    +0.090 A 
ATOM     11  O   LIG    1       -1.572   1.341  -0.322  0.00  0.00    -0.470 OA
ATOM     12  C   LIG    1       -0.404   0.918   0.121  0.00  0.00    +0.195 C 
ATOM     13  C   LIG    1       -0.661  -0.208   1.151  0.00  0.00    +0.153 C 
ATOM     14  N   LIG    1        0.101  -1.328   0.729  0.00  0.00    -0.285 N 
ATOM     15  C   LIG    1       -0.169  -2.694   0.957  0.00  0.00    +0.237 C 
ATOM     16  C   LIG    1       -0.830  -3.294   2.114  0.00  0.00    +0.168 C 
ATOM     17  N   LIG    1       -1.671  -4.426   1.765  0.00  0.00    -0.269 N 
ATOM     18  H   LIG    1       -2.201  -4.854   2.584  0.00  0.00    +0.153 HD
ATOM     19  C   LIG    1       -1.847  -4.995   0.507  0.00  0.00    +0.401 C 
ATOM     20  O   LIG    1       -1.717  -6.266   0.404  0.00  0.00    -0.226 OA
ATOM     21  O   LIG    1       -2.151  -4.357  -0.675  0.00  0.00    -0.447 OA
ATOM     22  C   LIG    1       -2.950  -3.208  -0.785  0.00  0.00    +0.182 C 
ATOM     23  C   LIG    1       -4.033  -2.925   0.186  0.00  0.00    +0.052 C 
ATOM     24  C   LIG    1       -4.317  -3.592  -1.169  0.00  0.00    +0.033 C 
ATOM     25  C   LIG    1       -4.986  -2.708  -2.191  0.00  0.00    +0.007 C 
ATOM     26  C   LIG    1       -4.145  -2.422  -3.393  0.00  0.00    +0.000 C 
ATOM     27  C   LIG    1       -4.113  -0.953  -3.780  0.00  0.00    +0.000 C 
ATOM     28  O   LIG    1        0.201  -3.524   0.053  0.00  0.00    -0.274 OA
ATOM     29  C   LIG    1        1.240  -0.771  -0.003  0.00  0.00    +0.166 C 
ATOM     30  C   LIG    1        0.505   0.222  -0.882  0.00  0.00    +0.078 C 
ATOM     31  N   LIG    1       -4.162   3.029  -2.031  0.00  0.00    -0.245 NA
ATOM     32  C   LIG    1       -4.068  -0.040  -2.607  0.00  0.00    +0.006 C 
ENDROOT
BRANCH  16  33
ATOM     33  C   LIG    1        0.310  -3.796   3.027  0.00  0.00    -0.011 C 
ATOM     34  C   LIG    1       -0.252  -4.411   4.274  0.00  0.00    +0.013 C 
ATOM     35  C   LIG    1        1.168  -2.606   3.390  0.00  0.00    +0.013 C 
ATOM     36  C   LIG    1        1.201  -4.752   2.266  0.00  0.00    +0.013 C 
ENDBRANCH  16  33
BRANCH  29  37
ATOM     37  C   LIG    1        2.219  -0.129   0.895  0.00  0.00    +0.234 C 
ATOM     38  O   LIG    1        1.836   0.247   2.024  0.00  0.00    -0.274 OA
ATOM     39  N   LIG    1        3.546   0.047   0.481  0.00  0.00    -0.299 N 
ATOM     40  H   LIG    1        3.783  -0.298  -0.487  0.00  0.00    +0.150 HD
BRANCH  39  41
ATOM     41  C   LIG    1        4.592   0.653   1.262  0.00  0.00    +0.119 C 
ATOM     42  C   LIG    1        4.525   0.445   2.748  0.00  0.00    +0.046 C 
ATOM     43  C   LIG    1        4.197   1.801   2.139  0.00  0.00    +0.046 C 
BRANCH  41  44
ATOM     44  C   LIG    1        5.937   0.753   0.645  0.00  0.00    +0.256 C 
ATOM     45  O   LIG    1        6.850   1.309   1.327  0.00  0.00    -0.272 OA
ATOM     46  N   LIG    1        6.232   0.269  -0.629  0.00  0.00    -0.188 N 
ATOM     47  H   LIG    1        5.534  -0.190  -1.226  0.00  0.00    +0.176 HD
BRANCH  46  48
ATOM     48  S   LIG    1        7.826   0.425  -1.271  0.00  0.00    +0.048 S 
ATOM     49  O   LIG    1        8.802  -0.145  -0.276  0.00  0.00    -0.155 OA
ATOM     50  O   LIG    1        8.142   1.870  -1.531  0.00  0.00    -0.155 OA
BRANCH  48  51
ATOM     51  C   LIG    1        8.005  -0.526  -2.772  0.00  0.00    +0.151 C 
ATOM     52  C   LIG    1        9.181  -0.063  -3.646  0.00  0.00    +0.030 C 
ATOM     53  C   LIG    1        7.777   0.223  -4.059  0.00  0.00    +0.030 C 
ENDBRANCH  48  51
ENDBRANCH  46  48
ENDBRANCH  41  44
BRANCH  43  54
ATOM     54  C   LIG    1        5.211   2.846   2.520  0.00  0.00    -0.028 C 
ATOM     55  C   LIG    1        5.043   4.120   2.179  0.00  0.00    +0.004 C 
ENDBRANCH  43  54
ENDBRANCH  39  41
ENDBRANCH  29  37
BRANCH   7  56
ATOM     56  O   LIG    1       -5.404   7.179   1.316  0.00  0.00    -0.495 OA
ATOM     57  C   LIG    1       -6.430   8.078   0.940  0.00  0.00    +0.277 C 
ENDBRANCH   7  56
TORSDOF 8
