REMARK  Name = molecules/OBZHEBDUNPOCJG-WBXJDKIVSA-N.pdb
REMARK                            x       y       z     vdW  Elec       q    Type
REMARK                         _______ _______ _______ _____ _____    ______ ____
ROOT
ATOM      1  C   LIG    1       -0.152   1.393   1.828  0.00  0.00    +0.013 C 
ATOM      2  C   LIG    1       -0.596   0.666   0.577  0.00  0.00    -0.013 C 
ATOM      3  C   LIG    1       -2.057   0.536   0.604  0.00  0.00    -0.004 C 
ATOM      4  C   LIG    1       -2.707   1.116   1.899  0.00  0.00    +0.012 C 
ATOM      5  C   LIG    1       -4.207   1.161   1.729  0.00  0.00    +0.008 C 
ATOM      6  C   LIG    1       -4.851  -0.112   1.357  0.00  0.00    -0.025 C 
ATOM      7  C   LIG    1       -4.956  -0.905   2.690  0.00  0.00    +0.012 C 
ATOM      8  C   LIG    1       -6.292   0.159   1.014  0.00  0.00    +0.008 C 
ATOM      9  C   LIG    1       -6.444   0.669  -0.365  0.00  0.00    +0.018 C 
ATOM     10  C   LIG    1       -5.902  -0.323  -1.317  0.00  0.00    +0.065 C 
ATOM     11  C   LIG    1       -4.596  -0.941  -1.032  0.00  0.00    +0.026 C 
ATOM     12  C   LIG    1       -5.837   0.382  -2.687  0.00  0.00    +0.023 C 
ATOM     13  C   LIG    1       -4.133  -0.974   0.372  0.00  0.00    +0.023 C 
ATOM     14  C   LIG    1       -2.671  -0.795   0.575  0.00  0.00    -0.056 C 
ATOM     15  C   LIG    1       -1.947  -1.864   0.762  0.00  0.00    +0.046 C 
ATOM     16  C   LIG    1       -0.518  -1.716   1.002  0.00  0.00    +0.160 C 
ATOM     17  O   LIG    1        0.023  -2.550   1.773  0.00  0.00    -0.292 OA
ATOM     18  C   LIG    1       -2.599   1.489  -0.446  0.00  0.00    +0.016 C 
ATOM     19  C   LIG    1        0.118  -0.605   0.308  0.00  0.00    +0.073 C 
ATOM     20  C   LIG    1        1.623  -0.589   0.434  0.00  0.00    -0.018 C 
ATOM     21  C   LIG    1        2.164  -0.666   1.792  0.00  0.00    +0.012 C 
ATOM     22  C   LIG    1        2.080  -1.893  -0.271  0.00  0.00    +0.011 C 
ATOM     23  C   LIG    1        3.587  -1.926  -0.381  0.00  0.00    +0.046 C 
ATOM     24  C   LIG    1        4.200  -0.742  -1.029  0.00  0.00    +0.182 C 
ATOM     25  C   LIG    1        3.582   0.584  -0.697  0.00  0.00    +0.006 C 
ATOM     26  C   LIG    1        4.346   1.254   0.380  0.00  0.00    +0.015 C 
ATOM     27  C   LIG    1        3.734   1.441  -1.971  0.00  0.00    +0.015 C 
ATOM     28  C   LIG    1        2.098   0.475  -0.492  0.00  0.00    +0.005 C 
ATOM     29  C   LIG    1        1.423   1.798  -0.388  0.00  0.00    +0.005 C 
ATOM     30  C   LIG    1       -0.082   1.601  -0.546  0.00  0.00    +0.008 C 
ENDROOT
BRANCH  10  31
ATOM     31  C   LIG    1       -6.970  -1.376  -1.507  0.00  0.00    +0.311 C 
ATOM     32  O   LIG    1       -6.735  -2.591  -1.428  0.00  0.00    -0.250 OA
BRANCH  31  33
ATOM     33  O   LIG    1       -8.246  -0.866  -1.780  0.00  0.00    -0.480 OA
ATOM     34  H   LIG    1       -9.034  -1.424  -2.030  0.00  0.00    +0.295 HD
ENDBRANCH  31  33
ENDBRANCH  10  31
BRANCH  24  35
ATOM     35  O   LIG    1        5.554  -0.676  -0.619  0.00  0.00    -0.461 OA
BRANCH  35  36
ATOM     36  C   LIG    1        6.609  -0.814  -1.501  0.00  0.00    +0.308 C 
ATOM     37  O   LIG    1        6.349  -1.007  -2.710  0.00  0.00    -0.251 OA
BRANCH  36  38
ATOM     38  C   LIG    1        8.027  -0.745  -1.075  0.00  0.00    +0.132 C 
BRANCH  38  39
ATOM     39  C   LIG    1        8.131  -0.477   0.418  0.00  0.00    +0.131 C 
BRANCH  39  40
ATOM     40  C   LIG    1        9.577  -0.424   0.754  0.00  0.00    +0.305 C 
ATOM     41  O   LIG    1       10.267  -1.465   0.857  0.00  0.00    -0.251 OA
BRANCH  40  42
ATOM     42  O   LIG    1       10.231   0.797   0.972  0.00  0.00    -0.481 OA
ATOM     43  H   LIG    1       10.491   1.348   0.165  0.00  0.00    +0.295 HD
ENDBRANCH  40  42
ENDBRANCH  39  40
ENDBRANCH  38  39
ENDBRANCH  36  38
ENDBRANCH  35  36
ENDBRANCH  24  35
TORSDOF 8
