REMARK  Name = molecules/OCAXFDULERPAJM-BQJUDKOJSA-N.pdb
REMARK                            x       y       z     vdW  Elec       q    Type
REMARK                         _______ _______ _______ _____ _____    ______ ____
ROOT
ATOM      1  C   LIG    1       -1.328  -0.488  -0.302  0.00  0.00    +0.179 C 
ENDROOT
BRANCH   1   4
ATOM      2  C   LIG    1       -3.215   1.028  -3.244  0.00  0.00    +0.020 A 
ATOM      3  C   LIG    1       -2.493   0.179  -2.448  0.00  0.00    +0.008 A 
ATOM      4  C   LIG    1       -2.132   0.487  -1.155  0.00  0.00    -0.014 A 
ATOM      5  C   LIG    1       -2.511   1.692  -0.645  0.00  0.00    +0.008 A 
ATOM      6  C   LIG    1       -3.248   2.576  -1.438  0.00  0.00    +0.020 A 
ATOM      7  C   LIG    1       -3.600   2.249  -2.731  0.00  0.00    +0.041 A 
ATOM      8 CL   LIG    1       -4.524   3.373  -3.707  0.00  0.00    -0.084 Cl
ENDBRANCH   1   4
BRANCH   1   9
ATOM      9  C   LIG    1       -2.278  -1.043   0.693  0.00  0.00    -0.014 A 
ATOM     10  C   LIG    1       -1.773  -1.659   1.815  0.00  0.00    +0.006 A 
ATOM     11  C   LIG    1       -2.659  -2.175   2.738  0.00  0.00    +0.000 A 
ATOM     12  C   LIG    1       -4.024  -2.103   2.588  0.00  0.00    +0.000 A 
ATOM     13  C   LIG    1       -4.497  -1.478   1.448  0.00  0.00    +0.000 A 
ATOM     14  C   LIG    1       -3.649  -0.951   0.506  0.00  0.00    +0.006 A 
ENDBRANCH   1   9
BRANCH   1  15
ATOM     15  O   LIG    1       -0.350   0.207   0.319  0.00  0.00    -0.364 OA
BRANCH  15  16
ATOM     16  C   LIG    1        0.955  -0.079   0.012  0.00  0.00    +0.122 C 
ATOM     17  C   LIG    1        1.783  -0.530   1.188  0.00  0.00    +0.050 C 
ATOM     18  C   LIG    1        3.259  -0.480   0.775  0.00  0.00    +0.059 C 
ATOM     19  C   LIG    1        3.834   0.883   1.002  0.00  0.00    +0.020 C 
ATOM     20  C   LIG    1        4.134   1.365  -0.425  0.00  0.00    +0.020 C 
ATOM     21  C   LIG    1        3.019   0.605  -1.164  0.00  0.00    +0.059 C 
ATOM     22  N   LIG    1        3.291  -0.748  -0.652  0.00  0.00    -0.299 NA
ATOM     23  C   LIG    1        4.552  -1.230  -1.113  0.00  0.00    +0.105 C 
ATOM     24  C   LIG    1        1.673   1.067  -0.667  0.00  0.00    +0.050 C 
ENDBRANCH  15  16
ENDBRANCH   1  15
TORSDOF 4
