REMARK  Name = molecules/OCDYNPAUUKDNOR-UHFFFAOYSA-N.pdb
REMARK                            x       y       z     vdW  Elec       q    Type
REMARK                         _______ _______ _______ _____ _____    ______ ____
ROOT
ATOM      1  C   LIG    1        2.157  -0.866  -0.777  0.00  0.00    +0.035 C 
ENDROOT
BRANCH   1   2
ATOM      2  C   LIG    1        0.982  -0.225  -1.498  0.00  0.00    +0.086 C 
BRANCH   2   6
ATOM      3  N   LIG    1       -2.539   1.080  -0.499  0.00  0.00    -0.298 NA
ATOM      4  C   LIG    1       -1.778   0.092   0.172  0.00  0.00    +0.100 C 
ATOM      5  C   LIG    1       -0.318   0.387   0.365  0.00  0.00    +0.100 C 
ATOM      6  N   LIG    1        0.371   0.857  -0.786  0.00  0.00    -0.300 NA
ATOM      7  C   LIG    1       -0.470   1.604  -1.694  0.00  0.00    +0.100 C 
ATOM      8  C   LIG    1       -1.702   2.133  -0.979  0.00  0.00    +0.100 C 
BRANCH   3   9
ATOM      9  C   LIG    1       -3.313   0.568  -1.611  0.00  0.00    +0.103 C 
BRANCH   9  10
ATOM     10  C   LIG    1       -4.436  -0.329  -1.212  0.00  0.00    +0.124 C 
BRANCH  10  15
ATOM     11  C   LIG    1       -8.862   1.439   0.360  0.00  0.00    +0.133 C 
ATOM     12  N   LIG    1       -7.492   0.961   0.391  0.00  0.00    -0.287 N 
ATOM     13  C   LIG    1       -6.816   0.379   1.527  0.00  0.00    +0.128 C 
ATOM     14  C   LIG    1       -5.369   0.281   1.089  0.00  0.00    +0.128 C 
ATOM     15  N   LIG    1       -5.410   0.279  -0.369  0.00  0.00    -0.283 N 
ATOM     16  C   LIG    1       -6.601   0.992  -0.701  0.00  0.00    +0.305 C 
ATOM     17  O   LIG    1       -6.737   1.541  -1.847  0.00  0.00    -0.252 OA
ENDBRANCH  10  15
ENDBRANCH   9  10
ENDBRANCH   3   9
ENDBRANCH   2   6
ENDBRANCH   1   2
BRANCH   1  18
ATOM     18  C   LIG    1        3.244   0.161  -0.519  0.00  0.00    +0.112 C 
BRANCH  18  19
ATOM     19  N   LIG    1        4.373  -0.469   0.137  0.00  0.00    -0.298 N 
ATOM     20  C   LIG    1        4.562  -0.329   1.549  0.00  0.00    +0.049 A 
ATOM     21  C   LIG    1        3.675   0.441   2.299  0.00  0.00    +0.044 A 
ATOM     22  C   LIG    1        3.838   0.593   3.659  0.00  0.00    +0.043 A 
ATOM     23 CL   LIG    1        2.694   1.572   4.547  0.00  0.00    -0.083 Cl
ATOM     24  C   LIG    1        4.870   0.004   4.352  0.00  0.00    +0.021 A 
ATOM     25  C   LIG    1        5.747  -0.757   3.614  0.00  0.00    +0.018 A 
ATOM     26  C   LIG    1        5.585  -0.909   2.261  0.00  0.00    +0.034 A 
ATOM     27  S   LIG    1        6.778  -1.932   1.420  0.00  0.00    -0.086 S 
ATOM     28  C   LIG    1        6.333  -1.930  -0.292  0.00  0.00    +0.034 C 
ATOM     29  C   LIG    1        7.128  -2.631  -1.147  0.00  0.00    +0.013 C 
ATOM     30  C   LIG    1        6.893  -2.702  -2.503  0.00  0.00    -0.017 C 
ATOM     31  C   LIG    1        5.791  -2.013  -2.958  0.00  0.00    +0.047 C 
ATOM     32  C   LIG    1        4.992  -1.305  -2.086  0.00  0.00    +0.006 C 
ATOM     33  C   LIG    1        5.234  -1.238  -0.719  0.00  0.00    +0.044 C 
ENDBRANCH  18  19
ENDBRANCH   1  18
TORSDOF 7
