REMARK  Name = molecules/ODCUSWJXZDHLKV-UHFFFAOYSA-N.pdb
REMARK                            x       y       z     vdW  Elec       q    Type
REMARK                         _______ _______ _______ _____ _____    ______ ____
ROOT
ATOM      1  C   LIG    1        1.335  -0.614   1.020  0.00  0.00    +0.128 A 
ATOM      2  C   LIG    1        0.178  -1.077   1.627  0.00  0.00    +0.046 A 
ATOM      3  C   LIG    1       -1.066  -0.814   1.053  0.00  0.00    +0.009 A 
ATOM      4  C   LIG    1       -1.179  -0.097  -0.117  0.00  0.00    -0.030 A 
ATOM      5  C   LIG    1       -0.035   0.367  -0.727  0.00  0.00    +0.009 A 
ATOM      6  C   LIG    1        1.207   0.102  -0.150  0.00  0.00    +0.046 A 
ENDROOT
BRANCH   1   7
ATOM      7  O   LIG    1        2.572  -0.872   1.585  0.00  0.00    -0.456 OA
BRANCH   7   8
ATOM      8  C   LIG    1        3.697  -0.392   0.946  0.00  0.00    +0.129 A 
ATOM      9  C   LIG    1        4.226   0.866   1.222  0.00  0.00    +0.048 A 
ATOM     10  C   LIG    1        5.337   1.264   0.549  0.00  0.00    +0.036 A 
ATOM     11  C   LIG    1        5.959   0.474  -0.396  0.00  0.00    +0.126 A 
ATOM     12  C   LIG    1        5.414  -0.760  -0.647  0.00  0.00    +0.036 A 
ATOM     13  C   LIG    1        4.289  -1.223   0.003  0.00  0.00    +0.048 A 
BRANCH  11  14
ATOM     14  N   LIG    1        7.115   0.945  -1.066  0.00  0.00    +0.056 N 
ATOM     15  O   LIG    1        7.575   2.070  -0.808  0.00  0.00    -0.126 OA
ATOM     16  O   LIG    1        7.727   0.153  -2.004  0.00  0.00    -0.126 OA
ENDBRANCH  11  14
ENDBRANCH   7   8
ENDBRANCH   1   7
BRANCH   4  17
ATOM     17  C   LIG    1       -2.485   0.197  -0.752  0.00  0.00    +0.143 C 
BRANCH  17  18
ATOM     18  N   LIG    1       -3.622  -0.020   0.074  0.00  0.00    -0.293 N 
ATOM     19  C   LIG    1       -4.185   1.038   0.825  0.00  0.00    +0.249 C 
ATOM     20  O   LIG    1       -5.197   0.792   1.575  0.00  0.00    -0.273 OA
BRANCH  19  21
ATOM     21  C   LIG    1       -3.716   2.428   0.831  0.00  0.00    +0.256 C 
ATOM     22 CL   LIG    1       -2.047   2.478   1.400  0.00  0.00    -0.094 Cl
ATOM     23 CL   LIG    1       -3.919   3.226  -0.746  0.00  0.00    -0.094 Cl
ENDBRANCH  19  21
BRANCH  18  24
ATOM     24  C   LIG    1       -4.249  -1.328   0.175  0.00  0.00    +0.136 C 
BRANCH  24  25
ATOM     25  C   LIG    1       -5.340  -1.465  -0.897  0.00  0.00    +0.174 C 
BRANCH  25  26
ATOM     26  O   LIG    1       -4.824  -1.331  -2.171  0.00  0.00    -0.393 OA
ATOM     27  H   LIG    1       -4.831  -2.254  -2.574  0.00  0.00    +0.209 HD
ENDBRANCH  25  26
ENDBRANCH  24  25
ENDBRANCH  18  24
ENDBRANCH  17  18
ENDBRANCH   4  17
TORSDOF 9
