REMARK  Name = molecules/ODFHGIPNGIAMDK-NJBDSQKTSA-N.pdb
REMARK                            x       y       z     vdW  Elec       q    Type
REMARK                         _______ _______ _______ _____ _____    ______ ____
ROOT
ATOM      1  CA  LIG    1        3.732   0.276  -0.116  0.00  0.00    +0.201 C 
ATOM      2  C   LIG    1        3.413  -1.181   0.082  0.00  0.00    +0.042 C 
ATOM      3  S   LIG    1        2.009  -1.084   1.261  0.00  0.00    -0.127 S 
ATOM      4  C   LIG    1        1.940   0.748   1.355  0.00  0.00    +0.165 C 
ATOM      5  CA  LIG    1        0.633   1.353   0.923  0.00  0.00    +0.190 C 
ATOM      6  C   LIG    1        1.468   1.940  -0.162  0.00  0.00    +0.240 C 
ATOM      7  O   LIG    1        1.203   2.908  -0.947  0.00  0.00    -0.273 OA
ATOM      8  C   LIG    1        4.497  -1.952   0.754  0.00  0.00    +0.025 C 
ATOM      9  C   LIG    1        3.012  -1.792  -1.218  0.00  0.00    +0.025 C 
ATOM     10  N   LIG    1        2.533   1.042   0.066  0.00  0.00    -0.271 N 
ENDROOT
BRANCH   5  11
ATOM     11  N   LIG    1       -0.390   0.436   0.494  0.00  0.00    -0.300 N 
ATOM     12  C   LIG    1       -1.730   0.488   0.936  0.00  0.00    +0.246 C 
ATOM     13  O   LIG    1       -2.065   1.377   1.748  0.00  0.00    -0.273 OA
ATOM     14  H   LIG    1       -0.100  -0.304  -0.187  0.00  0.00    +0.150 HD
BRANCH  12  15
ATOM     15  C   LIG    1       -2.728  -0.481   0.457  0.00  0.00    +0.258 C 
BRANCH  15  16
ATOM     16  C   LIG    1       -3.898   0.155  -0.193  0.00  0.00    -0.012 A 
ATOM     17  C   LIG    1       -5.089   0.308   0.504  0.00  0.00    +0.006 A 
ATOM     18  C   LIG    1       -6.198   0.895  -0.070  0.00  0.00    +0.000 A 
ATOM     19  C   LIG    1       -6.163   1.354  -1.370  0.00  0.00    +0.000 A 
ATOM     20  C   LIG    1       -4.986   1.206  -2.069  0.00  0.00    +0.000 A 
ATOM     21  C   LIG    1       -3.884   0.619  -1.488  0.00  0.00    +0.006 A 
ENDBRANCH  15  16
BRANCH  15  22
ATOM     22  N   LIG    1       -2.141  -1.434  -0.487  0.00  0.00    -0.093 NA
ATOM     23  N   LIG    1       -2.965  -2.085  -1.164  0.00  0.00    -0.166 NA
ATOM     24  N   LIG    1       -3.613  -2.528  -2.137  0.00  0.00    +0.068 NA
ENDBRANCH  15  22
ENDBRANCH  12  15
ENDBRANCH   5  11
BRANCH   1  25
ATOM     25  C   LIG    1        4.782   0.781   0.757  0.00  0.00    +0.327 C 
ATOM     26  OXT LIG    1        4.541   1.761   1.507  0.00  0.00    -0.249 OA
BRANCH  25  27
ATOM     27  O   LIG    1        6.065   0.261   0.840  0.00  0.00    -0.479 OA
ATOM     28  H   LIG    1        6.372  -0.050   1.760  0.00  0.00    +0.295 HD
ENDBRANCH  25  27
ENDBRANCH   1  25
TORSDOF 6
