REMARK  Name = molecules/ODKYYBOHSVLGNU-OPNURDJNSA-N.pdb
REMARK                            x       y       z     vdW  Elec       q    Type
REMARK                         _______ _______ _______ _____ _____    ______ ____
ROOT
ATOM      1  C   LIG    1       -1.361  -0.542   0.143  0.00  0.00    -0.007 A 
ATOM      2  C   LIG    1       -0.408  -1.451   0.507  0.00  0.00    +0.010 A 
ATOM      3  C   LIG    1        0.945  -1.135   0.516  0.00  0.00    +0.010 A 
ATOM      4  C   LIG    1        1.334   0.118   0.150  0.00  0.00    -0.007 A 
ATOM      5  C   LIG    1        0.400   1.067  -0.225  0.00  0.00    +0.010 A 
ATOM      6  C   LIG    1       -0.940   0.717  -0.222  0.00  0.00    +0.010 A 
ENDROOT
BRANCH   1   8
ATOM      7  N   LIG    1       -3.643  -0.020  -0.205  0.00  0.00    -0.276 NA
ATOM      8  C   LIG    1       -2.756  -0.913   0.149  0.00  0.00    +0.113 C 
BRANCH   7   9
ATOM      9  C   LIG    1       -5.047  -0.360  -0.210  0.00  0.00    +0.220 C 
ATOM     10  C   LIG    1       -5.731   0.541   0.746  0.00  0.00    +0.262 C 
ATOM     11  O   LIG    1       -5.869   0.456   1.984  0.00  0.00    -0.271 OA
ATOM     12  N   LIG    1       -6.246   1.601  -0.042  0.00  0.00    -0.193 N 
ATOM     13  H   LIG    1       -6.823   2.409   0.264  0.00  0.00    +0.183 HD
ATOM     14  O   LIG    1       -5.867   1.423  -1.343  0.00  0.00    -0.277 OA
ATOM     15  C   LIG    1       -5.719   0.069  -1.521  0.00  0.00    +0.226 C 
ENDBRANCH   7   9
ENDBRANCH   1   8
BRANCH   4  16
ATOM     16  C   LIG    1        2.736   0.519   0.136  0.00  0.00    +0.113 C 
ATOM     17  N   LIG    1        3.616  -0.338   0.478  0.00  0.00    -0.276 NA
BRANCH  17  18
ATOM     18  C   LIG    1        5.030  -0.100   0.516  0.00  0.00    +0.220 C 
ATOM     19  C   LIG    1        5.789  -1.263  -0.014  0.00  0.00    +0.262 C 
ATOM     20  O   LIG    1        5.583  -2.481   0.286  0.00  0.00    -0.271 OA
ATOM     21  N   LIG    1        6.753  -0.710  -0.895  0.00  0.00    -0.193 N 
ATOM     22  O   LIG    1        6.673   0.616  -0.970  0.00  0.00    -0.277 OA
ATOM     23  H   LIG    1        7.437  -1.288  -1.416  0.00  0.00    +0.183 HD
ATOM     24  C   LIG    1        5.460   1.001  -0.421  0.00  0.00    +0.226 C 
ENDBRANCH  17  18
ENDBRANCH   4  16
TORSDOF 4
