REMARK  Name = molecules/ODQWQRRAPPTVAG-UHFFFAOYSA-N.pdb
REMARK                            x       y       z     vdW  Elec       q    Type
REMARK                         _______ _______ _______ _____ _____    ______ ____
ROOT
ATOM      1  C   LIG    1        0.439  -0.681  -0.686  0.00  0.00    -0.017 C 
ATOM      2  C   LIG    1       -0.784  -0.504  -0.301  0.00  0.00    -0.011 C 
ATOM      3  C   LIG    1       -1.228   0.784   0.215  0.00  0.00    -0.011 A 
ATOM      4  C   LIG    1       -0.292   1.331   1.073  0.00  0.00    +0.009 A 
ATOM      5  C   LIG    1       -0.501   2.551   1.648  0.00  0.00    +0.001 A 
ATOM      6  C   LIG    1       -1.660   3.272   1.387  0.00  0.00    +0.000 A 
ATOM      7  C   LIG    1       -2.588   2.727   0.540  0.00  0.00    +0.007 A 
ATOM      8  C   LIG    1       -2.386   1.483  -0.053  0.00  0.00    -0.003 A 
ATOM      9  C   LIG    1       -3.514   1.057  -0.899  0.00  0.00    +0.265 C 
ATOM     10  O   LIG    1       -3.808  -0.315  -0.879  0.00  0.00    -0.487 OA
ATOM     11  C   LIG    1       -3.113  -1.503  -0.769  0.00  0.00    +0.129 A 
ATOM     12  C   LIG    1       -3.887  -2.625  -0.962  0.00  0.00    +0.046 A 
ATOM     13  C   LIG    1       -3.306  -3.888  -0.875  0.00  0.00    +0.004 A 
ATOM     14  C   LIG    1       -1.960  -3.969  -0.594  0.00  0.00    +0.001 A 
ATOM     15  C   LIG    1       -1.189  -2.836  -0.401  0.00  0.00    +0.012 A 
ATOM     16  C   LIG    1       -1.754  -1.611  -0.488  0.00  0.00    +0.024 A 
ENDROOT
BRANCH   1  17
ATOM     17  C   LIG    1        1.619   0.174  -0.754  0.00  0.00    +0.043 C 
BRANCH  17  18
ATOM     18  C   LIG    1        2.812  -0.315   0.040  0.00  0.00    +0.088 C 
BRANCH  18  19
ATOM     19  N   LIG    1        3.930   0.561  -0.069  0.00  0.00    -0.308 NA
ATOM     20  C   LIG    1        3.746   1.813   0.575  0.00  0.00    +0.104 C 
ATOM     21  C   LIG    1        5.103  -0.097   0.457  0.00  0.00    +0.104 C 
ENDBRANCH  18  19
ENDBRANCH  17  18
ENDBRANCH   1  17
TORSDOF 3
