REMARK  Name = molecules/ODUOJXZPIYUATO-LJQANCHMSA-N.pdb
REMARK                            x       y       z     vdW  Elec       q    Type
REMARK                         _______ _______ _______ _____ _____    ______ ____
ROOT
ATOM      1  C   LIG    1       -1.489   0.084   1.444  0.00  0.00    +0.218 C 
ATOM      2  O   LIG    1       -2.414   0.128   2.274  0.00  0.00    -0.275 OA
ATOM      3  N   LIG    1       -0.268   0.614   1.531  0.00  0.00    -0.305 N 
ATOM      4  H   LIG    1       -0.541   1.232   2.720  0.00  0.00    +0.149 HD
ENDROOT
BRANCH   1   5
ATOM      5  C   LIG    1       -1.883  -0.691   0.193  0.00  0.00    +0.089 C 
BRANCH   5   6
ATOM      6  C   LIG    1       -1.234  -2.023   0.339  0.00  0.00    +0.090 C 
BRANCH   6   7
ATOM      7  S   LIG    1       -1.386  -3.065  -1.078  0.00  0.00    -0.088 S 
BRANCH   7   8
ATOM      8  C   LIG    1       -2.943  -3.836  -1.270  0.00  0.00    +0.186 C 
ATOM      9  C   LIG    1       -4.036  -3.922  -0.311  0.00  0.00    +0.099 C 
ATOM     10  O   LIG    1       -3.120  -4.388  -2.405  0.00  0.00    -0.286 OA
ENDBRANCH   7   8
ENDBRANCH   6   7
ENDBRANCH   5   6
BRANCH   5  11
ATOM     11  C   LIG    1       -3.329  -0.762  -0.059  0.00  0.00    +0.048 C 
BRANCH  11  12
ATOM     12  C   LIG    1       -3.966   0.578  -0.234  0.00  0.00    -0.047 A 
ATOM     13  C   LIG    1       -4.685   1.155   0.774  0.00  0.00    +0.003 A 
ATOM     14  C   LIG    1       -5.266   2.412   0.530  0.00  0.00    +0.000 A 
ATOM     15  C   LIG    1       -5.138   3.055  -0.655  0.00  0.00    +0.000 A 
ATOM     16  C   LIG    1       -4.407   2.464  -1.675  0.00  0.00    +0.000 A 
ATOM     17  C   LIG    1       -3.830   1.224  -1.443  0.00  0.00    +0.003 A 
ENDBRANCH  11  12
ENDBRANCH   5  11
ENDBRANCH   1   5
BRANCH   3  18
ATOM     18  C   LIG    1        1.030   1.178   1.624  0.00  0.00    +0.224 C 
BRANCH  18  19
ATOM     19  C   LIG    1        1.830   0.695   0.438  0.00  0.00    +0.325 C 
ATOM     20  O   LIG    1        1.251   0.191  -0.512  0.00  0.00    -0.249 OA
BRANCH  19  21
ATOM     21  O   LIG    1        3.211   0.810   0.420  0.00  0.00    -0.459 OA
BRANCH  21  22
ATOM     22  C   LIG    1        3.910   0.316  -0.745  0.00  0.00    +0.267 C 
BRANCH  22  23
ATOM     23  C   LIG    1        5.374   0.467  -0.549  0.00  0.00    -0.010 A 
ATOM     24  C   LIG    1        5.846   0.709   0.718  0.00  0.00    +0.007 A 
ATOM     25  C   LIG    1        7.190   0.842   0.970  0.00  0.00    +0.000 A 
ATOM     26  C   LIG    1        8.108   0.732  -0.078  0.00  0.00    +0.000 A 
ATOM     27  C   LIG    1        7.606   0.488  -1.355  0.00  0.00    +0.000 A 
ATOM     28  C   LIG    1        6.265   0.357  -1.594  0.00  0.00    +0.007 A 
ENDBRANCH  22  23
ENDBRANCH  21  22
ENDBRANCH  19  21
ENDBRANCH  18  19
ENDBRANCH   3  18
TORSDOF 11
