REMARK  Name = molecules/OEBPANQZQGQPHF-UHFFFAOYSA-N.pdb
REMARK                            x       y       z     vdW  Elec       q    Type
REMARK                         _______ _______ _______ _____ _____    ______ ____
ROOT
ATOM      1  N   LIG    1        0.380   0.904   0.682  0.00  0.00    -0.299 NA
ENDROOT
BRANCH   1   2
ATOM      2  C   LIG    1       -0.112   0.680  -0.595  0.00  0.00    +0.103 C 
BRANCH   2   3
ATOM      3  C   LIG    1       -1.336  -0.140  -0.782  0.00  0.00    +0.118 C 
BRANCH   3   4
ATOM      4  N   LIG    1       -2.541   0.369  -0.191  0.00  0.00    -0.329 N 
ATOM      5  H   LIG    1       -2.523   1.277   0.306  0.00  0.00    +0.147 HD
BRANCH   4   6
ATOM      6  C   LIG    1       -3.754  -0.354  -0.290  0.00  0.00    +0.108 A 
ATOM      7  N   LIG    1       -4.875   0.145   0.254  0.00  0.00    -0.285 N 
ATOM      8  C   LIG    1       -4.831   1.423   0.943  0.00  0.00    +0.155 C 
ATOM      9  C   LIG    1       -6.040  -0.543   0.158  0.00  0.00    +0.333 A 
ATOM     10  O   LIG    1       -7.090  -0.047   0.684  0.00  0.00    -0.246 OA
ATOM     11  N   LIG    1       -6.147  -1.728  -0.467  0.00  0.00    -0.264 N 
ATOM     12  C   LIG    1       -7.436  -2.432  -0.545  0.00  0.00    +0.157 C 
ATOM     13  C   LIG    1       -5.042  -2.257  -1.023  0.00  0.00    +0.258 A 
ATOM     14  O   LIG    1       -5.137  -3.365  -1.609  0.00  0.00    -0.267 OA
ATOM     15  C   LIG    1       -3.838  -1.568  -0.935  0.00  0.00    +0.112 A 
ENDBRANCH   4   6
ENDBRANCH   3   4
ENDBRANCH   2   3
ENDBRANCH   1   2
BRANCH   1  16
ATOM     16  C   LIG    1        0.139   2.051   1.431  0.00  0.00    +0.112 C 
BRANCH  16  17
ATOM     17  C   LIG    1        0.771   3.337   0.942  0.00  0.00    +0.171 C 
BRANCH  17  18
ATOM     18  O   LIG    1        0.360   3.703  -0.330  0.00  0.00    -0.394 OA
ATOM     19  H   LIG    1        0.371   4.690  -0.381  0.00  0.00    +0.209 HD
ENDBRANCH  17  18
ENDBRANCH  16  17
ENDBRANCH   1  16
BRANCH   1  20
ATOM     20  C   LIG    1        0.922  -0.219   1.387  0.00  0.00    +0.085 C 
BRANCH  20  21
ATOM     21  C   LIG    1        2.196  -0.725   0.743  0.00  0.00    +0.020 C 
BRANCH  21  22
ATOM     22  C   LIG    1        3.200   0.385   0.736  0.00  0.00    +0.036 C 
BRANCH  22  23
ATOM     23  C   LIG    1        4.440  -0.144   0.102  0.00  0.00    -0.047 A 
ATOM     24  C   LIG    1        5.452  -0.730   0.840  0.00  0.00    +0.006 A 
ATOM     25  C   LIG    1        6.599  -1.214   0.224  0.00  0.00    +0.033 A 
ATOM     26  C   LIG    1        6.772  -1.129  -1.141  0.00  0.00    +0.126 A 
ATOM     27  C   LIG    1        5.749  -0.538  -1.869  0.00  0.00    +0.033 A 
ATOM     28  C   LIG    1        4.607  -0.057  -1.253  0.00  0.00    +0.006 A 
BRANCH  26  29
ATOM     29  N   LIG    1        7.943  -1.625  -1.772  0.00  0.00    +0.056 N 
ATOM     30  O   LIG    1        8.913  -2.197  -0.992  0.00  0.00    -0.126 OA
ATOM     31  O   LIG    1        8.143  -1.571  -2.994  0.00  0.00    -0.126 OA
ENDBRANCH  26  29
ENDBRANCH  22  23
ENDBRANCH  21  22
ENDBRANCH  20  21
ENDBRANCH   1  20
TORSDOF 12
