REMARK  Name = molecules/OEGDFSLNGABBKJ-UHFFFAOYSA-N.pdb
REMARK                            x       y       z     vdW  Elec       q    Type
REMARK                         _______ _______ _______ _____ _____    ______ ____
ROOT
ATOM      1  C   LIG    1       -0.472   1.523   1.079  0.00  0.00    +0.131 A 
ATOM      2  C   LIG    1       -1.186   2.689   1.300  0.00  0.00    +0.046 A 
ATOM      3  C   LIG    1       -0.589   3.943   1.257  0.00  0.00    +0.004 A 
ATOM      4  C   LIG    1        0.754   4.046   0.987  0.00  0.00    +0.001 A 
ATOM      5  C   LIG    1        1.470   2.872   0.765  0.00  0.00    +0.015 A 
ATOM      6  C   LIG    1        0.907   1.632   0.803  0.00  0.00    +0.059 A 
ENDROOT
BRANCH   6   7
ATOM      7  C   LIG    1        1.654   0.399   0.583  0.00  0.00    +0.167 C 
ATOM      8  O   LIG    1        1.091  -0.723   0.645  0.00  0.00    -0.292 OA
BRANCH   7   9
ATOM      9  C   LIG    1        3.114   0.412   0.277  0.00  0.00    +0.084 C 
BRANCH   9  10
ATOM     10  C   LIG    1        3.635  -1.015   0.149  0.00  0.00    +0.043 C 
BRANCH  10  11
ATOM     11  C   LIG    1        5.070  -1.047  -0.160  0.00  0.00    -0.047 A 
ATOM     12  C   LIG    1        6.069  -1.058   0.771  0.00  0.00    +0.003 A 
ATOM     13  C   LIG    1        7.399  -1.093   0.436  0.00  0.00    +0.000 A 
ATOM     14  C   LIG    1        7.768  -1.120  -0.916  0.00  0.00    +0.000 A 
ATOM     15  C   LIG    1        6.763  -1.109  -1.856  0.00  0.00    +0.000 A 
ATOM     16  C   LIG    1        5.438  -1.074  -1.503  0.00  0.00    +0.003 A 
ENDBRANCH  10  11
ENDBRANCH   9  10
ENDBRANCH   7   9
ENDBRANCH   6   7
BRANCH   1  17
ATOM     17  O   LIG    1       -1.010   0.291   1.112  0.00  0.00    -0.490 OA
BRANCH  17  18
ATOM     18  C   LIG    1       -2.249  -0.259   1.314  0.00  0.00    +0.244 C 
BRANCH  18  19
ATOM     19  C   LIG    1       -3.224   0.138   0.262  0.00  0.00    +0.125 C 
BRANCH  19  20
ATOM     20  N   LIG    1       -4.543  -0.434   0.454  0.00  0.00    -0.300 NA
BRANCH  20  21
ATOM     21  C   LIG    1       -4.545  -1.848   0.642  0.00  0.00    +0.081 C 
ATOM     22  C   LIG    1       -5.996  -2.276   0.834  0.00  0.00    +0.020 C 
ENDBRANCH  20  21
BRANCH  20  23
ATOM     23  C   LIG    1       -5.434   0.011  -0.597  0.00  0.00    +0.081 C 
ATOM     24  C   LIG    1       -5.101  -0.527  -1.948  0.00  0.00    +0.020 C 
ENDBRANCH  20  23
ENDBRANCH  19  20
ENDBRANCH  18  19
ENDBRANCH  17  18
ENDBRANCH   1  17
TORSDOF 10
