REMARK  Name = molecules/OEHAYUOVELTAPG-SECBINFHSA-N.pdb
REMARK                            x       y       z     vdW  Elec       q    Type
REMARK                         _______ _______ _______ _____ _____    ______ ____
ROOT
ATOM      1  C   LIG    1       -0.707  -0.639   0.628  0.00  0.00    -0.004 A 
ATOM      2  C   LIG    1       -0.992  -1.979   0.567  0.00  0.00    +0.007 A 
ATOM      3  C   LIG    1       -2.152  -2.467   0.012  0.00  0.00    +0.000 A 
ATOM      4  C   LIG    1       -3.102  -1.610  -0.522  0.00  0.00    +0.004 A 
ATOM      5  C   LIG    1       -2.816  -0.261  -0.460  0.00  0.00    +0.046 A 
ATOM      6  C   LIG    1       -1.668   0.242   0.087  0.00  0.00    +0.123 A 
ENDROOT
BRANCH   6   7
ATOM      7  O   LIG    1       -1.381   1.607   0.145  0.00  0.00    -0.495 OA
ATOM      8  C   LIG    1       -2.328   2.514  -0.384  0.00  0.00    +0.277 C 
ENDBRANCH   6   7
BRANCH   1   9
ATOM      9  C   LIG    1        0.523  -0.055   1.221  0.00  0.00    +0.057 C 
BRANCH   9  10
ATOM     10  C   LIG    1        1.518   0.353   0.135  0.00  0.00    +0.055 C 
ATOM     11  C   LIG    1        2.546   1.240   0.724  0.00  0.00    +0.024 C 
BRANCH  10  12
ATOM     12  N   LIG    1        1.930  -0.770  -0.619  0.00  0.00    -0.316 NA
ATOM     13  H   LIG    1        1.853  -1.696  -0.106  0.00  0.00    +0.122 HD
ATOM     14  C   LIG    1        3.273  -0.650  -1.121  0.00  0.00    +0.101 C 
ENDBRANCH  10  12
ENDBRANCH   9  10
ENDBRANCH   1   9
TORSDOF 4
