REMARK  Name = molecules/OEKWJQXRCDYSHL-FNOIDJSQSA-N.pdb
REMARK                            x       y       z     vdW  Elec       q    Type
REMARK                         _______ _______ _______ _____ _____    ______ ____
ROOT
ATOM      1  C   LIG    1       -1.434  -1.282   0.123  0.00  0.00    +0.153 A 
ATOM      2  N   LIG    1       -1.408  -0.244   0.976  0.00  0.00    -0.205 NA
ATOM      3  C   LIG    1       -0.224   0.311   1.371  0.00  0.00    +0.192 A 
ATOM      4  N   LIG    1        0.949  -0.167   0.916  0.00  0.00    -0.201 NA
ATOM      5  C   LIG    1        0.986  -1.199   0.066  0.00  0.00    +0.185 A 
ATOM      6  N   LIG    1        2.001  -1.851  -0.524  0.00  0.00    -0.221 N 
ATOM      7  N   LIG    1        1.448  -2.792  -1.270  0.00  0.00    -0.063 NA
ATOM      8  N   LIG    1        0.114  -2.748  -1.164  0.00  0.00    -0.124 NA
ATOM      9  C   LIG    1       -0.223  -1.755  -0.329  0.00  0.00    +0.171 A 
ENDROOT
BRANCH   6  10
ATOM     10  C   LIG    1        3.396  -1.575  -0.370  0.00  0.00    +0.145 C 
ATOM     11  C   LIG    1        3.663  -0.101  -0.230  0.00  0.00    +0.064 C 
ATOM     12  C   LIG    1        5.205  -0.099  -0.354  0.00  0.00    +0.151 C 
ATOM     13  C   LIG    1        5.490  -1.233  -1.318  0.00  0.00    +0.174 C 
ATOM     14  C   LIG    1        4.133  -1.855  -1.670  0.00  0.00    +0.170 C 
BRANCH  13  15
ATOM     15  O   LIG    1        6.206  -2.267  -0.707  0.00  0.00    -0.387 OA
ATOM     16  H   LIG    1        5.595  -2.945  -0.288  0.00  0.00    +0.210 HD
ENDBRANCH  13  15
BRANCH  14  17
ATOM     17  O   LIG    1        4.223  -3.209  -1.878  0.00  0.00    -0.387 OA
ATOM     18  H   LIG    1        3.553  -3.502  -2.555  0.00  0.00    +0.210 HD
ENDBRANCH  14  17
BRANCH  12  19
ATOM     19  O   LIG    1        5.657   1.104  -0.792  0.00  0.00    -0.372 OA
BRANCH  19  20
ATOM     20  C   LIG    1        6.493   1.729   0.078  0.00  0.00    +0.188 C 
BRANCH  20  21
ATOM     21  C   LIG    1        7.799   1.058   0.386  0.00  0.00    +0.184 C 
BRANCH  21  22
ATOM     22  O   LIG    1        7.739  -0.181   0.945  0.00  0.00    -0.393 OA
ATOM     23  H   LIG    1        8.350  -0.851   0.592  0.00  0.00    +0.209 HD
ENDBRANCH  21  22
ENDBRANCH  20  21
ENDBRANCH  19  20
ENDBRANCH  12  19
ENDBRANCH   6  10
BRANCH   1  24
ATOM     24  N   LIG    1       -2.675  -1.846  -0.278  0.00  0.00    -0.324 N 
ATOM     25  H   LIG    1       -2.667  -2.660  -0.950  0.00  0.00    +0.148 HD
BRANCH  24  26
ATOM     26  C   LIG    1       -3.946  -1.381   0.171  0.00  0.00    +0.080 C 
ATOM     27  C   LIG    1       -4.685  -2.366   1.075  0.00  0.00    +0.032 C 
ATOM     28  C   LIG    1       -5.214  -1.996  -0.274  0.00  0.00    +0.041 C 
BRANCH  28  29
ATOM     29  C   LIG    1       -6.401  -1.075  -0.235  0.00  0.00    -0.040 A 
ATOM     30  C   LIG    1       -6.567  -0.144   0.753  0.00  0.00    +0.007 A 
ATOM     31  C   LIG    1       -7.640   0.719   0.824  0.00  0.00    +0.041 A 
ATOM     32  C   LIG    1       -8.606   0.629  -0.176  0.00  0.00    +0.158 A 
ATOM     33  F   LIG    1       -9.675   1.484  -0.112  0.00  0.00    -0.202 F 
ATOM     34  C   LIG    1       -8.471  -0.295  -1.185  0.00  0.00    +0.159 A 
ATOM     35  F   LIG    1       -9.427  -0.361  -2.146  0.00  0.00    -0.202 F 
ATOM     36  C   LIG    1       -7.378  -1.141  -1.216  0.00  0.00    +0.045 A 
ENDBRANCH  28  29
ENDBRANCH  24  26
ENDBRANCH   1  24
BRANCH   3  37
ATOM     37  S   LIG    1       -0.170   1.691   2.501  0.00  0.00    -0.086 S 
BRANCH  37  38
ATOM     38  C   LIG    1       -0.228   3.270   1.613  0.00  0.00    +0.077 C 
BRANCH  38  39
ATOM     39  C   LIG    1       -1.580   3.405   0.943  0.00  0.00    +0.008 C 
ATOM     40  C   LIG    1       -1.621   4.716   0.209  0.00  0.00    +0.004 C 
ENDBRANCH  38  39
ENDBRANCH  37  38
ENDBRANCH   3  37
TORSDOF 13
