REMARK  Name = molecules/OELFLUMRDSZNSF-BRWVUGGUSA-N.pdb
REMARK                            x       y       z     vdW  Elec       q    Type
REMARK                         _______ _______ _______ _____ _____    ______ ____
ROOT
ATOM      1  C   UNK A  0        0.181  -0.334  -0.821  0.00  0.00    +0.217 C 
ATOM      2  N   PHE A  1        1.078  -0.193   0.263  0.00  0.00    -0.302 N 
ATOM      3  H   PHE A  1        0.782  -0.286   1.259  0.00  0.00    +0.150 HD
ATOM      4  O   UNK A  0        0.556  -0.220  -1.993  0.00  0.00    -0.275 OA
ENDROOT
BRANCH   1   5
ATOM      5  C   UNK A  0       -1.240  -0.626  -0.537  0.00  0.00    +0.075 C 
ATOM      6  C   UNK A  0       -1.788   0.484   0.292  0.00  0.00    +0.013 C 
ATOM      7  C   UNK A  0       -3.266   0.452   0.510  0.00  0.00    +0.004 C 
ATOM      8  C   UNK A  0       -3.944   0.205  -0.802  0.00  0.00    -0.008 C 
ATOM      9  C   UNK A  0       -3.482  -1.121  -1.334  0.00  0.00    +0.004 C 
ATOM     10  C   UNK A  0       -2.030  -0.914  -1.787  0.00  0.00    +0.013 C 
BRANCH   8  11
ATOM     11  C   UNK A  0       -5.433   0.320  -0.676  0.00  0.00    -0.014 C 
ATOM     12  C   UNK A  0       -5.971  -0.602   0.397  0.00  0.00    +0.007 C 
ATOM     13  C   UNK A  0       -5.727   1.743  -0.198  0.00  0.00    +0.007 C 
ENDBRANCH   8  11
ENDBRANCH   1   5
BRANCH   2  14
ATOM     14  CA  PHE A  1        2.500   0.096   0.072  0.00  0.00    +0.186 C 
BRANCH  14  15
ATOM     15  C   PHE A  1        2.781   1.376   0.719  0.00  0.00    +0.326 C 
ATOM     16  OXT PHE A  1        1.888   1.972   1.363  0.00  0.00    -0.249 OA
BRANCH  15  17
ATOM     17  O   PHE A  1        4.027   1.955   0.635  0.00  0.00    -0.479 OA
ATOM     18  H   PHE A  1        4.313   2.702   1.250  0.00  0.00    +0.295 HD
ENDBRANCH  15  17
ENDBRANCH  14  15
BRANCH  14  19
ATOM     19  CB  PHE A  1        3.360  -0.996   0.584  0.00  0.00    +0.069 C 
BRANCH  19  20
ATOM     20  CG  PHE A  1        4.785  -0.684   0.385  0.00  0.00    -0.045 A 
ATOM     21  CD2 PHE A  1        5.596  -0.104   1.336  0.00  0.00    +0.004 A 
ATOM     22  CE2 PHE A  1        6.929   0.171   1.084  0.00  0.00    +0.000 A 
ATOM     23  CZ  PHE A  1        7.511  -0.121  -0.131  0.00  0.00    +0.000 A 
ATOM     24  CE1 PHE A  1        6.708  -0.701  -1.091  0.00  0.00    +0.000 A 
ATOM     25  CD1 PHE A  1        5.373  -0.975  -0.833  0.00  0.00    +0.004 A 
ENDBRANCH  19  20
ENDBRANCH  14  19
ENDBRANCH   2  14
TORSDOF 7
