REMARK  Name = molecules/OEYIOHPDSNJKLS-UHFFFAOYSA-N.pdb
REMARK                            x       y       z     vdW  Elec       q    Type
REMARK                         _______ _______ _______ _____ _____    ______ ____
ROOT
ATOM      1  C   LIG    1       -0.606   1.153  -0.613  0.00  0.00    -0.093 C 
ATOM      2  N   LIG    1       -0.500  -0.102   0.083  0.00  0.00    +0.376 N 
ATOM      3  C   LIG    1       -1.079   0.131   1.415  0.00  0.00    -0.093 C 
ATOM      4  C   LIG    1       -1.476  -0.986  -0.576  0.00  0.00    -0.093 C 
ENDROOT
BRANCH   2   5
ATOM      5  C   LIG    1        0.742  -0.718   0.154  0.00  0.00    -0.048 C 
BRANCH   5   6
ATOM      6  C   LIG    1        1.974   0.104   0.022  0.00  0.00    +0.138 C 
BRANCH   6   7
ATOM      7  O   LIG    1        2.119   0.792  -1.147  0.00  0.00    -0.397 OA
ATOM      8  H   LIG    1        3.053   0.905  -1.450  0.00  0.00    +0.209 HD
ENDBRANCH   6   7
ENDBRANCH   5   6
ENDBRANCH   2   5
TORSDOF 3
