REMARK  Name = molecules/OEYIOHPDSNJKLS-BJUDXGSMSA-N.pdb
REMARK                            x       y       z     vdW  Elec       q    Type
REMARK                         _______ _______ _______ _____ _____    ______ ____
ROOT
ATOM      1  C   LIG    1       -1.125  -0.500   1.179  0.00  0.00    -0.093 C 
ATOM      2  N   LIG    1       -0.493  -0.198  -0.105  0.00  0.00    +0.376 N 
ATOM      3  C   LIG    1       -0.944   1.127  -0.479  0.00  0.00    -0.093 C 
ATOM      4  C   LIG    1       -0.987  -1.097  -1.151  0.00  0.00    -0.093 C 
ENDROOT
BRANCH   2   5
ATOM      5  C   LIG    1        0.927  -0.334  -0.064  0.00  0.00    -0.048 C 
BRANCH   5   6
ATOM      6  C   LIG    1        1.637   0.823   0.590  0.00  0.00    +0.138 C 
BRANCH   6   7
ATOM      7  O   LIG    1        2.993   0.562   0.562  0.00  0.00    -0.397 OA
ATOM      8  H   LIG    1        3.230  -0.289   0.109  0.00  0.00    +0.209 HD
ENDBRANCH   6   7
ENDBRANCH   5   6
ENDBRANCH   2   5
TORSDOF 3
