REMARK  Name = molecules/OFCNXPDARWKPPY-UHFFFAOYSA-N.pdb
REMARK                            x       y       z     vdW  Elec       q    Type
REMARK                         _______ _______ _______ _____ _____    ______ ____
ROOT
ATOM      1  C   LIG    1        0.330  -1.779  -0.073  0.00  0.00    +0.149 A 
ATOM      2  C   LIG    1        0.133  -0.452   0.173  0.00  0.00    +0.100 A 
ATOM      3  C   LIG    1        0.069   0.351   1.280  0.00  0.00    +0.226 A 
ATOM      4  N   LIG    1       -0.147   1.675   1.185  0.00  0.00    -0.201 NA
ATOM      5  C   LIG    1       -0.309   2.265  -0.013  0.00  0.00    +0.227 A 
ATOM      6  N   LIG    1       -0.247   1.487  -1.095  0.00  0.00    -0.216 NA
ATOM      7  C   LIG    1       -0.033   0.155  -1.054  0.00  0.00    +0.162 A 
ATOM      8  N   LIG    1        0.063  -0.793  -2.014  0.00  0.00    -0.260 N 
ATOM      9  H   LIG    1       -0.025  -0.605  -3.036  0.00  0.00    +0.191 HD
ATOM     10  N   LIG    1        0.281  -1.956  -1.420  0.00  0.00    -0.180 NA
ENDROOT
BRANCH   3  11
ATOM     11  O   LIG    1        0.230  -0.219   2.527  0.00  0.00    -0.492 OA
ATOM     12  H   LIG    1       -0.358  -0.918   2.916  0.00  0.00    +0.294 HD
ENDBRANCH   3  11
TORSDOF 1
