REMARK  Name = molecules/OFPXSFXSNFPTHF-UHFFFAOYSA-N.pdb
REMARK                            x       y       z     vdW  Elec       q    Type
REMARK                         _______ _______ _______ _____ _____    ______ ____
ROOT
ATOM      1  C   LIG    1        2.062  -0.429  -0.076  0.00  0.00    +0.197 A 
ATOM      2  N   LIG    1        1.153  -1.404   0.053  0.00  0.00    -0.213 NA
ATOM      3  C   LIG    1       -0.108  -0.878   0.017  0.00  0.00    +0.117 A 
ATOM      4  C   LIG    1        0.093   0.476  -0.141  0.00  0.00    +0.163 A 
ATOM      5  O   LIG    1        1.407   0.701  -0.192  0.00  0.00    -0.439 OA
ENDROOT
BRANCH   3   6
ATOM      6  C   LIG    1       -1.338  -1.647   0.126  0.00  0.00    +0.004 A 
ATOM      7  C   LIG    1       -1.695  -2.174   1.347  0.00  0.00    +0.010 A 
ATOM      8  C   LIG    1       -2.849  -2.920   1.518  0.00  0.00    +0.001 A 
ATOM      9  C   LIG    1       -3.639  -3.121   0.414  0.00  0.00    +0.000 A 
ATOM     10  C   LIG    1       -3.331  -2.616  -0.838  0.00  0.00    +0.001 A 
ATOM     11  C   LIG    1       -2.157  -1.872  -0.957  0.00  0.00    +0.010 A 
ENDBRANCH   3   6
BRANCH   4  12
ATOM     12  C   LIG    1       -0.953   1.485  -0.236  0.00  0.00    +0.019 A 
ATOM     13  C   LIG    1       -1.110   2.433   0.776  0.00  0.00    +0.011 A 
ATOM     14  C   LIG    1       -2.091   3.403   0.729  0.00  0.00    +0.001 A 
ATOM     15  C   LIG    1       -2.952   3.456  -0.342  0.00  0.00    +0.000 A 
ATOM     16  C   LIG    1       -2.827   2.545  -1.349  0.00  0.00    +0.001 A 
ATOM     17  C   LIG    1       -1.837   1.578  -1.284  0.00  0.00    +0.011 A 
ENDBRANCH   4  12
BRANCH   1  18
ATOM     18  C   LIG    1        3.527  -0.683  -0.075  0.00  0.00    +0.107 C 
BRANCH  18  19
ATOM     19  C   LIG    1        4.302   0.601  -0.236  0.00  0.00    +0.130 C 
BRANCH  19  20
ATOM     20  C   LIG    1        5.735   0.263  -0.225  0.00  0.00    +0.305 C 
ATOM     21  O   LIG    1        6.262  -0.207  -1.250  0.00  0.00    -0.251 OA
BRANCH  20  22
ATOM     22  O   LIG    1        6.484   0.465   0.908  0.00  0.00    -0.481 OA
ATOM     23  H   LIG    1        6.428  -0.150   1.732  0.00  0.00    +0.295 HD
ENDBRANCH  20  22
ENDBRANCH  19  20
ENDBRANCH  18  19
ENDBRANCH   1  18
TORSDOF 6
