REMARK  Name = molecules/OFSAUHSCHWRZKM-UHFFFAOYSA-N.pdb
REMARK                            x       y       z     vdW  Elec       q    Type
REMARK                         _______ _______ _______ _____ _____    ______ ____
ROOT
ATOM      1  C   LIG    1        0.880   0.285  -0.483  0.00  0.00    +0.059 A 
ATOM      2  C   LIG    1        1.458  -0.949  -0.321  0.00  0.00    +0.017 A 
ATOM      3  C   LIG    1        2.842  -1.058  -0.307  0.00  0.00    +0.024 A 
ATOM      4  C   LIG    1        3.663   0.046  -0.453  0.00  0.00    +0.029 A 
ATOM      5  C   LIG    1        3.047   1.270  -0.614  0.00  0.00    +0.024 A 
ATOM      6  C   LIG    1        1.665   1.393  -0.630  0.00  0.00    +0.017 A 
ENDROOT
BRANCH   4   7
ATOM      7  N   LIG    1        5.064  -0.100  -0.435  0.00  0.00    -0.336 N 
ATOM      8  C   LIG    1        5.654  -1.410  -0.263  0.00  0.00    +0.129 C 
ATOM      9  C   LIG    1        5.880   1.089  -0.591  0.00  0.00    +0.129 C 
ENDBRANCH   4   7
BRANCH   1  10
ATOM     10  C   LIG    1       -0.584   0.358  -0.492  0.00  0.00    +0.339 C 
ATOM     11  O   LIG    1       -1.068   1.512  -0.644  0.00  0.00    -0.245 OA
BRANCH  10  12
ATOM     12  O   LIG    1       -1.365  -0.770  -0.343  0.00  0.00    -0.461 OA
BRANCH  12  13
ATOM     13  C   LIG    1       -2.761  -0.673  -0.348  0.00  0.00    +0.233 C 
BRANCH  13  14
ATOM     14  C   LIG    1       -3.239   0.137   0.789  0.00  0.00    +0.044 C 
BRANCH  14  15
ATOM     15  C   LIG    1       -4.723   0.305   0.883  0.00  0.00    -0.014 C 
ATOM     16  C   LIG    1       -5.389  -1.036   1.131  0.00  0.00    +0.007 C 
ATOM     17  C   LIG    1       -5.372   0.957  -0.271  0.00  0.00    +0.007 C 
ENDBRANCH  14  15
ENDBRANCH  13  14
ENDBRANCH  12  13
ENDBRANCH  10  12
ENDBRANCH   1  10
TORSDOF 6
