REMARK  Name = molecules/OFVXPDXXVSGEPX-UHFFFAOYSA-N.pdb
REMARK                            x       y       z     vdW  Elec       q    Type
REMARK                         _______ _______ _______ _____ _____    ______ ____
ROOT
ATOM      1  N   LIG    1       -2.000  -1.108  -0.378  0.00  0.00    -0.269 N 
ATOM      2  C   LIG    1       -1.095  -1.008   0.739  0.00  0.00    +0.046 A 
ATOM      3  C   LIG    1       -1.693  -1.177   1.968  0.00  0.00    +0.025 A 
ATOM      4  C   LIG    1       -0.877  -1.181   3.079  0.00  0.00    +0.022 A 
ATOM      5  C   LIG    1        0.489  -1.029   3.000  0.00  0.00    +0.042 A 
ATOM      6 CL   LIG    1        1.516  -1.032   4.448  0.00  0.00    -0.084 Cl
ATOM      7  C   LIG    1        1.055  -0.864   1.756  0.00  0.00    +0.032 A 
ATOM      8  C   LIG    1        0.281  -0.845   0.603  0.00  0.00    +0.023 A 
ATOM      9  C   LIG    1        1.062  -0.635  -0.592  0.00  0.00    +0.078 C 
ATOM     10  N   LIG    1        0.782  -1.253  -1.722  0.00  0.00    -0.273 NA
ATOM     11  C   LIG    1       -0.269  -2.199  -2.053  0.00  0.00    +0.238 C 
ATOM     12  C   LIG    1       -1.624  -1.711  -1.650  0.00  0.00    +0.241 C 
ATOM     13  O   LIG    1       -2.532  -1.820  -2.461  0.00  0.00    -0.273 OA
ENDROOT
BRANCH   9  14
ATOM     14  C   LIG    1        2.193   0.238  -0.524  0.00  0.00    +0.036 A 
ATOM     15  C   LIG    1        2.463   1.161   0.443  0.00  0.00    +0.013 A 
ATOM     16  C   LIG    1        3.516   2.075   0.380  0.00  0.00    +0.001 A 
ATOM     17  C   LIG    1        4.336   2.057  -0.721  0.00  0.00    +0.003 A 
ATOM     18  C   LIG    1        4.114   1.153  -1.730  0.00  0.00    +0.039 A 
ATOM     19  C   LIG    1        3.076   0.279  -1.626  0.00  0.00    +0.133 A 
ATOM     20  F   LIG    1        2.874  -0.609  -2.641  0.00  0.00    -0.205 F 
ENDBRANCH   9  14
BRANCH   1  21
ATOM     21  C   LIG    1       -3.298  -0.611  -0.191  0.00  0.00    +0.117 C 
BRANCH  21  22
ATOM     22  C   LIG    1       -3.270   0.867  -0.649  0.00  0.00    +0.007 C 
ATOM     23  C   LIG    1       -2.321   1.811   0.064  0.00  0.00    +0.005 C 
ATOM     24  C   LIG    1       -2.103   1.417  -1.352  0.00  0.00    +0.005 C 
ENDBRANCH  21  22
ENDBRANCH   1  21
TORSDOF 3
