REMARK  Name = molecules/OFZJKCQENFPZBH-UHFFFAOYSA-N.pdb
REMARK                            x       y       z     vdW  Elec       q    Type
REMARK                         _______ _______ _______ _____ _____    ______ ____
ROOT
ATOM      1  C   LIG    1        0.300  -1.550   0.226  0.00  0.00    +0.167 A 
ATOM      2  S   LIG    1       -0.882  -0.349   0.450  0.00  0.00    -0.037 S 
ATOM      3  C   LIG    1       -2.298  -1.323   0.162  0.00  0.00    +0.098 A 
ATOM      4  C   LIG    1       -1.736  -2.529  -0.091  0.00  0.00    +0.108 A 
ATOM      5  N   LIG    1       -0.416  -2.603  -0.048  0.00  0.00    -0.222 NA
ENDROOT
BRANCH   3   6
ATOM      6  N   LIG    1       -3.654  -0.870   0.230  0.00  0.00    -0.320 N 
ATOM      7  C   LIG    1       -4.594  -1.171   1.258  0.00  0.00    +0.121 C 
ATOM      8  C   LIG    1       -5.996  -0.840   0.726  0.00  0.00    +0.103 C 
ATOM      9  N   LIG    1       -6.114   0.524   0.373  0.00  0.00    -0.296 NA
ATOM     10  C   LIG    1       -4.992   1.109  -0.246  0.00  0.00    +0.103 C 
ATOM     11  C   LIG    1       -4.070   0.028  -0.835  0.00  0.00    +0.121 C 
BRANCH   9  12
ATOM     12  C   LIG    1       -6.861   1.364   1.238  0.00  0.00    +0.057 C 
ATOM     13  C   LIG    1       -8.340   0.974   1.285  0.00  0.00    +0.019 C 
ATOM     14  C   LIG    1       -8.855   0.978  -0.128  0.00  0.00    +0.002 C 
ATOM     15  C   LIG    1       -8.417   2.218  -0.830  0.00  0.00    +0.000 C 
ATOM     16  C   LIG    1       -7.904   3.315   0.045  0.00  0.00    +0.002 C 
ATOM     17  C   LIG    1       -6.793   2.818   0.945  0.00  0.00    +0.019 C 
ENDBRANCH   9  12
ENDBRANCH   3   6
BRANCH   4  18
ATOM     18  C   LIG    1       -2.500  -3.764  -0.457  0.00  0.00    +0.041 A 
ATOM     19  S   LIG    1       -1.931  -5.355  -0.609  0.00  0.00    -0.094 S 
ATOM     20  C   LIG    1       -3.369  -6.134  -1.075  0.00  0.00    +0.065 A 
ATOM     21  C   LIG    1       -4.276  -5.100  -1.097  0.00  0.00    +0.049 A 
ATOM     22 CL   LIG    1       -5.977  -5.429  -1.539  0.00  0.00    -0.083 Cl
ATOM     23  C   LIG    1       -3.821  -3.875  -0.778  0.00  0.00    +0.037 A 
ENDBRANCH   4  18
BRANCH   1  26
ATOM     24  C   LIG    1        2.277  -0.138   0.497  0.00  0.00    +0.251 C 
ATOM     25  O   LIG    1        1.576   0.888   0.656  0.00  0.00    -0.270 OA
ATOM     26  N   LIG    1        1.734  -1.420   0.280  0.00  0.00    -0.261 N 
ATOM     27  H   LIG    1        2.308  -2.237   0.156  0.00  0.00    +0.157 HD
BRANCH  24  28
ATOM     28  C   LIG    1        3.722  -0.005   0.535  0.00  0.00    +0.057 A 
ATOM     29  C   LIG    1        4.534  -0.930   1.120  0.00  0.00    +0.126 A 
ATOM     30  N   LIG    1        5.856  -0.737   1.116  0.00  0.00    -0.238 NA
ATOM     31  C   LIG    1        6.412   0.355   0.543  0.00  0.00    +0.140 A 
ATOM     32  C   LIG    1        5.620   1.298  -0.052  0.00  0.00    +0.082 A 
ATOM     33 CL   LIG    1        6.343   2.716  -0.803  0.00  0.00    -0.080 Cl
ATOM     34  C   LIG    1        4.260   1.110  -0.052  0.00  0.00    +0.038 A 
BRANCH  31  35
ATOM     35  N   LIG    1        7.822   0.439   0.595  0.00  0.00    -0.314 N 
ATOM     36  C   LIG    1        8.423   1.596   1.212  0.00  0.00    +0.107 C 
ATOM     37  C   LIG    1        9.618   1.995   0.362  0.00  0.00    +0.033 C 
ATOM     38  C   LIG    1       10.589   0.819   0.426  0.00  0.00    +0.101 C 
ATOM     39  C   LIG    1        9.988  -0.357  -0.303  0.00  0.00    +0.033 C 
ATOM     40  C   LIG    1        8.576  -0.657   0.023  0.00  0.00    +0.107 C 
BRANCH  38  41
ATOM     41  C   LIG    1       11.831   1.217  -0.238  0.00  0.00    +0.308 C 
ATOM     42  O   LIG    1       12.903   1.223   0.380  0.00  0.00    -0.251 OA
BRANCH  41  43
ATOM     43  O   LIG    1       11.798   1.589  -1.567  0.00  0.00    -0.480 OA
ATOM     44  H   LIG    1       11.330   2.472  -1.791  0.00  0.00    +0.295 HD
ENDBRANCH  41  43
ENDBRANCH  38  41
ENDBRANCH  31  35
ENDBRANCH  24  28
ENDBRANCH   1  26
TORSDOF 8
