REMARK  Name = molecules/OGAKLTJNUQRZJU-UHFFFAOYSA-N.pdb
REMARK                            x       y       z     vdW  Elec       q    Type
REMARK                         _______ _______ _______ _____ _____    ______ ____
ROOT
ATOM      1  C   LIG    1       -1.737   0.086   0.627  0.00  0.00    +0.116 C 
ENDROOT
BRANCH   1   2
ATOM      2  C   LIG    1       -2.825   1.094   0.589  0.00  0.00    -0.012 A 
ATOM      3  C   LIG    1       -2.639   2.286   1.252  0.00  0.00    +0.007 A 
ATOM      4  C   LIG    1       -3.586   3.280   1.282  0.00  0.00    +0.000 A 
ATOM      5  C   LIG    1       -4.772   3.078   0.619  0.00  0.00    +0.000 A 
ATOM      6  C   LIG    1       -5.002   1.897  -0.061  0.00  0.00    +0.000 A 
ATOM      7  C   LIG    1       -4.025   0.924  -0.066  0.00  0.00    +0.007 A 
ENDBRANCH   1   2
BRANCH   1   8
ATOM      8  C   LIG    1       -2.157  -1.214   0.083  0.00  0.00    -0.012 A 
ATOM      9  C   LIG    1       -2.928  -2.079   0.831  0.00  0.00    +0.007 A 
ATOM     10  C   LIG    1       -3.348  -3.311   0.352  0.00  0.00    +0.000 A 
ATOM     11  C   LIG    1       -2.981  -3.689  -0.922  0.00  0.00    +0.000 A 
ATOM     12  C   LIG    1       -2.217  -2.854  -1.690  0.00  0.00    +0.000 A 
ATOM     13  C   LIG    1       -1.804  -1.617  -1.190  0.00  0.00    +0.007 A 
ENDBRANCH   1   8
BRANCH   1  14
ATOM     14  O   LIG    1       -1.481  -0.127   2.003  0.00  0.00    -0.379 OA
ATOM     15  H   LIG    1       -2.349  -0.084   2.461  0.00  0.00    +0.211 HD
ENDBRANCH   1  14
BRANCH   1  16
ATOM     16  C   LIG    1       -0.524   0.680  -0.013  0.00  0.00    +0.046 C 
BRANCH  16  17
ATOM     17  C   LIG    1        0.697  -0.237   0.125  0.00  0.00    +0.019 C 
BRANCH  17  18
ATOM     18  C   LIG    1        1.835   0.451  -0.546  0.00  0.00    +0.084 C 
BRANCH  18  19
ATOM     19  N   LIG    1        3.078  -0.198  -0.564  0.00  0.00    -0.302 NA
ATOM     20  C   LIG    1        3.458  -1.055   0.469  0.00  0.00    +0.084 C 
ATOM     21  C   LIG    1        4.642  -0.640   1.287  0.00  0.00    +0.015 C 
ATOM     22  C   LIG    1        5.649   0.183   0.567  0.00  0.00    +0.002 C 
ATOM     23  C   LIG    1        4.906   1.299  -0.168  0.00  0.00    +0.015 C 
ATOM     24  C   LIG    1        4.068   0.572  -1.226  0.00  0.00    +0.084 C 
ENDBRANCH  18  19
ENDBRANCH  17  18
ENDBRANCH  16  17
ENDBRANCH   1  16
TORSDOF 7
