REMARK  Name = molecules/OGHNVEJMJSYVRP-QGZVFWFLSA-N.pdb
REMARK                            x       y       z     vdW  Elec       q    Type
REMARK                         _______ _______ _______ _____ _____    ______ ____
ROOT
ATOM      1  C   LIG    1       -0.812   0.374  -1.387  0.00  0.00    +0.166 C 
ENDROOT
BRANCH   1   2
ATOM      2  O   LIG    1       -0.971  -1.022  -1.448  0.00  0.00    -0.387 OA
ATOM      3  H   LIG    1       -1.946  -1.190  -1.605  0.00  0.00    +0.210 HD
ENDBRANCH   1   2
BRANCH   1   4
ATOM      4  C   LIG    1       -1.295   0.798  -0.044  0.00  0.00    +0.261 C 
BRANCH   4   5
ATOM      5  O   LIG    1       -2.619   0.500   0.144  0.00  0.00    -0.489 OA
BRANCH   5   6
ATOM      6  C   LIG    1       -3.716   1.004  -0.479  0.00  0.00    +0.130 A 
ATOM      7  C   LIG    1       -4.946   0.442  -0.068  0.00  0.00    +0.049 A 
ATOM      8  C   LIG    1       -5.192  -0.542   0.868  0.00  0.00    +0.011 A 
ATOM      9  C   LIG    1       -4.395  -1.305   1.704  0.00  0.00    +0.011 A 
ATOM     10  C   LIG    1       -4.926  -2.242   2.562  0.00  0.00    +0.001 A 
ATOM     11  C   LIG    1       -6.298  -2.390   2.551  0.00  0.00    +0.002 A 
ATOM     12  C   LIG    1       -7.107  -1.643   1.728  0.00  0.00    +0.026 A 
ATOM     13  C   LIG    1       -6.579  -0.700   0.865  0.00  0.00    +0.048 A 
ATOM     14  N   LIG    1       -7.111   0.154  -0.031  0.00  0.00    -0.354 N 
ATOM     15  H   LIG    1       -8.116   0.274  -0.263  0.00  0.00    +0.166 HD
ATOM     16  C   LIG    1       -6.124   0.871  -0.622  0.00  0.00    +0.051 A 
ATOM     17  C   LIG    1       -6.111   1.858  -1.587  0.00  0.00    +0.026 A 
ATOM     18  C   LIG    1       -4.919   2.410  -1.990  0.00  0.00    +0.006 A 
ATOM     19  C   LIG    1       -3.714   1.998  -1.450  0.00  0.00    +0.046 A 
ENDBRANCH   5   6
ENDBRANCH   4   5
ENDBRANCH   1   4
BRANCH   1  20
ATOM     20  C   LIG    1        0.597   0.813  -1.681  0.00  0.00    +0.115 C 
BRANCH  20  21
ATOM     21  N   LIG    1        1.599   0.320  -0.814  0.00  0.00    -0.310 NA
ATOM     22  H   LIG    1        1.721   0.790   0.086  0.00  0.00    +0.122 HD
BRANCH  21  23
ATOM     23  C   LIG    1        1.891  -1.070  -0.860  0.00  0.00    +0.122 C 
BRANCH  23  24
ATOM     24  C   LIG    1        3.014  -1.308   0.162  0.00  0.00    +0.244 C 
BRANCH  24  25
ATOM     25  O   LIG    1        4.113  -0.536  -0.217  0.00  0.00    -0.487 OA
BRANCH  25  26
ATOM     26  C   LIG    1        5.307  -0.501   0.471  0.00  0.00    +0.162 A 
ATOM     27  C   LIG    1        5.552  -1.228   1.617  0.00  0.00    +0.049 A 
ATOM     28  C   LIG    1        6.748  -1.180   2.289  0.00  0.00    +0.004 A 
ATOM     29  C   LIG    1        7.762  -0.385   1.828  0.00  0.00    +0.004 A 
ATOM     30  C   LIG    1        7.554   0.359   0.682  0.00  0.00    +0.049 A 
ATOM     31  C   LIG    1        6.356   0.304   0.017  0.00  0.00    +0.161 A 
BRANCH  31  32
ATOM     32  O   LIG    1        6.175   1.058  -1.124  0.00  0.00    -0.491 OA
ATOM     33  C   LIG    1        7.219   1.871  -1.591  0.00  0.00    +0.277 C 
ENDBRANCH  31  32
ENDBRANCH  25  26
ENDBRANCH  24  25
ENDBRANCH  23  24
ENDBRANCH  21  23
ENDBRANCH  20  21
ENDBRANCH   1  20
TORSDOF 11
