REMARK  Name = molecules/OGPWIDANBSLJPC-RFPWEZLHSA-N.pdb
REMARK                            x       y       z     vdW  Elec       q    Type
REMARK                         _______ _______ _______ _____ _____    ______ ____
ROOT
ATOM      1  F   LIG    1       -1.520   1.287  -1.066  0.00  0.00    -0.238 F 
ATOM      2  C   LIG    1       -1.352   0.629   0.162  0.00  0.00    +0.153 C 
ATOM      3  C   LIG    1       -0.574   1.555   1.017  0.00  0.00    +0.153 C 
ATOM      4  C   LIG    1        0.847   1.774   0.655  0.00  0.00    +0.042 C 
ATOM      5  C   LIG    1        1.605   0.509   0.260  0.00  0.00    -0.017 C 
ATOM      6  C   LIG    1        1.788  -0.363   1.441  0.00  0.00    +0.012 C 
ATOM      7  C   LIG    1        2.835   0.801  -0.496  0.00  0.00    +0.067 C 
ATOM      8  C   LIG    1        2.772  -0.047  -1.757  0.00  0.00    -0.003 C 
ATOM      9  C   LIG    1        1.605  -1.005  -1.514  0.00  0.00    +0.008 C 
ATOM     10  C   LIG    1        2.349   0.839  -2.906  0.00  0.00    +0.008 C 
ATOM     11  C   LIG    1        0.713  -0.092  -0.807  0.00  0.00    +0.002 C 
ATOM     12  C   LIG    1       -2.718   0.295   0.653  0.00  0.00    +0.047 C 
ATOM     13  C   LIG    1       -2.711  -0.049   2.167  0.00  0.00    +0.023 C 
ATOM     14  C   LIG    1       -3.645   1.412   0.561  0.00  0.00    -0.009 C 
ATOM     15  C   LIG    1       -4.829   1.451  -0.007  0.00  0.00    +0.047 C 
ATOM     16  C   LIG    1       -5.335   0.252  -0.649  0.00  0.00    +0.179 C 
ATOM     17  C   LIG    1       -4.432  -0.905  -0.592  0.00  0.00    +0.054 C 
ATOM     18  O   LIG    1       -6.454   0.197  -1.212  0.00  0.00    -0.288 OA
ATOM     19  C   LIG    1       -3.273  -0.895  -0.022  0.00  0.00    -0.020 C 
ATOM     20  C   LIG    1       -2.376  -2.129  -0.082  0.00  0.00    +0.194 C 
ATOM     21  F   LIG    1       -3.029  -3.202  -0.564  0.00  0.00    -0.241 F 
ATOM     22  C   LIG    1       -1.219  -1.652  -0.931  0.00  0.00    +0.048 C 
ATOM     23  C   LIG    1       -0.510  -0.591  -0.137  0.00  0.00    +0.036 C 
ENDROOT
BRANCH   3  24
ATOM     24  O   LIG    1       -0.734   1.368   2.393  0.00  0.00    -0.389 OA
ATOM     25  H   LIG    1       -0.083   1.848   2.924  0.00  0.00    +0.210 HD
ENDBRANCH   3  24
BRANCH   7  26
ATOM     26  C   LIG    1        4.061   0.630   0.247  0.00  0.00    +0.162 C 
ATOM     27  O   LIG    1        4.666   1.693   0.555  0.00  0.00    -0.295 OA
BRANCH  26  28
ATOM     28  C   LIG    1        4.754  -0.572   0.725  0.00  0.00    +0.230 C 
BRANCH  28  29
ATOM     29  O   LIG    1        4.205  -1.780   0.432  0.00  0.00    -0.388 OA
ATOM     30  H   LIG    1        4.787  -2.399  -0.064  0.00  0.00    +0.210 HD
ENDBRANCH  28  29
ENDBRANCH  26  28
ENDBRANCH   7  26
TORSDOF 4
