REMARK  Name = molecules/OGQICQVSFDPSEI-UHFFFAOYSA-N.pdb
REMARK                            x       y       z     vdW  Elec       q    Type
REMARK                         _______ _______ _______ _____ _____    ______ ____
ROOT
ATOM      1  C   LIG    1       -0.366   0.752  -0.559  0.00  0.00    -0.060 C 
ATOM      2  C   LIG    1        0.825   0.582  -0.493  0.00  0.00    -0.041 C 
ENDROOT
BRANCH   1  14
ATOM      3  C   LIG    1       -2.640   0.027  -0.041  0.00  0.00    +0.022 A 
ATOM      4  C   LIG    1       -4.006   0.188  -0.112  0.00  0.00    -0.027 A 
ATOM      5  C   LIG    1       -4.940  -0.789   0.536  0.00  0.00    -0.008 C 
ATOM      6  C   LIG    1       -5.642  -0.165   1.719  0.00  0.00    +0.016 C 
ATOM      7  C   LIG    1       -4.136  -1.965   1.065  0.00  0.00    +0.016 C 
ATOM      8  C   LIG    1       -5.917  -1.277  -0.481  0.00  0.00    +0.022 C 
ATOM      9  C   LIG    1       -7.030  -0.289  -0.747  0.00  0.00    +0.075 C 
ATOM     10  S   LIG    1       -6.373   1.415  -0.843  0.00  0.00    -0.125 S 
ATOM     11  C   LIG    1       -4.576   1.251  -0.780  0.00  0.00    +0.012 A 
ATOM     12  C   LIG    1       -3.732   2.142  -1.370  0.00  0.00    +0.016 A 
ATOM     13  C   LIG    1       -2.360   1.997  -1.310  0.00  0.00    +0.018 A 
ATOM     14  C   LIG    1       -1.795   0.933  -0.641  0.00  0.00    +0.026 A 
ENDBRANCH   1  14
BRANCH   2  15
ATOM     15  C   LIG    1        2.267   0.369  -0.395  0.00  0.00    +0.114 A 
ATOM     16  C   LIG    1        2.776  -0.873  -0.117  0.00  0.00    +0.038 A 
ATOM     17  C   LIG    1        4.131  -1.063  -0.027  0.00  0.00    +0.019 A 
ATOM     18  C   LIG    1        4.994  -0.013  -0.214  0.00  0.00    +0.077 A 
ATOM     19  C   LIG    1        4.421   1.207  -0.489  0.00  0.00    +0.127 A 
ATOM     20  N   LIG    1        3.107   1.396  -0.578  0.00  0.00    -0.246 NA
BRANCH  18  21
ATOM     21  C   LIG    1        6.449  -0.163  -0.128  0.00  0.00    +0.341 C 
ATOM     22  O   LIG    1        6.930  -1.294   0.125  0.00  0.00    -0.245 OA
BRANCH  21  23
ATOM     23  O   LIG    1        7.254   0.939  -0.328  0.00  0.00    -0.461 OA
BRANCH  23  24
ATOM     24  C   LIG    1        8.662   0.735  -0.233  0.00  0.00    +0.229 C 
ATOM     25  C   LIG    1        9.011   0.225   1.145  0.00  0.00    +0.048 C 
ENDBRANCH  23  24
ENDBRANCH  21  23
ENDBRANCH  18  21
ENDBRANCH   2  15
TORSDOF 5
