REMARK  Name = molecules/OGWAVGNOAMXIIM-VTAHJYCESA-N.pdb
REMARK                            x       y       z     vdW  Elec       q    Type
REMARK                         _______ _______ _______ _____ _____    ______ ____
ROOT
ATOM      1  N   LIG    1       41.124 -20.484   0.000  0.00  0.00    -0.130 NA
ATOM      2  C   LIG    1       40.661 -21.910   0.000  0.00  0.00    +0.186 C 
ENDROOT
BRANCH   2   3
ATOM      3  C   LIG    1       42.087 -22.374   0.000  0.00  0.00    +0.252 C 
ATOM      4  O   LIG    1       43.202 -21.370   0.000  0.00  0.00    -0.272 OA
ATOM      5  N   LIG    1       42.399 -23.841   0.000  0.00  0.00    -0.216 NA
BRANCH   5   6
ATOM      6  C   LIG    1       43.826 -24.305   0.000  0.00  0.00    +0.139 C 
ATOM      7  C   LIG    1       45.252 -24.768   0.000  0.00  0.00    +0.013 C 
ENDBRANCH   5   6
ENDBRANCH   2   3
BRANCH   2   8
ATOM      8  C   LIG    1       39.234 -21.447   0.000  0.00  0.00    +0.088 C 
BRANCH   8   9
ATOM      9  C   LIG    1       37.808 -20.983   0.000  0.00  0.00    +0.063 A 
ATOM     10  C   LIG    1       36.594 -21.865   0.000  0.00  0.00    +0.135 A 
ATOM     11  N   LIG    1       35.380 -20.983   0.000  0.00  0.00    -0.242 NA
ATOM     12  C   LIG    1       35.844 -19.557   0.000  0.00  0.00    +0.221 A 
ATOM     13  N   LIG    1       37.344 -19.557   0.000  0.00  0.00    -0.239 NA
ENDBRANCH   8   9
ENDBRANCH   2   8
TORSDOF 4
REMARK  Name = molecules/OGWAVGNOAMXIIM-VTAHJYCESA-N.pdb
REMARK                            x       y       z     vdW  Elec       q    Type
REMARK                         _______ _______ _______ _____ _____    ______ ____
ROOT
ATOM      1  C   LIG    1       50.111 -17.095   0.000  0.00  0.00    +0.193 C 
ENDROOT
BRANCH   1   2
ATOM      2  C   LIG    1       51.538 -17.558   0.000  0.00  0.00    +0.163 C 
ATOM      3  O   LIG    1       52.001 -16.132   0.000  0.00  0.00    -0.222 OA
ATOM      4  C   LIG    1       52.965 -18.022   0.000  0.00  0.00    +0.051 C 
ENDBRANCH   1   2
BRANCH   1   6
ATOM      5  C   LIG    1       50.651 -19.636   0.000  0.00  0.00    +0.078 C 
ATOM      6  N   LIG    1       49.648 -18.522   0.000  0.00  0.00    -0.272 NA
BRANCH   5   7
ATOM      7  C   LIG    1       50.188 -21.063   0.000  0.00  0.00    +0.187 C 
BRANCH   7  10
ATOM      8  C   LIG    1       48.257 -22.801   0.000  0.00  0.00    +0.253 C 
ATOM      9  O   LIG    1       47.397 -21.573   0.000  0.00  0.00    -0.272 OA
ATOM     10  N   LIG    1       49.724 -22.489   0.000  0.00  0.00    -0.210 NA
BRANCH   8  12
ATOM     11  N   LIG    1       46.367 -23.764   0.000  0.00  0.00    -0.130 NA
ATOM     12  C   LIG    1       47.794 -24.228   0.000  0.00  0.00    +0.184 C 
BRANCH  12  13
ATOM     13  C   LIG    1       47.330 -25.654   0.000  0.00  0.00    +0.034 C 
BRANCH  13  14
ATOM     14  C   LIG    1       46.867 -27.081   0.000  0.00  0.00    +0.131 C 
BRANCH  14  15
ATOM     15  C   LIG    1       46.403 -28.508   0.000  0.00  0.00    +0.356 C 
ATOM     16  O   LIG    1       44.936 -28.820   0.000  0.00  0.00    -0.246 OA
ATOM     17  O   LIG    1       47.407 -29.622   0.000  0.00  0.00    -0.246 OA
ENDBRANCH  14  15
ENDBRANCH  13  14
ENDBRANCH  12  13
ENDBRANCH   8  12
ENDBRANCH   7  10
ENDBRANCH   5   7
ENDBRANCH   1   6
BRANCH   1  18
ATOM     18  C   LIG    1       48.685 -16.631   0.000  0.00  0.00    +0.092 C 
ATOM     19  N   LIG    1       48.373 -15.164   0.000  0.00  0.00    -0.256 NA
BRANCH  19  20
ATOM     20  C   LIG    1       46.946 -14.701   0.000  0.00  0.00    +0.108 C 
ATOM     21  C   LIG    1       46.483 -16.127   0.000  0.00  0.00    +0.006 C 
BRANCH  21  22
ATOM     22  C   LIG    1       46.019 -17.554   0.000  0.00  0.00    +0.036 C 
BRANCH  22  23
ATOM     23  C   LIG    1       44.552 -17.866   0.000  0.00  0.00    -0.014 C 
ATOM     24  C   LIG    1       44.089 -19.292   0.000  0.00  0.00    -0.004 C 
BRANCH  24  25
ATOM     25  C   LIG    1       45.092 -20.407   0.000  0.00  0.00    -0.004 C 
ATOM     26  C   LIG    1       46.559 -20.095   0.000  0.00  0.00    -0.022 C 
ATOM     27  C   LIG    1       47.023 -18.669   0.000  0.00  0.00    +0.026 C 
ENDBRANCH  24  25
ENDBRANCH  22  23
ENDBRANCH  21  22
ENDBRANCH  19  20
ENDBRANCH   1  18
TORSDOF 13
REMARK  Name = molecules/OGWAVGNOAMXIIM-VTAHJYCESA-N.pdb
REMARK                            x       y       z     vdW  Elec       q    Type
REMARK                         _______ _______ _______ _____ _____    ______ ____
ROOT
ATOM      1  N   LIG    1       46.406 -12.159   0.000  0.00  0.00    -0.134 NA
ATOM      2  C   LIG    1       46.870 -10.733   0.000  0.00  0.00    +0.163 C 
ATOM      3  C   LIG    1       48.296 -11.196   0.000  0.00  0.00    +0.170 C 
ATOM      4  C   LIG    1       49.723 -11.660   0.000  0.00  0.00    +0.092 C 
ATOM      5  O   LIG    1       48.760  -9.770   0.000  0.00  0.00    -0.292 OA
ENDROOT
TORSDOF 0
REMARK  Name = molecules/OGWAVGNOAMXIIM-VTAHJYCESA-N.pdb
REMARK                            x       y       z     vdW  Elec       q    Type
REMARK                         _______ _______ _______ _____ _____    ______ ____
ROOT
ATOM      1  N   LIG    1       45.131  -8.802   0.000  0.00  0.00    -0.279 NA
ATOM      2  C   LIG    1       45.443 -10.269   0.000  0.00  0.00    +0.151 C 
ATOM      3  C   LIG    1       43.705  -8.339   0.000  0.00  0.00    +0.116 C 
ENDROOT
BRANCH   3   4
ATOM      4  C   LIG    1       43.241  -9.765   0.000  0.00  0.00    +0.234 C 
ATOM      5  O   LIG    1       42.778 -11.192   0.000  0.00  0.00    -0.222 OA
ENDBRANCH   3   4
TORSDOF 1
REMARK  Name = molecules/OGWAVGNOAMXIIM-VTAHJYCESA-N.pdb
REMARK                            x       y       z     vdW  Elec       q    Type
REMARK                         _______ _______ _______ _____ _____    ______ ____
ROOT
ATOM      1  N   LIG    1       43.164  -5.797   0.000  0.00  0.00    -0.138 NA
ATOM      2  C   LIG    1       43.628  -4.371   0.000  0.00  0.00    +0.117 C 
ATOM      3  C   LIG    1       45.054  -4.834   0.000  0.00  0.00    +0.036 C 
ENDROOT
BRANCH   3   4
ATOM      4  C   LIG    1       46.481  -5.298   0.000  0.00  0.00    +0.201 C 
ATOM      5  O   LIG    1       47.596  -4.294   0.000  0.00  0.00    -0.216 OA
ENDBRANCH   3   4
TORSDOF 1
REMARK  Name = molecules/OGWAVGNOAMXIIM-VTAHJYCESA-N.pdb
REMARK                            x       y       z     vdW  Elec       q    Type
REMARK                         _______ _______ _______ _____ _____    ______ ____
ROOT
ATOM      1  CA  LIG    1       40.386   1.992   0.000  0.00  0.00    +0.190 C 
ENDROOT
BRANCH   1   3
ATOM      2  C   ACE A  0       40.926  -0.550   0.000  0.00  0.00    +0.079 C 
ATOM      3  N   LIG    1       39.923   0.565   0.000  0.00  0.00    -0.272 NA
BRANCH   2   5
ATOM      4  N   LIG    1       41.889  -2.440   0.000  0.00  0.00    -0.133 NA
ATOM      5  C   LIG    1       40.463  -1.976   0.000  0.00  0.00    +0.147 C 
ATOM      6  C   LIG    1       39.999  -3.403   0.000  0.00  0.00    +0.026 C 
ENDBRANCH   2   5
ENDBRANCH   1   3
BRANCH   1   7
ATOM      7  C   LIG    1       38.960   2.455   0.000  0.00  0.00    +0.086 C 
ATOM      8  N   LIG    1       38.648   3.922   0.000  0.00  0.00    -0.277 NA
BRANCH   8   9
ATOM      9  CA  LIG    1       37.221   4.386   0.000  0.00  0.00    +0.148 C 
ATOM     10  CB  LIG    1       37.685   5.812   0.000  0.00  0.00    +0.022 C 
BRANCH   9  11
ATOM     11  C   LIG    1       36.758   2.959   0.000  0.00  0.00    +0.215 C 
ATOM     12  O   LIG    1       36.294   1.533   0.000  0.00  0.00    -0.226 OA
ENDBRANCH   9  11
ENDBRANCH   8   9
ENDBRANCH   1   7
BRANCH   1  13
ATOM     13  C   LIG    1       41.813   1.528   0.000  0.00  0.00    +0.221 C 
ATOM     14  O   LIG    1       43.239   1.064   0.000  0.00  0.00    -0.226 OA
ENDBRANCH   1  13
TORSDOF 6
REMARK  Name = molecules/OGWAVGNOAMXIIM-VTAHJYCESA-N.pdb
REMARK                            x       y       z     vdW  Elec       q    Type
REMARK                         _______ _______ _______ _____ _____    ______ ____
ROOT
ATOM      1  C   LIG    1       39.998   7.427   0.000  0.00  0.00    -0.020 C 
ATOM      2  C   LIG    1       41.112   8.430   0.000  0.00  0.00    -0.006 C 
ENDROOT
BRANCH   1   5
ATOM      3  N   LIG    1       36.681   6.927   0.000  0.00  0.00    -0.138 NA
ATOM      4  C   LIG    1       37.145   8.354   0.000  0.00  0.00    +0.118 C 
ATOM      5  C   LIG    1       38.571   7.890   0.000  0.00  0.00    +0.027 C 
ENDBRANCH   1   5
BRANCH   2   6
ATOM      6  C   LIG    1       42.539   7.967   0.000  0.00  0.00    +0.097 C 
BRANCH   6   7
ATOM      7  C   LIG    1       42.851   6.500   0.000  0.00  0.00    +0.160 C 
ATOM      8  C   LIG    1       41.736   5.496   0.000  0.00  0.00    +0.024 C 
ATOM      9  C   LIG    1       40.310   5.959   0.000  0.00  0.00    +0.030 C 
ATOM     10  O   LIG    1       44.278   6.036   0.000  0.00  0.00    -0.292 OA
ENDBRANCH   6   7
ENDBRANCH   2   6
TORSDOF 3
REMARK  Name = molecules/OGWAVGNOAMXIIM-VTAHJYCESA-N.pdb
REMARK                            x       y       z     vdW  Elec       q    Type
REMARK                         _______ _______ _______ _____ _____    ______ ____
ROOT
ATOM      1  C   LIG    1       33.980  10.748   0.000  0.00  0.00    +0.088 C 
ATOM      2  C   LIG    1       33.516   9.321   0.000  0.00  0.00    -0.007 C 
ENDROOT
BRANCH   2   3
ATOM      3  C   LIG    1       33.053   7.895   0.000  0.00  0.00    +0.007 C 
ATOM      4  C   LIG    1       32.589   6.468   0.000  0.00  0.00    +0.011 C 
ATOM      5  C   LIG    1       31.626   8.358   0.000  0.00  0.00    +0.011 C 
ENDBRANCH   2   3
BRANCH   1   6
ATOM      6  N   LIG    1       35.406  10.284   0.000  0.00  0.00    -0.245 NA
ATOM      7  C   LIG    1       35.718   8.817   0.000  0.00  0.00    +0.135 C 
ENDBRANCH   1   6
TORSDOF 2
REMARK  Name = molecules/OGWAVGNOAMXIIM-VTAHJYCESA-N.pdb
REMARK                            x       y       z     vdW  Elec       q    Type
REMARK                         _______ _______ _______ _____ _____    ______ ____
ROOT
ATOM      1  N   LIG    1       33.439  13.289   0.000  0.00  0.00    -0.130 NA
ATOM      2  C   LIG    1       33.903  14.716   0.000  0.00  0.00    +0.182 C 
ENDROOT
BRANCH   2   3
ATOM      3  C   LIG    1       32.476  15.179   0.000  0.00  0.00    +0.204 C 
ATOM      4  N   LIG    1       32.164  16.646   0.000  0.00  0.00    -0.252 NA
ATOM      5  C   LIG    1       30.738  17.110   0.000  0.00  0.00    +0.168 C 
BRANCH   3   6
ATOM      6  O   LIG    1       31.362  14.176   0.000  0.00  0.00    -0.494 OA
ATOM      7  H   LIG    1       31.972  12.977   0.000  0.00  0.00    +0.293 HD
ENDBRANCH   3   6
ENDBRANCH   2   3
BRANCH   2   8
ATOM      8  C   LIG    1       35.330  14.252   0.000  0.00  0.00    +0.035 C 
BRANCH   8   9
ATOM      9  C   LIG    1       36.756  13.789   0.000  0.00  0.00    +0.131 C 
BRANCH   9  10
ATOM     10  C   LIG    1       38.183  13.325   0.000  0.00  0.00    +0.356 C 
ATOM     11  O   LIG    1       38.495  11.858   0.000  0.00  0.00    -0.246 OA
ATOM     12  O   LIG    1       39.297  14.329   0.000  0.00  0.00    -0.246 OA
ENDBRANCH   9  10
ENDBRANCH   8   9
ENDBRANCH   2   8
TORSDOF 5
REMARK  Name = molecules/OGWAVGNOAMXIIM-VTAHJYCESA-N.pdb
REMARK                            x       y       z     vdW  Elec       q    Type
REMARK                         _______ _______ _______ _____ _____    ______ ____
ROOT
ATOM      1  N   LIG    1       28.197  16.570   0.000  0.00  0.00    -0.137 NA
ATOM      2  C   LIG    1       26.770  17.033   0.000  0.00  0.00    +0.129 C 
ENDROOT
BRANCH   2   3
ATOM      3  C   LIG    1       26.306  15.607   0.000  0.00  0.00    +0.137 C 
BRANCH   3   4
ATOM      4  N   LIG    1       24.839  15.295   0.000  0.00  0.00    -0.282 NA
ATOM      5  C   LIG    1       24.376  13.868   0.000  0.00  0.00    +0.079 C 
ATOM      6  C   LIG    1       25.802  13.405   0.000  0.00  0.00    +0.052 C 
ENDBRANCH   3   4
ENDBRANCH   2   3
BRANCH   2   7
ATOM      7  C   LIG    1       27.233  18.460   0.000  0.00  0.00    +0.026 C 
BRANCH   7   8
ATOM      8  C   LIG    1       27.697  19.887   0.000  0.00  0.00    +0.105 C 
BRANCH   8   9
ATOM      9  C   LIG    1       28.161  21.313   0.000  0.00  0.00    +0.252 C 
ATOM     10  N   LIG    1       27.157  22.428   0.000  0.00  0.00    -0.088 NA
ATOM     11  O   LIG    1       29.628  21.625   0.000  0.00  0.00    -0.272 OA
ENDBRANCH   8   9
ENDBRANCH   7   8
ENDBRANCH   2   7
TORSDOF 5
REMARK  Name = molecules/OGWAVGNOAMXIIM-VTAHJYCESA-N.pdb
REMARK                            x       y       z     vdW  Elec       q    Type
REMARK                         _______ _______ _______ _____ _____    ______ ____
ROOT
ATOM      1  N   LIG    1       21.834  13.328   0.000  0.00  0.00    -0.138 NA
ATOM      2  C   LIG    1       20.408  13.792   0.000  0.00  0.00    +0.110 C 
ATOM      3  C   LIG    1       20.871  15.218   0.000  0.00  0.00    +0.028 C 
ENDROOT
TORSDOF 0
REMARK  Name = molecules/OGWAVGNOAMXIIM-VTAHJYCESA-N.pdb
REMARK                            x       y       z     vdW  Elec       q    Type
REMARK                         _______ _______ _______ _____ _____    ______ ____
ROOT
ATOM      1  C   LIG    1       18.014  10.627   0.000  0.00  0.00    +0.110 C 
ENDROOT
BRANCH   1   2
ATOM      2  N   LIG    1       18.477  12.053   0.000  0.00  0.00    -0.222 NA
ATOM      3  C   LIG    1       19.944  12.365   0.000  0.00  0.00    +0.107 C 
ENDBRANCH   1   2
BRANCH   1   4
ATOM      4  C   LIG    1       16.587  11.090   0.000  0.00  0.00    +0.136 C 
BRANCH   4   5
ATOM      5  N   LIG    1       15.472  10.086   0.000  0.00  0.00    -0.282 NA
ATOM      6  C   LIG    1       14.046  10.550   0.000  0.00  0.00    +0.083 C 
BRANCH   6   7
ATOM      7  C   LIG    1       14.509  11.977   0.000  0.00  0.00    +0.049 C 
BRANCH   7   8
ATOM      8  C   LIG    1       14.973  13.403   0.000  0.00  0.00    +0.134 C 
BRANCH   8   9
ATOM      9  C   LIG    1       15.436  14.830   0.000  0.00  0.00    +0.357 C 
ATOM     10  O   LIG    1       16.904  15.142   0.000  0.00  0.00    -0.246 OA
ATOM     11  O   LIG    1       14.432  15.944   0.000  0.00  0.00    -0.246 OA
ENDBRANCH   8   9
ENDBRANCH   7   8
ENDBRANCH   6   7
ENDBRANCH   4   5
ENDBRANCH   1   4
BRANCH   1  12
ATOM     12  C   LIG    1       19.440  10.163   0.000  0.00  0.00    +0.015 C 
BRANCH  12  13
ATOM     13  C   LIG    1       20.867   9.700   0.000  0.00  0.00    +0.007 C 
BRANCH  13  14
ATOM     14  C   LIG    1       22.293   9.236   0.000  0.00  0.00    +0.019 C 
BRANCH  14  15
ATOM     15  C   LIG    1       23.720   8.773   0.000  0.00  0.00    +0.124 C 
ATOM     16  N   LIG    1       25.146   8.309   0.000  0.00  0.00    -0.143 NA
ENDBRANCH  14  15
ENDBRANCH  13  14
ENDBRANCH  12  13
ENDBRANCH   1  12
TORSDOF 10
REMARK  Name = molecules/OGWAVGNOAMXIIM-VTAHJYCESA-N.pdb
REMARK                            x       y       z     vdW  Elec       q    Type
REMARK                         _______ _______ _______ _____ _____    ______ ____
ROOT
ATOM      1  C   LIG    1       10.225   7.848   0.000  0.00  0.00    +0.078 C 
ATOM      2  N   LIG    1        9.110   6.845   0.000  0.00  0.00    -0.279 NA
ENDROOT
BRANCH   1   3
ATOM      3  C   LIG    1       11.651   7.385   0.000  0.00  0.00    +0.132 C 
BRANCH   3   4
ATOM      4  N   LIG    1       12.115   8.812   0.000  0.00  0.00    -0.218 NA
ATOM      5  C   LIG    1       13.582   9.123   0.000  0.00  0.00    +0.107 C 
ENDBRANCH   3   4
BRANCH   3   6
ATOM      6  C   LIG    1       13.078   6.921   0.000  0.00  0.00    +0.053 C 
BRANCH   6   7
ATOM      7  C   LIG    1       14.505   6.458   0.000  0.00  0.00    -0.042 C 
ATOM      8  C   LIG    1       14.816   4.991   0.000  0.00  0.00    -0.014 C 
BRANCH   8   9
ATOM      9  C   LIG    1       16.243   4.527   0.000  0.00  0.00    +0.045 C 
BRANCH   9  10
ATOM     10  C   LIG    1       17.358   5.531   0.000  0.00  0.00    -0.018 C 
ATOM     11  C   LIG    1       17.046   6.998   0.000  0.00  0.00    -0.004 C 
ENDBRANCH   9  10
ENDBRANCH   8   9
ENDBRANCH   6   7
ENDBRANCH   3   6
ENDBRANCH   1   3
BRANCH   2  12
ATOM     12  C   LIG    1        7.684   7.308   0.000  0.00  0.00    +0.136 C 
BRANCH  12  13
ATOM     13  C   LIG    1        8.147   8.735   0.000  0.00  0.00    -0.001 C 
ATOM     14  C   LIG    1        8.611  10.162   0.000  0.00  0.00    +0.014 C 
BRANCH  13  15
ATOM     15  C   LIG    1        6.720   9.198   0.000  0.00  0.00    +0.009 C 
ATOM     16  C   LIG    1        5.294   9.662   0.000  0.00  0.00    +0.001 C 
ENDBRANCH  13  15
ENDBRANCH  12  13
BRANCH  12  17
ATOM     17  C   LIG    1        7.220   5.882   0.000  0.00  0.00    +0.087 C 
BRANCH  17  18
ATOM     18  N   LIG    1        5.753   5.570   0.000  0.00  0.00    -0.302 NA
ATOM     19  H   LIG    1        4.987   6.656   0.000  0.00  0.00    +0.123 HD
BRANCH  18  20
ATOM     20  C   LIG    1        5.289   4.143   0.000  0.00  0.00    +0.062 C 
ATOM     21  C   LIG    1        3.863   4.607   0.000  0.00  0.00    +0.011 C 
ATOM     22  C   LIG    1        6.716   3.680   0.000  0.00  0.00    +0.021 C 
ENDBRANCH  18  20
ENDBRANCH  17  18
ENDBRANCH  12  17
ENDBRANCH   2  12
TORSDOF 12
REMARK  Name = molecules/OGWAVGNOAMXIIM-VTAHJYCESA-N.pdb
REMARK                            x       y       z     vdW  Elec       q    Type
REMARK                         _______ _______ _______ _____ _____    ______ ____
ROOT
ATOM      1  C   LIG    1        1.367   8.133   0.000  0.00  0.00    +0.003 A 
ATOM      2  C   LIG    1        2.248   9.347   0.000  0.00  0.00    +0.032 A 
ATOM      3  C   LIG    1        1.638  10.717   0.000  0.00  0.00    +0.023 A 
ATOM      4  C   LIG    1        0.146  10.874   0.000  0.00  0.00    +0.002 A 
ATOM      5  C   LIG    1       -0.735   9.661   0.000  0.00  0.00    +0.001 A 
ATOM      6  C   LIG    1       -0.125   8.290   0.000  0.00  0.00    +0.010 A 
ENDROOT
BRANCH   2   7
ATOM      7  N   LIG    1        3.675   8.883   0.000  0.00  0.00    -0.357 N 
ATOM      8  H   LIG    1        3.867  10.126   0.000  0.00  0.00    +0.142 HD
ATOM      9  H   LIG    1        4.830   8.235   0.000  0.00  0.00    +0.142 HD
ENDBRANCH   2   7
BRANCH   1  11
ATOM     10  C   LIG    1        1.785   5.493   0.000  0.00  0.00    +0.006 C 
ATOM     11  C   LIG    1        2.248   6.920   0.000  0.00  0.00    -0.011 C 
BRANCH  10  13
ATOM     12  N   LIG    1        2.748   3.603   0.000  0.00  0.00    -0.133 NA
ATOM     13  C   LIG    1        1.321   4.067   0.000  0.00  0.00    +0.140 C 
ENDBRANCH  10  13
ENDBRANCH   1  11
TORSDOF 3
REMARK  Name = molecules/OGWAVGNOAMXIIM-VTAHJYCESA-N.pdb
REMARK                            x       y       z     vdW  Elec       q    Type
REMARK                         _______ _______ _______ _____ _____    ______ ____
ROOT
ATOM      1  N   LIG    1        1.861   1.525   0.000  0.00  0.00    -0.138 NA
ATOM      2  C   LIG    1        1.398   0.099   0.000  0.00  0.00    +0.114 C 
ATOM      3  C   LIG    1       -0.029   0.562   0.000  0.00  0.00    -0.005 C 
ENDROOT
BRANCH   3   4
ATOM      4  C   LIG    1       -1.455   1.026   0.000  0.00  0.00    +0.007 C 
ATOM      5  C   LIG    1       -1.919  -0.401   0.000  0.00  0.00    +0.011 C 
ATOM      6  C   LIG    1       -2.882   1.489   0.000  0.00  0.00    +0.011 C 
ENDBRANCH   3   4
TORSDOF 1
REMARK  Name = molecules/OGWAVGNOAMXIIM-VTAHJYCESA-N.pdb
REMARK                            x       y       z     vdW  Elec       q    Type
REMARK                         _______ _______ _______ _____ _____    ______ ____
ROOT
ATOM      1  C   LIG    1        4.099  -3.722   0.000  0.00  0.00    +0.266 C 
ATOM      2  O   LIG    1        3.010  -3.817   0.000  0.00  0.00    -0.269 OA
ATOM      3  O   LIG    1        2.857  -4.766   0.000  0.00  0.00    -0.268 OA
ATOM      4  C   LIG    1        3.213  -5.800   0.000  0.00  0.00    +0.269 C 
ATOM      5  C   LIG    1        4.640  -6.263   0.000  0.00  0.00    +0.138 C 
ATOM      6  N   LIG    1        5.103  -4.837   0.000  0.00  0.00    -0.220 NA
ENDROOT
BRANCH   1   8
ATOM      7  N   LIG    1        3.136  -1.832   0.000  0.00  0.00    -0.129 NA
ATOM      8  C   LIG    1        4.563  -2.296   0.000  0.00  0.00    +0.187 C 
ATOM      9  C   LIG    1        5.027  -0.869   0.000  0.00  0.00    +0.029 C 
ENDBRANCH   1   8
BRANCH   4  10
ATOM     10  N   LIG    1        2.098  -6.803   0.000  0.00  0.00    -0.206 NA
ATOM     11  C   LIG    1        0.672  -6.340   0.000  0.00  0.00    +0.146 C 
ENDBRANCH   4  10
BRANCH   5  12
ATOM     12  C   LIG    1        6.066  -6.727   0.000  0.00  0.00    +0.051 C 
BRANCH  12  13
ATOM     13  C   LIG    1        7.493  -7.190   0.000  0.00  0.00    +0.007 C 
BRANCH  13  14
ATOM     14  C   LIG    1        8.919  -7.654   0.000  0.00  0.00    +0.019 C 
BRANCH  14  15
ATOM     15  C   LIG    1       10.346  -8.117   0.000  0.00  0.00    +0.124 C 
ATOM     16  N   LIG    1       11.773  -8.581   0.000  0.00  0.00    -0.143 NA
ENDBRANCH  14  15
ENDBRANCH  13  14
ENDBRANCH  12  13
ENDBRANCH   5  12
TORSDOF 6
REMARK  Name = molecules/OGWAVGNOAMXIIM-VTAHJYCESA-N.pdb
REMARK                            x       y       z     vdW  Elec       q    Type
REMARK                         _______ _______ _______ _____ _____    ______ ____
ROOT
ATOM      1  CB  ARG A  1       -3.760  -7.843   0.000  0.00  0.00    +0.027 C 
ENDROOT
BRANCH   1   2
ATOM      2  CA  ARG A  1       -3.296  -6.417   0.000  0.00  0.00    +0.115 C 
BRANCH   2   3
ATOM      3  N   ARG A  1       -1.869  -6.880   0.000  0.00  0.00    -0.227 NA
ATOM      4  C   ACE A  0       -0.755  -5.877   0.000  0.00  0.00    +0.114 C 
ENDBRANCH   2   3
BRANCH   2   5
ATOM      5  C   ARG A  1       -2.833  -4.990   0.000  0.00  0.00    +0.193 C 
ATOM      6  O   ARG A  1       -3.836  -3.875   0.000  0.00  0.00    -0.219 OA
ENDBRANCH   2   5
ENDBRANCH   1   2
BRANCH   1   7
ATOM      7  CG  ARG A  1       -4.223  -9.270   0.000  0.00  0.00    +0.042 C 
BRANCH   7   8
ATOM      8  CD  ARG A  1       -4.687 -10.696   0.000  0.00  0.00    +0.244 C 
BRANCH   8   9
ATOM      9  NE  ARG A  1       -5.150 -12.123   0.000  0.00  0.00    -0.102 NA
BRANCH   9  10
ATOM     10  CZ  ARG A  1       -6.617 -12.435   0.000  0.00  0.00    +0.534 C 
ATOM     11  NH2 ARG A  1       -7.621 -11.320   0.000  0.00  0.00    +0.135 NA
ATOM     12  NH1 ARG A  1       -7.081 -13.861   0.000  0.00  0.00    +0.135 NA
ENDBRANCH   9  10
ENDBRANCH   8   9
ENDBRANCH   7   8
ENDBRANCH   1   7
TORSDOF 7
REMARK  Name = molecules/OGWAVGNOAMXIIM-VTAHJYCESA-N.pdb
REMARK                            x       y       z     vdW  Elec       q    Type
REMARK                         _______ _______ _______ _____ _____    ______ ____
ROOT
ATOM      1  O   LIG    1       -1.365  -4.678   0.000  0.00  0.00    +0.000 OA
ATOM      2  O   LIG    1       -0.727  -5.080   0.000  0.00  0.00    +0.000 OA
ENDROOT
TORSDOF 0
REMARK  Name = molecules/OGWAVGNOAMXIIM-VTAHJYCESA-N.pdb
REMARK                            x       y       z     vdW  Elec       q    Type
REMARK                         _______ _______ _______ _____ _____    ______ ____
ROOT
ATOM      1  O   HOH    1       45.383 -26.262   0.000  0.00  0.00    -0.253 OA
ATOM      2  H   HOH    0       45.834 -25.550   0.000  0.00  0.00    +0.253 HD
ENDROOT
TORSDOF 0
REMARK  Name = molecules/OGWAVGNOAMXIIM-VTAHJYCESA-N.pdb
REMARK                            x       y       z     vdW  Elec       q    Type
REMARK                         _______ _______ _______ _____ _____    ______ ____
ROOT
ATOM      1  O   HOH    1       52.146 -19.506   0.000  0.00  0.00    -0.253 OA
ATOM      2  H   HOH    0       51.433 -19.055   0.000  0.00  0.00    +0.253 HD
ENDROOT
TORSDOF 0
REMARK  Name = molecules/OGWAVGNOAMXIIM-VTAHJYCESA-N.pdb
REMARK                            x       y       z     vdW  Elec       q    Type
REMARK                         _______ _______ _______ _____ _____    ______ ____
ROOT
ATOM      1  O   HOH    1       47.570 -17.635   0.000  0.00  0.00    -0.410 OA
ATOM      2  H   HOH    0       47.755 -16.922   0.000  0.00  0.00    +0.205 HD
ATOM      3  H   HOH    0       48.441 -18.180   0.000  0.00  0.00    +0.205 HD
ENDROOT
TORSDOF 0
REMARK  Name = molecules/OGWAVGNOAMXIIM-VTAHJYCESA-N.pdb
REMARK                            x       y       z     vdW  Elec       q    Type
REMARK                         _______ _______ _______ _____ _____    ______ ____
ROOT
ATOM      1  C   LIG    1       47.410 -13.274   0.000  0.00  0.00    +0.000 C 
ENDROOT
TORSDOF 0
REMARK  Name = molecules/OGWAVGNOAMXIIM-VTAHJYCESA-N.pdb
REMARK                            x       y       z     vdW  Elec       q    Type
REMARK                         _______ _______ _______ _____ _____    ______ ____
ROOT
ATOM      1  O   HOH    1       48.904 -13.143   0.000  0.00  0.00    -0.410 OA
ATOM      2  H   HOH    0       49.488 -14.161   0.000  0.00  0.00    +0.205 HD
ATOM      3  H   HOH    0       48.192 -12.693   0.000  0.00  0.00    +0.205 HD
ENDROOT
TORSDOF 0
REMARK  Name = molecules/OGWAVGNOAMXIIM-VTAHJYCESA-N.pdb
REMARK                            x       y       z     vdW  Elec       q    Type
REMARK                         _______ _______ _______ _____ _____    ______ ____
ROOT
ATOM      1  O   HOH    1       44.328 -11.273   0.000  0.00  0.00    -0.410 OA
ATOM      2  H   HOH    0       44.939 -12.471   0.000  0.00  0.00    +0.205 HD
ATOM      3  H   HOH    0       44.513 -10.560   0.000  0.00  0.00    +0.205 HD
ENDROOT
TORSDOF 0
REMARK  Name = molecules/OGWAVGNOAMXIIM-VTAHJYCESA-N.pdb
REMARK                            x       y       z     vdW  Elec       q    Type
REMARK                         _______ _______ _______ _____ _____    ______ ____
ROOT
ATOM      1  C   LIG    1       44.168  -6.912   0.000  0.00  0.00    +0.000 C 
ENDROOT
TORSDOF 0
REMARK  Name = molecules/OGWAVGNOAMXIIM-VTAHJYCESA-N.pdb
REMARK                            x       y       z     vdW  Elec       q    Type
REMARK                         _______ _______ _______ _____ _____    ______ ____
ROOT
ATOM      1  O   LIG    1       45.635  -6.600   0.000  0.00  0.00    -0.253 OA
ATOM      2  H   LIG    1       44.950  -6.331   0.000  0.00  0.00    +0.253 HD
ENDROOT
BRANCH   1   3
ATOM      3  O   LIG    1       46.793  -6.765   0.000  0.00  0.00    -0.253 OA
ATOM      4  H   LIG    1       46.246  -7.798   0.000  0.00  0.00    +0.253 HD
ENDBRANCH   1   3
TORSDOF 1
REMARK  Name = molecules/OGWAVGNOAMXIIM-VTAHJYCESA-N.pdb
REMARK                            x       y       z     vdW  Elec       q    Type
REMARK                         _______ _______ _______ _____ _____    ______ ____
ROOT
ATOM      1  C   LIG    1       42.201  -3.907   0.000  0.00  0.00    +0.018 C 
ATOM      2  C   LIG    1       41.426  -3.866   0.000  0.00  0.00    -0.018 C 
ENDROOT
TORSDOF 0
REMARK  Name = molecules/OGWAVGNOAMXIIM-VTAHJYCESA-N.pdb
REMARK                            x       y       z     vdW  Elec       q    Type
REMARK                         _______ _______ _______ _____ _____    ______ ____
ROOT
ATOM      1  O   HOH    1       41.363  -5.151   0.000  0.00  0.00    -0.410 OA
ATOM      2  H   HOH    0       41.697  -6.109   0.000  0.00  0.00    +0.205 HD
ATOM      3  H   HOH    0       40.808  -5.625   0.000  0.00  0.00    +0.205 HD
ENDROOT
TORSDOF 0
REMARK  Name = molecules/OGWAVGNOAMXIIM-VTAHJYCESA-N.pdb
REMARK                            x       y       z     vdW  Elec       q    Type
REMARK                         _______ _______ _______ _____ _____    ______ ____
ROOT
ATOM      1  C   LIG    1       39.536  -4.830   0.000  0.00  0.00    -0.000 C 
ENDROOT
TORSDOF 0
REMARK  Name = molecules/OGWAVGNOAMXIIM-VTAHJYCESA-N.pdb
REMARK                            x       y       z     vdW  Elec       q    Type
REMARK                         _______ _______ _______ _____ _____    ______ ____
ROOT
ATOM      1  O   HOH    1       42.394  -0.238   0.000  0.00  0.00    -0.410 OA
ATOM      2  H   HOH    0       43.004  -1.436   0.000  0.00  0.00    +0.205 HD
ATOM      3  H   HOH    0       41.708   0.032   0.000  0.00  0.00    +0.205 HD
ENDROOT
TORSDOF 0
REMARK  Name = molecules/OGWAVGNOAMXIIM-VTAHJYCESA-N.pdb
REMARK                            x       y       z     vdW  Elec       q    Type
REMARK                         _______ _______ _______ _____ _____    ______ ____
ROOT
ATOM      1  O   HOH    1       37.845   1.451   0.000  0.00  0.00    -0.410 OA
ATOM      2  H   HOH    0       38.456   0.253   0.000  0.00  0.00    +0.205 HD
ATOM      3  H   HOH    0       38.030   2.164   0.000  0.00  0.00    +0.205 HD
ENDROOT
TORSDOF 0
REMARK  Name = molecules/OGWAVGNOAMXIIM-VTAHJYCESA-N.pdb
REMARK                            x       y       z     vdW  Elec       q    Type
REMARK                         _______ _______ _______ _____ _____    ______ ____
ROOT
ATOM      1  O   HOH    1       39.152   6.124   0.000  0.00  0.00    -0.410 OA
ATOM      2  H   HOH    0       38.467   6.394   0.000  0.00  0.00    +0.205 HD
ATOM      3  H   HOH    0       39.081   5.099   0.000  0.00  0.00    +0.205 HD
ENDROOT
TORSDOF 0
REMARK  Name = molecules/OGWAVGNOAMXIIM-VTAHJYCESA-N.pdb
REMARK                            x       y       z     vdW  Elec       q    Type
REMARK                         _______ _______ _______ _____ _____    ______ ____
ROOT
ATOM      1  O   HOH    1       34.734   7.685   0.000  0.00  0.00    -0.410 OA
ATOM      2  H   HOH    0       35.214   6.615   0.000  0.00  0.00    +0.205 HD
ATOM      3  H   HOH    0       34.788   8.526   0.000  0.00  0.00    +0.205 HD
ENDROOT
TORSDOF 0
REMARK  Name = molecules/OGWAVGNOAMXIIM-VTAHJYCESA-N.pdb
REMARK                            x       y       z     vdW  Elec       q    Type
REMARK                         _______ _______ _______ _____ _____    ______ ____
ROOT
ATOM      1  C   LIG    1       34.443  12.175   0.000  0.00  0.00    +0.000 C 
ENDROOT
TORSDOF 0
REMARK  Name = molecules/OGWAVGNOAMXIIM-VTAHJYCESA-N.pdb
REMARK                            x       y       z     vdW  Elec       q    Type
REMARK                         _______ _______ _______ _____ _____    ______ ____
ROOT
ATOM      1  O   HOH    1       35.937  12.305   0.000  0.00  0.00    -0.410 OA
ATOM      2  H   HOH    0       35.225  12.756   0.000  0.00  0.00    +0.205 HD
ATOM      3  H   HOH    0       36.521  11.288   0.000  0.00  0.00    +0.205 HD
ENDROOT
TORSDOF 0
REMARK  Name = molecules/OGWAVGNOAMXIIM-VTAHJYCESA-N.pdb
REMARK                            x       y       z     vdW  Elec       q    Type
REMARK                         _______ _______ _______ _____ _____    ______ ____
ROOT
ATOM      1  C   LIG    1       29.311  17.574   0.000  0.00  0.00    +0.000 C 
ENDROOT
TORSDOF 0
REMARK  Name = molecules/OGWAVGNOAMXIIM-VTAHJYCESA-N.pdb
REMARK                            x       y       z     vdW  Elec       q    Type
REMARK                         _______ _______ _______ _____ _____    ______ ____
ROOT
ATOM      1  O   HOH    1       29.181  19.068   0.000  0.00  0.00    -0.253 OA
ATOM      2  H   HOH    0       28.730  18.355   0.000  0.00  0.00    +0.253 HD
ENDROOT
TORSDOF 0
REMARK  Name = molecules/OGWAVGNOAMXIIM-VTAHJYCESA-N.pdb
REMARK                            x       y       z     vdW  Elec       q    Type
REMARK                         _______ _______ _______ _____ _____    ______ ____
ROOT
ATOM      1  O   HOH    1       27.310  14.492   0.000  0.00  0.00    -0.410 OA
ATOM      2  H   HOH    0       26.597  14.677   0.000  0.00  0.00    +0.205 HD
ATOM      3  H   HOH    0       28.508  15.103   0.000  0.00  0.00    +0.205 HD
ENDROOT
TORSDOF 0
REMARK  Name = molecules/OGWAVGNOAMXIIM-VTAHJYCESA-N.pdb
REMARK                            x       y       z     vdW  Elec       q    Type
REMARK                         _______ _______ _______ _____ _____    ______ ____
ROOT
ATOM      1  C   LIG    1       22.949  14.332   0.000  0.00  0.00    +0.000 C 
ENDROOT
TORSDOF 0
REMARK  Name = molecules/OGWAVGNOAMXIIM-VTAHJYCESA-N.pdb
REMARK                            x       y       z     vdW  Elec       q    Type
REMARK                         _______ _______ _______ _____ _____    ______ ____
ROOT
ATOM      1  O   HOH    1       22.637  15.799   0.000  0.00  0.00    -0.410 OA
ATOM      2  H   HOH    0       22.368  15.114   0.000  0.00  0.00    +0.205 HD
ATOM      3  H   HOH    0       23.835  16.410   0.000  0.00  0.00    +0.205 HD
ENDROOT
TORSDOF 0
REMARK  Name = molecules/OGWAVGNOAMXIIM-VTAHJYCESA-N.pdb
REMARK                            x       y       z     vdW  Elec       q    Type
REMARK                         _______ _______ _______ _____ _____    ______ ____
ROOT
ATOM      1  O   HOH    1       21.076  11.381   0.000  0.00  0.00    -0.410 OA
ATOM      2  H   HOH    0       20.235  11.435   0.000  0.00  0.00    +0.205 HD
ATOM      3  H   HOH    0       22.146  11.861   0.000  0.00  0.00    +0.205 HD
ENDROOT
TORSDOF 0
REMARK  Name = molecules/OGWAVGNOAMXIIM-VTAHJYCESA-N.pdb
REMARK                            x       y       z     vdW  Elec       q    Type
REMARK                         _______ _______ _______ _____ _____    ______ ____
ROOT
ATOM      1  O   HOH    1       16.456  12.585   0.000  0.00  0.00    -0.410 OA
ATOM      2  H   HOH    0       16.006  11.872   0.000  0.00  0.00    +0.205 HD
ATOM      3  H   HOH    0       17.473  13.168   0.000  0.00  0.00    +0.205 HD
ENDROOT
TORSDOF 0
REMARK  Name = molecules/OGWAVGNOAMXIIM-VTAHJYCESA-N.pdb
REMARK                            x       y       z     vdW  Elec       q    Type
REMARK                         _______ _______ _______ _____ _____    ______ ____
ROOT
ATOM      1  O   HOH    1       14.586   8.009   0.000  0.00  0.00    -0.410 OA
ATOM      2  H   HOH    0       13.873   8.194   0.000  0.00  0.00    +0.205 HD
ATOM      3  H   HOH    0       15.131   8.880   0.000  0.00  0.00    +0.205 HD
ENDROOT
TORSDOF 0
REMARK  Name = molecules/OGWAVGNOAMXIIM-VTAHJYCESA-N.pdb
REMARK                            x       y       z     vdW  Elec       q    Type
REMARK                         _______ _______ _______ _____ _____    ______ ____
ROOT
ATOM      1  C   LIG    1       15.619   7.462   0.000  0.00  0.00    +0.000 C 
ENDROOT
TORSDOF 0
REMARK  Name = molecules/OGWAVGNOAMXIIM-VTAHJYCESA-N.pdb
REMARK                            x       y       z     vdW  Elec       q    Type
REMARK                         _______ _______ _______ _____ _____    ______ ____
ROOT
ATOM      1  O   HOH    1       10.094   9.343   0.000  0.00  0.00    -0.410 OA
ATOM      2  H   HOH    0        9.643   8.630   0.000  0.00  0.00    +0.205 HD
ATOM      3  H   HOH    0       11.111   9.926   0.000  0.00  0.00    +0.205 HD
ENDROOT
TORSDOF 0
REMARK  Name = molecules/OGWAVGNOAMXIIM-VTAHJYCESA-N.pdb
REMARK                            x       y       z     vdW  Elec       q    Type
REMARK                         _______ _______ _______ _____ _____    ______ ____
ROOT
ATOM      1  O   HOH    1        8.224   4.767   0.000  0.00  0.00    -0.410 OA
ATOM      2  H   HOH    0        7.511   4.952   0.000  0.00  0.00    +0.205 HD
ATOM      3  H   HOH    0        9.422   5.378   0.000  0.00  0.00    +0.205 HD
ENDROOT
TORSDOF 0
REMARK  Name = molecules/OGWAVGNOAMXIIM-VTAHJYCESA-N.pdb
REMARK                            x       y       z     vdW  Elec       q    Type
REMARK                         _______ _______ _______ _____ _____    ______ ____
ROOT
ATOM      1  O   LIG    1        3.551   6.074   0.000  0.00  0.00    -0.386 OA
ATOM      2  C   LIG    1        3.675   7.383   0.000  0.00  0.00    +0.176 C 
ATOM      3  H   LIG    1        3.281   5.389   0.000  0.00  0.00    +0.210 HD
ENDROOT
TORSDOF 0
REMARK  Name = molecules/OGWAVGNOAMXIIM-VTAHJYCESA-N.pdb
REMARK                            x       y       z     vdW  Elec       q    Type
REMARK                         _______ _______ _______ _____ _____    ______ ____
ROOT
ATOM      1  C   LIG    1        0.858   2.640   0.000  0.00  0.00    +0.000 C 
ENDROOT
TORSDOF 0
REMARK  Name = molecules/OGWAVGNOAMXIIM-VTAHJYCESA-N.pdb
REMARK                            x       y       z     vdW  Elec       q    Type
REMARK                         _______ _______ _______ _____ _____    ______ ____
ROOT
ATOM      1  O   HOH    1       -0.636   2.509   0.000  0.00  0.00    -0.253 OA
ATOM      2  H   HOH    0        0.076   2.059   0.000  0.00  0.00    +0.253 HD
ENDROOT
TORSDOF 0
REMARK  Name = molecules/OGWAVGNOAMXIIM-VTAHJYCESA-N.pdb
REMARK                            x       y       z     vdW  Elec       q    Type
REMARK                         _______ _______ _______ _____ _____    ______ ____
ROOT
ATOM      1  C   LIG    1        2.825  -0.365   0.000  0.00  0.00    +0.018 C 
ATOM      2  C   LIG    1        3.600  -0.405   0.000  0.00  0.00    -0.018 C 
ENDROOT
TORSDOF 0
REMARK  Name = molecules/OGWAVGNOAMXIIM-VTAHJYCESA-N.pdb
REMARK                            x       y       z     vdW  Elec       q    Type
REMARK                         _______ _______ _______ _____ _____    ______ ____
ROOT
ATOM      1  O   HOH    1        3.663   0.879   0.000  0.00  0.00    -0.410 OA
ATOM      2  H   HOH    0        4.218   1.353   0.000  0.00  0.00    +0.205 HD
ATOM      3  H   HOH    0        3.356   1.656   0.000  0.00  0.00    +0.205 HD
ENDROOT
TORSDOF 0
REMARK  Name = molecules/OGWAVGNOAMXIIM-VTAHJYCESA-N.pdb
REMARK                            x       y       z     vdW  Elec       q    Type
REMARK                         _______ _______ _______ _____ _____    ______ ____
ROOT
ATOM      1  C   LIG    1        5.490   0.558   0.000  0.00  0.00    -0.000 C 
ENDROOT
TORSDOF 0
REMARK  Name = molecules/OGWAVGNOAMXIIM-VTAHJYCESA-N.pdb
REMARK                            x       y       z     vdW  Elec       q    Type
REMARK                         _______ _______ _______ _____ _____    ______ ____
ROOT
ATOM      1  H   UNK    1       40.264 -19.255   0.000  0.00  0.00    +0.000 HD
ENDROOT
TORSDOF 0
REMARK  Name = molecules/OGWAVGNOAMXIIM-VTAHJYCESA-N.pdb
REMARK                            x       y       z     vdW  Elec       q    Type
REMARK                         _______ _______ _______ _____ _____    ______ ____
ROOT
ATOM      1  H   UNK    1       42.543 -19.995   0.000  0.00  0.00    +0.000 HD
ENDROOT
TORSDOF 0
REMARK  Name = molecules/OGWAVGNOAMXIIM-VTAHJYCESA-N.pdb
REMARK                            x       y       z     vdW  Elec       q    Type
REMARK                         _______ _______ _______ _____ _____    ______ ____
ROOT
ATOM      1  H   UNK    1       41.285 -24.845   0.000  0.00  0.00    +0.000 HD
ENDROOT
TORSDOF 0
REMARK  Name = molecules/OGWAVGNOAMXIIM-VTAHJYCESA-N.pdb
REMARK                            x       y       z     vdW  Elec       q    Type
REMARK                         _______ _______ _______ _____ _____    ______ ____
ROOT
ATOM      1  H   UNK    1       46.055 -22.297   0.000  0.00  0.00    +0.000 HD
ENDROOT
TORSDOF 0
REMARK  Name = molecules/OGWAVGNOAMXIIM-VTAHJYCESA-N.pdb
REMARK                            x       y       z     vdW  Elec       q    Type
REMARK                         _______ _______ _______ _____ _____    ______ ____
ROOT
ATOM      1  H   UNK    1       50.728 -23.604   0.000  0.00  0.00    +0.000 HD
ENDROOT
TORSDOF 0
REMARK  Name = molecules/OGWAVGNOAMXIIM-VTAHJYCESA-N.pdb
REMARK                            x       y       z     vdW  Elec       q    Type
REMARK                         _______ _______ _______ _____ _____    ______ ____
ROOT
ATOM      1  H   UNK    1       33.279  17.650   0.000  0.00  0.00    +0.000 HD
ENDROOT
TORSDOF 0
REMARK  Name = molecules/OGWAVGNOAMXIIM-VTAHJYCESA-N.pdb
REMARK                            x       y       z     vdW  Elec       q    Type
REMARK                         _______ _______ _______ _____ _____    ______ ____
ROOT
ATOM      1  H   UNK    1        3.236   2.185   0.000  0.00  0.00    +0.000 HD
ENDROOT
TORSDOF 0
REMARK  Name = molecules/OGWAVGNOAMXIIM-VTAHJYCESA-N.pdb
REMARK                            x       y       z     vdW  Elec       q    Type
REMARK                         _______ _______ _______ _____ _____    ______ ____
ROOT
ATOM      1  H   UNK    1        2.022  -2.836   0.000  0.00  0.00    +0.000 HD
ENDROOT
TORSDOF 0
REMARK  Name = molecules/OGWAVGNOAMXIIM-VTAHJYCESA-N.pdb
REMARK                            x       y       z     vdW  Elec       q    Type
REMARK                         _______ _______ _______ _____ _____    ______ ____
ROOT
ATOM      1  H   UNK    1        6.521  -4.348   0.000  0.00  0.00    +0.000 HD
ENDROOT
TORSDOF 0
REMARK  Name = molecules/OGWAVGNOAMXIIM-VTAHJYCESA-N.pdb
REMARK                            x       y       z     vdW  Elec       q    Type
REMARK                         _______ _______ _______ _____ _____    ______ ____
ROOT
ATOM      1  H   UNK    1        2.410  -8.271   0.000  0.00  0.00    +0.000 HD
ENDROOT
TORSDOF 0
REMARK  Name = molecules/OGWAVGNOAMXIIM-VTAHJYCESA-N.pdb
REMARK                            x       y       z     vdW  Elec       q    Type
REMARK                         _______ _______ _______ _____ _____    ______ ____
ROOT
ATOM      1  H   UNK    1       -1.381  -8.298   0.000  0.00  0.00    +0.000 HD
ENDROOT
TORSDOF 0
REMARK  Name = molecules/OGWAVGNOAMXIIM-VTAHJYCESA-N.pdb
REMARK                            x       y       z     vdW  Elec       q    Type
REMARK                         _______ _______ _______ _____ _____    ______ ____
ROOT
ATOM      1  H   UNK    1       33.954 -21.447   0.000  0.00  0.00    +0.000 HD
ENDROOT
TORSDOF 0
REMARK  Name = molecules/OGWAVGNOAMXIIM-VTAHJYCESA-N.pdb
REMARK                            x       y       z     vdW  Elec       q    Type
REMARK                         _______ _______ _______ _____ _____    ______ ____
ROOT
ATOM      1  H   UNK    1       44.472 -30.246   0.000  0.00  0.00    +0.000 HD
ENDROOT
TORSDOF 0
REMARK  Name = molecules/OGWAVGNOAMXIIM-VTAHJYCESA-N.pdb
REMARK                            x       y       z     vdW  Elec       q    Type
REMARK                         _______ _______ _______ _____ _____    ______ ____
ROOT
ATOM      1  H   UNK    1       53.420 -15.644   0.000  0.00  0.00    +0.000 HD
ENDROOT
TORSDOF 0
REMARK  Name = molecules/OGWAVGNOAMXIIM-VTAHJYCESA-N.pdb
REMARK                            x       y       z     vdW  Elec       q    Type
REMARK                         _______ _______ _______ _____ _____    ______ ____
ROOT
ATOM      1  H   UNK    1       50.178  -9.281   0.000  0.00  0.00    +0.000 HD
ENDROOT
TORSDOF 0
REMARK  Name = molecules/OGWAVGNOAMXIIM-VTAHJYCESA-N.pdb
REMARK                            x       y       z     vdW  Elec       q    Type
REMARK                         _______ _______ _______ _____ _____    ______ ____
ROOT
ATOM      1  H   UNK    1       41.310 -11.504   0.000  0.00  0.00    +0.000 HD
ENDROOT
TORSDOF 0
REMARK  Name = molecules/OGWAVGNOAMXIIM-VTAHJYCESA-N.pdb
REMARK                            x       y       z     vdW  Elec       q    Type
REMARK                         _______ _______ _______ _____ _____    ______ ____
ROOT
ATOM      1  H   UNK    1       49.022  -4.758   0.000  0.00  0.00    +0.000 HD
ENDROOT
TORSDOF 0
REMARK  Name = molecules/OGWAVGNOAMXIIM-VTAHJYCESA-N.pdb
REMARK                            x       y       z     vdW  Elec       q    Type
REMARK                         _______ _______ _______ _____ _____    ______ ____
ROOT
ATOM      1  H   UNK    1       38.109  -4.366   0.000  0.00  0.00    +0.000 HD
ENDROOT
TORSDOF 0
REMARK  Name = molecules/OGWAVGNOAMXIIM-VTAHJYCESA-N.pdb
REMARK                            x       y       z     vdW  Elec       q    Type
REMARK                         _______ _______ _______ _____ _____    ______ ____
ROOT
ATOM      1  H   UNK    1       44.354   2.068   0.000  0.00  0.00    +0.000 HD
ENDROOT
TORSDOF 0
REMARK  Name = molecules/OGWAVGNOAMXIIM-VTAHJYCESA-N.pdb
REMARK                            x       y       z     vdW  Elec       q    Type
REMARK                         _______ _______ _______ _____ _____    ______ ____
ROOT
ATOM      1  H   UNK    1       34.827   1.221   0.000  0.00  0.00    +0.000 HD
ENDROOT
TORSDOF 0
REMARK  Name = molecules/OGWAVGNOAMXIIM-VTAHJYCESA-N.pdb
REMARK                            x       y       z     vdW  Elec       q    Type
REMARK                         _______ _______ _______ _____ _____    ______ ____
ROOT
ATOM      1  H   UNK    1       45.392   7.040   0.000  0.00  0.00    +0.000 HD
ENDROOT
TORSDOF 0
REMARK  Name = molecules/OGWAVGNOAMXIIM-VTAHJYCESA-N.pdb
REMARK                            x       y       z     vdW  Elec       q    Type
REMARK                         _______ _______ _______ _____ _____    ______ ____
ROOT
ATOM      1  H   UNK    1       39.921  11.395   0.000  0.00  0.00    +0.000 HD
ENDROOT
TORSDOF 0
REMARK  Name = molecules/OGWAVGNOAMXIIM-VTAHJYCESA-N.pdb
REMARK                            x       y       z     vdW  Elec       q    Type
REMARK                         _______ _______ _______ _____ _____    ______ ____
ROOT
ATOM      1  H   UNK    1       27.620  23.855   0.000  0.00  0.00    +0.000 HD
ENDROOT
TORSDOF 0
REMARK  Name = molecules/OGWAVGNOAMXIIM-VTAHJYCESA-N.pdb
REMARK                            x       y       z     vdW  Elec       q    Type
REMARK                         _______ _______ _______ _____ _____    ______ ____
ROOT
ATOM      1  H   UNK    1       25.690  22.116   0.000  0.00  0.00    +0.000 HD
ENDROOT
TORSDOF 0
REMARK  Name = molecules/OGWAVGNOAMXIIM-VTAHJYCESA-N.pdb
REMARK                            x       y       z     vdW  Elec       q    Type
REMARK                         _______ _______ _______ _____ _____    ______ ____
ROOT
ATOM      1  H   UNK    1       25.458   6.842   0.000  0.00  0.00    +0.000 HD
ENDROOT
TORSDOF 0
REMARK  Name = molecules/OGWAVGNOAMXIIM-VTAHJYCESA-N.pdb
REMARK                            x       y       z     vdW  Elec       q    Type
REMARK                         _______ _______ _______ _____ _____    ______ ____
ROOT
ATOM      1  H   UNK    1       26.261   9.313   0.000  0.00  0.00    +0.000 HD
ENDROOT
TORSDOF 0
REMARK  Name = molecules/OGWAVGNOAMXIIM-VTAHJYCESA-N.pdb
REMARK                            x       y       z     vdW  Elec       q    Type
REMARK                         _______ _______ _______ _____ _____    ______ ____
ROOT
ATOM      1  H   UNK    1       17.367  16.568   0.000  0.00  0.00    +0.000 HD
ENDROOT
TORSDOF 0
REMARK  Name = molecules/OGWAVGNOAMXIIM-VTAHJYCESA-N.pdb
REMARK                            x       y       z     vdW  Elec       q    Type
REMARK                         _______ _______ _______ _____ _____    ______ ____
ROOT
ATOM      1  H   UNK    1        6.917   0.094   0.000  0.00  0.00    +0.000 HD
ENDROOT
TORSDOF 0
REMARK  Name = molecules/OGWAVGNOAMXIIM-VTAHJYCESA-N.pdb
REMARK                            x       y       z     vdW  Elec       q    Type
REMARK                         _______ _______ _______ _____ _____    ______ ____
ROOT
ATOM      1  H   UNK    1       12.085 -10.048   0.000  0.00  0.00    +0.000 HD
ENDROOT
TORSDOF 0
REMARK  Name = molecules/OGWAVGNOAMXIIM-VTAHJYCESA-N.pdb
REMARK                            x       y       z     vdW  Elec       q    Type
REMARK                         _______ _______ _______ _____ _____    ______ ____
ROOT
ATOM      1  H   UNK    1       12.887  -7.577   0.000  0.00  0.00    +0.000 HD
ENDROOT
TORSDOF 0
REMARK  Name = molecules/OGWAVGNOAMXIIM-VTAHJYCESA-N.pdb
REMARK                            x       y       z     vdW  Elec       q    Type
REMARK                         _______ _______ _______ _____ _____    ______ ____
ROOT
ATOM      1  H   UNK    1        0.208  -7.767   0.000  0.00  0.00    +0.000 HD
ENDROOT
TORSDOF 0
REMARK  Name = molecules/OGWAVGNOAMXIIM-VTAHJYCESA-N.pdb
REMARK                            x       y       z     vdW  Elec       q    Type
REMARK                         _______ _______ _______ _____ _____    ______ ____
ROOT
ATOM      1  H   UNK    1       -4.146 -13.238   0.000  0.00  0.00    +0.000 HD
ENDROOT
TORSDOF 0
REMARK  Name = molecules/OGWAVGNOAMXIIM-VTAHJYCESA-N.pdb
REMARK                            x       y       z     vdW  Elec       q    Type
REMARK                         _______ _______ _______ _____ _____    ______ ____
ROOT
ATOM      1  H   UNK    1       -9.088 -11.632   0.000  0.00  0.00    +0.000 HD
ENDROOT
TORSDOF 0
REMARK  Name = molecules/OGWAVGNOAMXIIM-VTAHJYCESA-N.pdb
REMARK                            x       y       z     vdW  Elec       q    Type
REMARK                         _______ _______ _______ _____ _____    ______ ____
ROOT
ATOM      1  H   UNK    1       -7.158  -9.893   0.000  0.00  0.00    +0.000 HD
ENDROOT
TORSDOF 0
REMARK  Name = molecules/OGWAVGNOAMXIIM-VTAHJYCESA-N.pdb
REMARK                            x       y       z     vdW  Elec       q    Type
REMARK                         _______ _______ _______ _____ _____    ______ ____
ROOT
ATOM      1  H   UNK    1       -8.548 -14.173   0.000  0.00  0.00    +0.000 HD
ENDROOT
TORSDOF 0
