REMARK  Name = molecules/OHKOGUYZJXTSFX-KZFFXBSXSA-N.pdb
REMARK                            x       y       z     vdW  Elec       q    Type
REMARK                         _______ _______ _______ _____ _____    ______ ____
ROOT
ATOM      1  N   LIG    1        1.034   0.823  -0.771  0.00  0.00    -0.301 N 
ATOM      2  H   LIG    1        0.796  -0.003  -0.181  0.00  0.00    +0.150 HD
ATOM      3  C   LIG    1        2.265   0.968  -1.408  0.00  0.00    +0.232 C 
ATOM      4  O   LIG    1        2.459   2.010  -2.112  0.00  0.00    -0.275 OA
ENDROOT
BRANCH   1   5
ATOM      5  CA  LIG    1       -0.043   1.795  -0.861  0.00  0.00    +0.190 C 
ATOM      6  C   LIG    1       -0.627   2.200   0.451  0.00  0.00    +0.240 C 
ATOM      7  O   LIG    1       -0.222   3.008   1.325  0.00  0.00    -0.273 OA
ATOM      8  N   LIG    1       -1.755   1.355   0.321  0.00  0.00    -0.271 N 
ATOM      9  CA  LIG    1       -2.918   0.585   0.601  0.00  0.00    +0.201 C 
ATOM     10  C   LIG    1       -2.681  -0.838   0.151  0.00  0.00    +0.042 C 
ATOM     11  C   LIG    1       -2.105  -1.716   1.210  0.00  0.00    +0.025 C 
ATOM     12  C   LIG    1       -3.925  -1.489  -0.401  0.00  0.00    +0.025 C 
ATOM     13  S   LIG    1       -1.509  -0.580  -1.239  0.00  0.00    -0.127 S 
ATOM     14  C   LIG    1       -1.412   1.250  -1.098  0.00  0.00    +0.165 C 
BRANCH   9  15
ATOM     15  C   LIG    1       -4.090   1.208  -0.010  0.00  0.00    +0.327 C 
ATOM     16  O   LIG    1       -4.049   2.269  -0.678  0.00  0.00    -0.249 OA
BRANCH  15  17
ATOM     17  OXT LIG    1       -5.330   0.609   0.144  0.00  0.00    -0.479 OA
ATOM     18  HXT LIG    1       -6.105   1.225   0.436  0.00  0.00    +0.295 HD
ENDBRANCH  15  17
ENDBRANCH   9  15
ENDBRANCH   1   5
BRANCH   3  19
ATOM     19  C   LIG    1        3.381   0.004  -1.338  0.00  0.00    +0.213 C 
BRANCH  19  20
ATOM     20  C   LIG    1        3.896  -0.145   0.090  0.00  0.00    -0.018 A 
ATOM     21  C   LIG    1        3.217  -0.911   1.006  0.00  0.00    +0.050 A 
ATOM     22  S   LIG    1        4.178  -0.782   2.413  0.00  0.00    -0.105 S 
ATOM     23  C   LIG    1        5.407   0.231   1.811  0.00  0.00    +0.045 A 
ATOM     24  C   LIG    1        5.026   0.441   0.515  0.00  0.00    +0.012 A 
ENDBRANCH  19  20
BRANCH  19  25
ATOM     25  C   LIG    1        2.917  -1.288  -1.884  0.00  0.00    +0.321 C 
ATOM     26  O   LIG    1        3.450  -1.820  -2.920  0.00  0.00    -0.250 OA
BRANCH  25  27
ATOM     27  O   LIG    1        1.877  -2.038  -1.343  0.00  0.00    -0.480 OA
ATOM     28  H   LIG    1        1.969  -2.974  -1.021  0.00  0.00    +0.295 HD
ENDBRANCH  25  27
ENDBRANCH  19  25
ENDBRANCH   3  19
TORSDOF 7
