REMARK  Name = molecules/OHPVYKXTRACOSQ-ZJUUUORDSA-N.pdb
REMARK                            x       y       z     vdW  Elec       q    Type
REMARK                         _______ _______ _______ _____ _____    ______ ____
ROOT
ATOM      1  N   LIG    1       -1.636  -1.432   0.479  0.00  0.00    -0.263 N 
ATOM      2  C   LIG    1       -2.111  -0.507   1.454  0.00  0.00    +0.213 C 
ATOM      3  C   LIG    1       -3.483  -0.051   1.056  0.00  0.00    +0.113 C 
ATOM      4  C   LIG    1       -4.588  -0.853   1.702  0.00  0.00    +0.038 C 
ATOM      5  C   LIG    1       -3.717   1.419   1.275  0.00  0.00    +0.038 C 
ATOM      6  S   LIG    1       -3.563  -0.356  -0.703  0.00  0.00    -0.004 S 
ATOM      7  O   LIG    1       -4.596  -1.393  -1.030  0.00  0.00    -0.172 OA
ATOM      8  O   LIG    1       -3.726   0.900  -1.471  0.00  0.00    -0.172 OA
ATOM      9  C   LIG    1       -1.007  -2.575  -0.057  0.00  0.00    +0.221 C 
ATOM     10  O   LIG    1       -0.044  -3.270   0.295  0.00  0.00    -0.275 OA
ATOM     11  C   LIG    1       -1.980  -2.550  -1.163  0.00  0.00    +0.142 C 
ATOM     12  C   LIG    1       -1.944  -1.058  -0.875  0.00  0.00    +0.229 C 
ENDROOT
BRANCH   2  13
ATOM     13  C   LIG    1       -1.140   0.607   1.591  0.00  0.00    +0.333 C 
ATOM     14  O   LIG    1       -1.412   1.516   2.420  0.00  0.00    -0.249 OA
BRANCH  13  15
ATOM     15  O   LIG    1        0.022   0.710   0.882  0.00  0.00    -0.426 OA
BRANCH  15  16
ATOM     16  C   LIG    1        0.948   1.778   1.017  0.00  0.00    +0.472 C 
BRANCH  16  17
ATOM     17  O   LIG    1        2.054   1.615   0.157  0.00  0.00    -0.427 OA
BRANCH  17  18
ATOM     18  C   LIG    1        2.912   0.533   0.200  0.00  0.00    +0.315 C 
ATOM     19  O   LIG    1        2.720  -0.375   1.044  0.00  0.00    -0.250 OA
BRANCH  18  20
ATOM     20  C   LIG    1        4.046   0.471  -0.761  0.00  0.00    +0.059 C 
ATOM     21  C   LIG    1        4.891  -0.758  -0.542  0.00  0.00    +0.022 C 
ATOM     22  C   LIG    1        4.955   1.680  -0.599  0.00  0.00    +0.022 C 
ATOM     23  C   LIG    1        3.564   0.470  -2.193  0.00  0.00    +0.022 C 
ENDBRANCH  18  20
ENDBRANCH  17  18
ENDBRANCH  16  17
ENDBRANCH  15  16
ENDBRANCH  13  15
ENDBRANCH   2  13
TORSDOF 6
