REMARK  Name = molecules/OHXPGWPVLFPUSM-KLRNGDHRSA-N.pdb
REMARK                            x       y       z     vdW  Elec       q    Type
REMARK                         _______ _______ _______ _____ _____    ______ ____
ROOT
ATOM      1  O   LIG    1       -2.102  -3.253  -0.707  0.00  0.00    -0.297 OA
ATOM      2  C   LIG    1       -2.270  -2.084  -0.494  0.00  0.00    +0.137 C 
ATOM      3  C   LIG    1       -1.283  -1.126   0.016  0.00  0.00    +0.063 C 
ATOM      4  C   LIG    1        0.080  -1.425  -0.403  0.00  0.00    +0.013 C 
ATOM      5  C   LIG    1        1.116  -0.640   0.473  0.00  0.00    +0.033 C 
ATOM      6  C   LIG    1        0.967  -1.265   1.845  0.00  0.00    +0.019 C 
ATOM      7  C   LIG    1        0.585   0.713   0.427  0.00  0.00    +0.140 C 
ATOM      8  O   LIG    1        1.010   1.563   1.173  0.00  0.00    -0.297 OA
ATOM      9  C   LIG    1       -0.491   1.192  -0.493  0.00  0.00    +0.079 C 
ATOM     10  C   LIG    1        2.263  -1.058  -0.289  0.00  0.00    +0.005 C 
ATOM     11  C   LIG    1        2.135  -2.593  -0.193  0.00  0.00    +0.005 C 
ATOM     12  C   LIG    1        0.618  -2.783  -0.368  0.00  0.00    +0.005 C 
ATOM     13  C   LIG    1       -1.618   0.229  -0.649  0.00  0.00    +0.013 C 
ATOM     14  C   LIG    1       -2.890   0.787  -0.100  0.00  0.00    -0.024 C 
ATOM     15  C   LIG    1       -2.679   1.552   1.191  0.00  0.00    +0.012 C 
ATOM     16  C   LIG    1       -3.848  -0.353   0.185  0.00  0.00    +0.009 C 
ATOM     17  C   LIG    1       -5.293   0.084   0.085  0.00  0.00    +0.078 C 
ATOM     18  C   LIG    1       -5.468   1.533   0.232  0.00  0.00    +0.134 C 
ATOM     19  O   LIG    1       -6.277   1.992   1.019  0.00  0.00    -0.297 OA
ATOM     20  C   LIG    1       -4.666   2.486  -0.570  0.00  0.00    +0.075 C 
ATOM     21  C   LIG    1       -3.457   1.759  -1.113  0.00  0.00    +0.015 C 
ATOM     22  C   LIG    1       -3.643  -1.518  -0.777  0.00  0.00    +0.079 C 
ENDROOT
BRANCH  10  23
ATOM     23  C   LIG    1        3.643  -0.703  -0.111  0.00  0.00    -0.010 C 
ATOM     24  C   LIG    1        4.355  -1.223   1.112  0.00  0.00    +0.008 C 
BRANCH  23  25
ATOM     25  C   LIG    1        4.030   0.748  -0.218  0.00  0.00    +0.015 C 
BRANCH  25  26
ATOM     26  C   LIG    1        5.547   0.918  -0.012  0.00  0.00    +0.121 C 
BRANCH  26  27
ATOM     27  C   LIG    1        5.914   2.356  -0.134  0.00  0.00    +0.305 C 
ATOM     28  O   LIG    1        7.088   2.770  -0.009  0.00  0.00    -0.251 OA
BRANCH  27  29
ATOM     29  O   LIG    1        4.921   3.283  -0.397  0.00  0.00    -0.481 OA
ATOM     30  H   LIG    1        4.958   3.862  -1.246  0.00  0.00    +0.295 HD
ENDBRANCH  27  29
ENDBRANCH  26  27
ENDBRANCH  25  26
ENDBRANCH  23  25
ENDBRANCH  10  23
TORSDOF 5
