REMARK  Name = molecules/OIGNJSKKLXVSLS-VWUMJDOOSA-N.pdb
REMARK                            x       y       z     vdW  Elec       q    Type
REMARK                         _______ _______ _______ _____ _____    ______ ____
ROOT
ATOM      1  C   LIG    1        1.680  -1.240  -1.350  0.00  0.00    +0.015 C 
ATOM      2  C   LIG    1        1.599  -0.417  -0.085  0.00  0.00    +0.009 C 
ATOM      3  C   LIG    1        0.879  -1.114   0.999  0.00  0.00    +0.041 C 
ATOM      4  C   LIG    1       -0.536  -1.433   0.495  0.00  0.00    +0.120 C 
ATOM      5  C   LIG    1       -1.209  -0.137   0.238  0.00  0.00    +0.035 C 
ATOM      6  C   LIG    1       -2.642  -0.283  -0.237  0.00  0.00    +0.013 C 
ATOM      7  C   LIG    1       -3.345  -1.389   0.404  0.00  0.00    -0.012 C 
ATOM      8  C   LIG    1       -4.433  -1.236   1.134  0.00  0.00    +0.047 C 
ATOM      9  C   LIG    1       -5.019   0.059   1.355  0.00  0.00    +0.179 C 
ATOM     10  O   LIG    1       -6.046   0.147   2.051  0.00  0.00    -0.288 OA
ATOM     11  C   LIG    1       -4.358   1.204   0.738  0.00  0.00    +0.051 C 
ATOM     12  C   LIG    1       -3.271   1.039   0.011  0.00  0.00    -0.056 C 
ATOM     13  C   LIG    1       -2.617   2.207  -0.602  0.00  0.00    +0.032 C 
ATOM     14  C   LIG    1       -1.137   2.160  -0.625  0.00  0.00    +0.008 C 
ATOM     15  C   LIG    1       -2.673  -0.452  -1.766  0.00  0.00    +0.020 C 
ATOM     16  C   LIG    1       -0.521   0.792  -0.704  0.00  0.00    -0.000 C 
ATOM     17  C   LIG    1        2.957   0.120   0.232  0.00  0.00    +0.131 C 
ATOM     18  C   LIG    1        3.174   1.035  -0.990  0.00  0.00    +0.043 C 
ATOM     19  C   LIG    1        1.792   1.438  -1.458  0.00  0.00    +0.008 C 
ATOM     20  C   LIG    1        0.910   0.923  -0.350  0.00  0.00    +0.002 C 
ENDROOT
BRANCH   4  21
ATOM     21  O   LIG    1       -0.553  -2.260  -0.594  0.00  0.00    -0.391 OA
ATOM     22  H   LIG    1       -0.463  -3.230  -0.359  0.00  0.00    +0.210 HD
ENDBRANCH   4  21
BRANCH  17  23
ATOM     23  O   LIG    1        2.894   0.971   1.307  0.00  0.00    -0.380 OA
ATOM     24  H   LIG    1        2.330   0.725   2.049  0.00  0.00    +0.211 HD
ENDBRANCH  17  23
BRANCH  17  25
ATOM     25  C   LIG    1        4.008  -0.885   0.348  0.00  0.00    +0.190 C 
ATOM     26  O   LIG    1        4.234  -1.755  -0.478  0.00  0.00    -0.292 OA
BRANCH  25  27
ATOM     27  C   LIG    1        4.884  -0.874   1.547  0.00  0.00    +0.233 C 
BRANCH  27  28
ATOM     28  O   LIG    1        4.551   0.155   2.408  0.00  0.00    -0.387 OA
ATOM     29  H   LIG    1        4.597  -0.068   3.354  0.00  0.00    +0.210 HD
ENDBRANCH  27  28
ENDBRANCH  25  27
ENDBRANCH  17  25
TORSDOF 5
