REMARK  Name = molecules/OINXXHYENYVYPB-UHFFFAOYSA-N.pdb
REMARK                            x       y       z     vdW  Elec       q    Type
REMARK                         _______ _______ _______ _____ _____    ______ ____
ROOT
ATOM      1  C   LIG    1        0.946   0.843  -0.195  0.00  0.00    +0.129 A 
ATOM      2  C   LIG    1       -0.076  -0.061   0.015  0.00  0.00    +0.080 A 
ATOM      3  C   LIG    1        0.278  -1.375   0.241  0.00  0.00    +0.017 A 
ATOM      4  C   LIG    1        1.598  -1.787   0.261  0.00  0.00    +0.001 A 
ATOM      5  C   LIG    1        2.620  -0.880   0.051  0.00  0.00    +0.004 A 
ATOM      6  C   LIG    1        2.275   0.436  -0.176  0.00  0.00    +0.046 A 
ENDROOT
BRANCH   2   7
ATOM      7  C   LIG    1       -1.482   0.349  -0.002  0.00  0.00    +0.252 A 
ATOM      8  O   LIG    1       -2.493  -0.463   0.191  0.00  0.00    -0.423 OA
ATOM      9  C   LIG    1       -3.624   0.160   0.124  0.00  0.00    +0.332 A 
ATOM     10  N   LIG    1       -3.315   1.439  -0.124  0.00  0.00    -0.116 NA
ATOM     11  N   LIG    1       -2.002   1.564  -0.203  0.00  0.00    -0.107 NA
ENDBRANCH   2   7
BRANCH   1  12
ATOM     12  O   LIG    1        0.583   2.165  -0.423  0.00  0.00    -0.506 OA
ATOM     13  H   LIG    1        1.329   2.832  -0.577  0.00  0.00    +0.292 HD
ENDBRANCH   1  12
TORSDOF 2
