REMARK  Name = molecules/OIRCOABEOLEUMC-GEJPAHFPSA-N.pdb
REMARK                            x       y       z     vdW  Elec       q    Type
REMARK                         _______ _______ _______ _____ _____    ______ ____
ROOT
ATOM      1  N   LIG    1        4.693 -11.128   0.000  0.00  0.00    -0.163 NA
ATOM      2  H   LIG    1        3.939 -11.335   0.000  0.00  0.00    +0.163 HD
ENDROOT
TORSDOF 0
REMARK  Name = molecules/OIRCOABEOLEUMC-GEJPAHFPSA-N.pdb
REMARK                            x       y       z     vdW  Elec       q    Type
REMARK                         _______ _______ _______ _____ _____    ______ ____
ROOT
ATOM      1  N   LIG    1        3.742  -9.079   0.000  0.00  0.00    -0.284 N 
ATOM      2  C   LIG    1        2.860  -7.865   0.000  0.00  0.00    +0.082 A 
ATOM      3  C   LIG    1        1.433  -8.329   0.000  0.00  0.00    +0.007 A 
ATOM      4  C   LIG    1        1.433  -9.829   0.000  0.00  0.00    +0.032 A 
ATOM      5  C   LIG    1        2.860 -10.293   0.000  0.00  0.00    +0.070 A 
ENDROOT
BRANCH   2   6
ATOM      6  C   LIG    1        4.159  -7.115   0.000  0.00  0.00    +0.214 C 
ATOM      7  O   LIG    1        4.507  -5.816   0.000  0.00  0.00    -0.214 OA
ENDBRANCH   2   6
BRANCH   1   8
ATOM      8  C   LIG    1        5.242  -9.079   0.000  0.00  0.00    +0.286 C 
BRANCH   8   9
ATOM      9  O   LIG    1        5.796  -8.506   0.000  0.00  0.00    -0.235 OA
ATOM     10  N   LIG    1        5.458  -7.865   0.000  0.00  0.00    +0.043 NA
ENDBRANCH   8   9
ENDBRANCH   1   8
TORSDOF 3
REMARK  Name = molecules/OIRCOABEOLEUMC-GEJPAHFPSA-N.pdb
REMARK                            x       y       z     vdW  Elec       q    Type
REMARK                         _______ _______ _______ _____ _____    ______ ____
ROOT
ATOM      1  N   LIG    1        3.549  -3.147   0.000  0.00  0.00    -0.273 NA
ATOM      2  C   LIG    1        2.250  -3.897   0.000  0.00  0.00    +0.172 C 
ENDROOT
BRANCH   2   3
ATOM      3  C   LIG    1        0.951  -4.647   0.000  0.00  0.00    +0.226 C 
ATOM      4  N   LIG    1       -0.348  -3.897   0.000  0.00  0.00    -0.240 NA
BRANCH   3   5
ATOM      5  O   LIG    1        0.768  -6.136   0.000  0.00  0.00    -0.492 OA
ATOM      6  H   LIG    1        0.945  -6.911   0.000  0.00  0.00    +0.294 HD
ENDBRANCH   3   5
BRANCH   4   7
ATOM      7  C   LIG    1       -1.647  -4.647   0.000  0.00  0.00    +0.242 C 
BRANCH   7   8
ATOM      8  C   LIG    1       -2.946  -5.397   0.000  0.00  0.00    +0.253 C 
ATOM      9  N   LIG    1       -4.245  -4.647   0.000  0.00  0.00    -0.213 NA
ATOM     10  O   LIG    1       -2.946  -6.897   0.000  0.00  0.00    -0.272 OA
BRANCH   9  11
ATOM     11  C   LIG    1       -5.544  -5.397   0.000  0.00  0.00    +0.171 C 
BRANCH  11  12
ATOM     12  C   LIG    1       -6.843  -6.147   0.000  0.00  0.00    +0.149 C 
BRANCH  12  13
ATOM     13  O   LIG    1       -8.142  -5.397   0.000  0.00  0.00    -0.381 OA
ATOM     14  H   LIG    1       -8.243  -6.744   0.000  0.00  0.00    +0.210 HD
ENDBRANCH  12  13
ENDBRANCH  11  12
ENDBRANCH   9  11
ENDBRANCH   7   8
ENDBRANCH   4   7
ENDBRANCH   2   3
BRANCH   1  15
ATOM     15  C   LIG    1        4.848  -3.897   0.000  0.00  0.00    +0.135 C 
BRANCH  15  17
ATOM     16  N   LIG    1        6.757  -4.517   0.000  0.00  0.00    -0.263 NA
ATOM     17  C   LIG    1        6.147  -3.147   0.000  0.00  0.00    +0.092 C 
ATOM     18  C   LIG    1        7.262  -2.143   0.000  0.00  0.00    +0.023 C 
ATOM     19  C   LIG    1        8.561  -2.893   0.000  0.00  0.00    +0.017 C 
ATOM     20  C   LIG    1        8.249  -4.361   0.000  0.00  0.00    +0.088 C 
BRANCH  16  21
ATOM     21  C   LIG    1        6.007  -5.816   0.000  0.00  0.00    +0.207 C 
ATOM     22  C   LIG    1        6.757  -7.115   0.000  0.00  0.00    +0.059 C 
BRANCH  21  23
ATOM     23  O   LIG    1        4.848  -5.397   0.000  0.00  0.00    -0.210 OA
BRANCH  23  24
ATOM     24  O   LIG    1        4.159  -5.615   0.000  0.00  0.00    -0.248 OA
ATOM     25  H   LIG    1        3.000  -5.196   0.000  0.00  0.00    +0.253 HD
ENDBRANCH  23  24
ENDBRANCH  21  23
ENDBRANCH  16  21
ENDBRANCH  15  17
ENDBRANCH   1  15
TORSDOF 12
REMARK  Name = molecules/OIRCOABEOLEUMC-GEJPAHFPSA-N.pdb
REMARK                            x       y       z     vdW  Elec       q    Type
REMARK                         _______ _______ _______ _____ _____    ______ ____
ROOT
ATOM      1  N   LIG    1       -6.843  -7.647   0.000  0.00  0.00    -0.273 NA
ATOM      2  H   LIG    1       -8.015  -8.110   0.000  0.00  0.00    +0.137 HD
ATOM      3  H   LIG    1       -6.745  -8.606   0.000  0.00  0.00    +0.137 HD
ENDROOT
TORSDOF 0
REMARK  Name = molecules/OIRCOABEOLEUMC-GEJPAHFPSA-N.pdb
REMARK                            x       y       z     vdW  Elec       q    Type
REMARK                         _______ _______ _______ _____ _____    ______ ____
ROOT
ATOM      1  N   LIG    1      -10.740  -8.397   0.000  0.00  0.00    +0.000 NA
ENDROOT
TORSDOF 0
REMARK  Name = molecules/OIRCOABEOLEUMC-GEJPAHFPSA-N.pdb
REMARK                            x       y       z     vdW  Elec       q    Type
REMARK                         _______ _______ _______ _____ _____    ______ ____
ROOT
ATOM      1  N   LIG    1      -12.039 -11.745   0.000  0.00  0.00    +0.000 NA
ENDROOT
TORSDOF 0
REMARK  Name = molecules/OIRCOABEOLEUMC-GEJPAHFPSA-N.pdb
REMARK                            x       y       z     vdW  Elec       q    Type
REMARK                         _______ _______ _______ _____ _____    ______ ____
ROOT
ATOM      1  C   LIG    1       -9.789 -15.642   0.000  0.00  0.00    +0.173 C 
ATOM      2  O   LIG    1      -11.030 -15.979   0.000  0.00  0.00    -0.221 OA
ENDROOT
BRANCH   1   3
ATOM      3  C   LIG    1      -10.539 -14.343   0.000  0.00  0.00    +0.117 C 
BRANCH   3   4
ATOM      4  N   LIG    1       -9.039 -14.343   0.000  0.00  0.00    -0.243 NA
ATOM      5  H   LIG    1       -9.460 -13.301   0.000  0.00  0.00    +0.141 HD
ENDBRANCH   3   4
ENDBRANCH   1   3
BRANCH   1   6
ATOM      6  C   LIG    1       -9.588 -16.392   0.000  0.00  0.00    +0.082 C 
BRANCH   6   7
ATOM      7  C   LIG    1       -9.039 -16.941   0.000  0.00  0.00    +0.192 C 
ATOM      8  O   LIG    1       -7.539 -16.941   0.000  0.00  0.00    -0.343 OA
ATOM      9  C   LIG    1       -8.289 -15.642   0.000  0.00  0.00    +0.204 C 
ATOM     10  N   LIG    1       -9.588 -17.892   0.000  0.00  0.00    -0.102 NA
ENDBRANCH   6   7
ENDBRANCH   1   6
TORSDOF 4
REMARK  Name = molecules/OIRCOABEOLEUMC-GEJPAHFPSA-N.pdb
REMARK                            x       y       z     vdW  Elec       q    Type
REMARK                         _______ _______ _______ _____ _____    ______ ____
ROOT
ATOM      1  C   LIG    1      -15.187 -16.794   0.000  0.00  0.00    +0.033 C 
ENDROOT
BRANCH   1   3
ATOM      2  N   LIG    1      -13.137 -17.343   0.000  0.00  0.00    -0.140 NA
ATOM      3  C   LIG    1      -13.887 -16.044   0.000  0.00  0.00    +0.097 C 
ATOM      4  C   LIG    1      -12.588 -15.294   0.000  0.00  0.00    +0.019 C 
ENDBRANCH   1   3
BRANCH   1   5
ATOM      5  C   LIG    1      -16.486 -17.544   0.000  0.00  0.00    +0.127 C 
BRANCH   5   6
ATOM      6  C   LIG    1      -17.785 -18.294   0.000  0.00  0.00    +0.356 C 
ATOM      7  O   LIG    1      -19.084 -17.544   0.000  0.00  0.00    -0.246 OA
ATOM      8  O   LIG    1      -17.785 -19.794   0.000  0.00  0.00    -0.246 OA
ENDBRANCH   5   6
ENDBRANCH   1   5
TORSDOF 3
REMARK  Name = molecules/OIRCOABEOLEUMC-GEJPAHFPSA-N.pdb
REMARK                            x       y       z     vdW  Elec       q    Type
REMARK                         _______ _______ _______ _____ _____    ______ ____
ROOT
ATOM      1  N   LIG    1      -12.588 -13.794   0.000  0.00  0.00    +0.000 NA
ENDROOT
TORSDOF 0
REMARK  Name = molecules/OIRCOABEOLEUMC-GEJPAHFPSA-N.pdb
REMARK                            x       y       z     vdW  Elec       q    Type
REMARK                         _______ _______ _______ _____ _____    ______ ____
ROOT
ATOM      1  N   LIG    1      -11.289 -10.446   0.000  0.00  0.00    +0.119 NA
ATOM      2  O   LIG    1      -12.297 -11.210   0.000  0.00  0.00    -0.119 OA
ENDROOT
TORSDOF 0
REMARK  Name = molecules/OIRCOABEOLEUMC-GEJPAHFPSA-N.pdb
REMARK                            x       y       z     vdW  Elec       q    Type
REMARK                         _______ _______ _______ _____ _____    ______ ____
ROOT
ATOM      1  N   LIG    1      -14.637  -9.147   0.000  0.00  0.00    -0.032 NA
ATOM      2  C   LIG    1      -15.343  -9.008   0.000  0.00  0.00    +0.119 C 
ATOM      3  C   LIG    1      -16.008  -9.757   0.000  0.00  0.00    +0.057 C 
ATOM      4  O   LIG    1      -13.854  -8.825   0.000  0.00  0.00    -0.143 OA
ENDROOT
TORSDOF 0
REMARK  Name = molecules/OIRCOABEOLEUMC-GEJPAHFPSA-N.pdb
REMARK                            x       y       z     vdW  Elec       q    Type
REMARK                         _______ _______ _______ _____ _____    ______ ____
ROOT
ATOM      1  N   LIG    1      -12.544  -6.356   0.000  0.00  0.00    -0.152 NA
ATOM      2  C   LIG    1      -13.539  -6.549   0.000  0.00  0.00    +0.093 C 
ATOM      3  C   LIG    1      -13.495  -7.307   0.000  0.00  0.00    +0.066 C 
ENDROOT
BRANCH   2   4
ATOM      4  C   LIG    1      -13.495  -5.807   0.000  0.00  0.00    +0.138 C 
ATOM      5  N   LIG    1      -12.789  -5.250   0.000  0.00  0.00    -0.145 NA
ENDBRANCH   2   4
TORSDOF 1
REMARK  Name = molecules/OIRCOABEOLEUMC-GEJPAHFPSA-N.pdb
REMARK                            x       y       z     vdW  Elec       q    Type
REMARK                         _______ _______ _______ _____ _____    ______ ____
ROOT
ATOM      1  N   LIG    1       -9.745  -8.606   0.000  0.00  0.00    -0.226 NA
ATOM      2  C   LIG    1      -10.740  -8.397   0.000  0.00  0.00    +0.107 C 
ATOM      3  C   LIG    1       -9.441  -7.647   0.000  0.00  0.00    +0.120 C 
ENDROOT
TORSDOF 0
REMARK  Name = molecules/OIRCOABEOLEUMC-GEJPAHFPSA-N.pdb
REMARK                            x       y       z     vdW  Elec       q    Type
REMARK                         _______ _______ _______ _____ _____    ______ ____
ROOT
ATOM      1  N   LIG    1      -11.995  -8.807   0.000  0.00  0.00    +0.000 NA
ENDROOT
TORSDOF 0
REMARK  Name = molecules/OIRCOABEOLEUMC-GEJPAHFPSA-N.pdb
REMARK                            x       y       z     vdW  Elec       q    Type
REMARK                         _______ _______ _______ _____ _____    ______ ____
ROOT
ATOM      1  N   LIG    1      -14.794 -11.057   0.000  0.00  0.00    -0.163 NA
ATOM      2  H   LIG    1      -15.594 -11.199   0.000  0.00  0.00    +0.163 HD
ENDROOT
TORSDOF 0
REMARK  Name = molecules/OIRCOABEOLEUMC-GEJPAHFPSA-N.pdb
REMARK                            x       y       z     vdW  Elec       q    Type
REMARK                         _______ _______ _______ _____ _____    ______ ____
ROOT
ATOM      1  O   HOH    1      -16.093  -7.709   0.000  0.00  0.00    -0.253 OA
ATOM      2  H   HOH    0      -14.984  -7.124   0.000  0.00  0.00    +0.253 HD
ENDROOT
TORSDOF 0
REMARK  Name = molecules/OIRCOABEOLEUMC-GEJPAHFPSA-N.pdb
REMARK                            x       y       z     vdW  Elec       q    Type
REMARK                         _______ _______ _______ _____ _____    ______ ____
ROOT
ATOM      1  C   LIG    1        6.742 -11.677   0.000  0.00  0.00    -0.000 C 
ENDROOT
TORSDOF 0
REMARK  Name = molecules/OIRCOABEOLEUMC-GEJPAHFPSA-N.pdb
REMARK                            x       y       z     vdW  Elec       q    Type
REMARK                         _______ _______ _______ _____ _____    ______ ____
ROOT
ATOM      1  C   LIG    1        7.492 -12.976   0.000  0.00  0.00    +0.151 C 
ATOM      2  N   LIG    1        7.507 -13.611   0.000  0.00  0.00    -0.276 NA
ATOM      3  C   LIG    1        6.742 -14.275   0.000  0.00  0.00    +0.125 C 
ENDROOT
TORSDOF 0
REMARK  Name = molecules/OIRCOABEOLEUMC-GEJPAHFPSA-N.pdb
REMARK                            x       y       z     vdW  Elec       q    Type
REMARK                         _______ _______ _______ _____ _____    ______ ____
ROOT
ATOM      1  C   LIG    1        8.992 -12.976   0.000  0.00  0.00    +0.107 C 
ATOM      2  N   LIG    1        9.757 -12.312   0.000  0.00  0.00    -0.127 NA
ATOM      3  C   LIG    1        9.007 -13.611   0.000  0.00  0.00    +0.040 C 
ENDROOT
BRANCH   3   4
ATOM      4  C   LIG    1        9.742 -14.275   0.000  0.00  0.00    +0.094 C 
ATOM      5  N   LIG    1        9.757 -14.910   0.000  0.00  0.00    -0.273 NA
ATOM      6  C   LIG    1        8.992 -15.574   0.000  0.00  0.00    +0.159 C 
ENDBRANCH   3   4
TORSDOF 1
REMARK  Name = molecules/OIRCOABEOLEUMC-GEJPAHFPSA-N.pdb
REMARK                            x       y       z     vdW  Elec       q    Type
REMARK                         _______ _______ _______ _____ _____    ______ ____
ROOT
ATOM      1  C   LIG    1        5.992 -10.378   0.000  0.00  0.00    -0.000 C 
ENDROOT
TORSDOF 0
REMARK  Name = molecules/OIRCOABEOLEUMC-GEJPAHFPSA-N.pdb
REMARK                            x       y       z     vdW  Elec       q    Type
REMARK                         _______ _______ _______ _____ _____    ______ ____
ROOT
ATOM      1  C   LIG    1        7.492 -15.574   0.000  0.00  0.00    +0.000 C 
ENDROOT
TORSDOF 0
REMARK  Name = molecules/OIRCOABEOLEUMC-GEJPAHFPSA-N.pdb
REMARK                            x       y       z     vdW  Elec       q    Type
REMARK                         _______ _______ _______ _____ _____    ______ ____
ROOT
ATOM      1  C   LIG    1        7.507  -8.415   0.000  0.00  0.00    +0.000 C 
ENDROOT
TORSDOF 0
REMARK  Name = molecules/OIRCOABEOLEUMC-GEJPAHFPSA-N.pdb
REMARK                            x       y       z     vdW  Elec       q    Type
REMARK                         _______ _______ _______ _____ _____    ______ ____
ROOT
ATOM      1  C   LIG    1        8.257  -9.714   0.000  0.00  0.00    +0.000 C 
ENDROOT
TORSDOF 0
REMARK  Name = molecules/OIRCOABEOLEUMC-GEJPAHFPSA-N.pdb
REMARK                            x       y       z     vdW  Elec       q    Type
REMARK                         _______ _______ _______ _____ _____    ______ ____
ROOT
ATOM      1  C   LIG    1        9.007 -11.013   0.000  0.00  0.00    -0.000 C 
ENDROOT
TORSDOF 0
REMARK  Name = molecules/OIRCOABEOLEUMC-GEJPAHFPSA-N.pdb
REMARK                            x       y       z     vdW  Elec       q    Type
REMARK                         _______ _______ _______ _____ _____    ______ ____
ROOT
ATOM      1  C   LIG    1       -9.441  -9.147   0.000  0.00  0.00    -0.005 C 
ATOM      2  C   LIG    1       -9.990  -9.696   0.000  0.00  0.00    -0.026 C 
ATOM      3  C   LIG    1      -11.245 -10.106   0.000  0.00  0.00    +0.031 C 
ENDROOT
TORSDOF 0
REMARK  Name = molecules/OIRCOABEOLEUMC-GEJPAHFPSA-N.pdb
REMARK                            x       y       z     vdW  Elec       q    Type
REMARK                         _______ _______ _______ _____ _____    ______ ____
ROOT
ATOM      1  C   LIG    1       -8.142  -8.397   0.000  0.00  0.00    +0.000 C 
ENDROOT
TORSDOF 0
REMARK  Name = molecules/OIRCOABEOLEUMC-GEJPAHFPSA-N.pdb
REMARK                            x       y       z     vdW  Elec       q    Type
REMARK                         _______ _______ _______ _____ _____    ______ ____
ROOT
ATOM      1  O   LIG    1       -8.438 -10.262   0.000  0.00  0.00    -0.234 OA
ATOM      2  C   LIG    1       -9.240 -10.995   0.000  0.00  0.00    +0.210 C 
ATOM      3  C   LIG    1       -9.745 -10.106   0.000  0.00  0.00    +0.024 C 
ENDROOT
TORSDOF 0
REMARK  Name = molecules/OIRCOABEOLEUMC-GEJPAHFPSA-N.pdb
REMARK                            x       y       z     vdW  Elec       q    Type
REMARK                         _______ _______ _______ _____ _____    ______ ____
ROOT
ATOM      1  C   LIG    1      -11.289 -10.446   0.000  0.00  0.00    +0.000 C 
ENDROOT
TORSDOF 0
REMARK  Name = molecules/OIRCOABEOLEUMC-GEJPAHFPSA-N.pdb
REMARK                            x       y       z     vdW  Elec       q    Type
REMARK                         _______ _______ _______ _____ _____    ______ ____
ROOT
ATOM      1  C   LIG    1      -12.789  -7.848   0.000  0.00  0.00    +0.169 C 
ATOM      2  O   LIG    1      -12.392  -7.198   0.000  0.00  0.00    -0.379 OA
ATOM      3  H   LIG    1      -11.710  -6.806   0.000  0.00  0.00    +0.211 HD
ENDROOT
TORSDOF 0
REMARK  Name = molecules/OIRCOABEOLEUMC-GEJPAHFPSA-N.pdb
REMARK                            x       y       z     vdW  Elec       q    Type
REMARK                         _______ _______ _______ _____ _____    ______ ____
ROOT
ATOM      1  O   LIG    1      -14.940  -6.011   0.000  0.00  0.00    -0.379 OA
ATOM      2  C   LIG    1      -14.794  -5.057   0.000  0.00  0.00    +0.169 C 
ATOM      3  H   LIG    1      -15.507  -6.328   0.000  0.00  0.00    +0.211 HD
ENDROOT
TORSDOF 0
REMARK  Name = molecules/OIRCOABEOLEUMC-GEJPAHFPSA-N.pdb
REMARK                            x       y       z     vdW  Elec       q    Type
REMARK                         _______ _______ _______ _____ _____    ______ ____
ROOT
ATOM      1  C   LIG    1      -12.039  -9.147   0.000  0.00  0.00    +0.000 C 
ENDROOT
TORSDOF 0
REMARK  Name = molecules/OIRCOABEOLEUMC-GEJPAHFPSA-N.pdb
REMARK                            x       y       z     vdW  Elec       q    Type
REMARK                         _______ _______ _______ _____ _____    ______ ____
ROOT
ATOM      1  O   HOH    1      -10.451 -11.690   0.000  0.00  0.00    -0.410 OA
ATOM      2  H   HOH    0       -9.208 -11.507   0.000  0.00  0.00    +0.205 HD
ATOM      3  H   HOH    0       -9.909 -12.458   0.000  0.00  0.00    +0.205 HD
ENDROOT
TORSDOF 0
REMARK  Name = molecules/OIRCOABEOLEUMC-GEJPAHFPSA-N.pdb
REMARK                            x       y       z     vdW  Elec       q    Type
REMARK                         _______ _______ _______ _____ _____    ______ ____
ROOT
ATOM      1  C   LIG    1      -10.539 -14.343   0.000  0.00  0.00    +0.000 C 
ENDROOT
TORSDOF 0
REMARK  Name = molecules/OIRCOABEOLEUMC-GEJPAHFPSA-N.pdb
REMARK                            x       y       z     vdW  Elec       q    Type
REMARK                         _______ _______ _______ _____ _____    ______ ____
ROOT
ATOM      1  C   LIG    1      -11.289 -13.044   0.000  0.00  0.00    +0.000 C 
ENDROOT
TORSDOF 0
REMARK  Name = molecules/OIRCOABEOLEUMC-GEJPAHFPSA-N.pdb
REMARK                            x       y       z     vdW  Elec       q    Type
REMARK                         _______ _______ _______ _____ _____    ______ ____
ROOT
ATOM      1  O   HOH    1      -11.126 -15.724   0.000  0.00  0.00    -0.253 OA
ATOM      2  H   HOH    0      -11.088 -16.392   0.000  0.00  0.00    +0.253 HD
ENDROOT
TORSDOF 0
REMARK  Name = molecules/OIRCOABEOLEUMC-GEJPAHFPSA-N.pdb
REMARK                            x       y       z     vdW  Elec       q    Type
REMARK                         _______ _______ _______ _____ _____    ______ ____
ROOT
ATOM      1  C   LIG    1       -6.990 -14.892   0.000  0.00  0.00    +0.136 C 
ATOM      2  C   LIG    1       -5.691 -14.142   0.000  0.00  0.00    +0.357 C 
ATOM      3  O   LIG    1       -5.691 -12.642   0.000  0.00  0.00    -0.246 OA
ATOM      4  O   LIG    1       -4.392 -14.892   0.000  0.00  0.00    -0.246 OA
ENDROOT
TORSDOF 0
REMARK  Name = molecules/OIRCOABEOLEUMC-GEJPAHFPSA-N.pdb
REMARK                            x       y       z     vdW  Elec       q    Type
REMARK                         _______ _______ _______ _____ _____    ______ ____
ROOT
ATOM      1  C   LIG    1      -11.637 -17.343   0.000  0.00  0.00    +0.221 C 
ATOM      2  O   LIG    1      -11.509 -16.336   0.000  0.00  0.00    -0.186 OA
ATOM      3  O   LIG    1      -10.887 -16.044   0.000  0.00  0.00    -0.035 OA
ENDROOT
TORSDOF 0
REMARK  Name = molecules/OIRCOABEOLEUMC-GEJPAHFPSA-N.pdb
REMARK                            x       y       z     vdW  Elec       q    Type
REMARK                         _______ _______ _______ _____ _____    ______ ____
ROOT
ATOM      1  C   LIG    1       -9.387 -21.240   0.000  0.00  0.00    -0.043 A 
ATOM      2  C   LIG    1      -10.137 -22.539   0.000  0.00  0.00    +0.004 A 
ATOM      3  C   LIG    1       -9.387 -23.838   0.000  0.00  0.00    +0.000 A 
ATOM      4  C   LIG    1       -7.888 -23.838   0.000  0.00  0.00    +0.000 A 
ATOM      5  C   LIG    1       -7.138 -22.539   0.000  0.00  0.00    +0.000 A 
ATOM      6  C   LIG    1       -7.888 -21.240   0.000  0.00  0.00    +0.004 A 
ENDROOT
BRANCH   1   7
ATOM      7  C   LIG    1      -10.137 -19.941   0.000  0.00  0.00    +0.035 C 
ATOM      8  C   LIG    1      -10.887 -18.642   0.000  0.00  0.00    +0.000 C 
ENDBRANCH   1   7
TORSDOF 1
REMARK  Name = molecules/OIRCOABEOLEUMC-GEJPAHFPSA-N.pdb
REMARK                            x       y       z     vdW  Elec       q    Type
REMARK                         _______ _______ _______ _____ _____    ______ ____
ROOT
ATOM      1  C   LIG    1      -12.039 -11.745   0.000  0.00  0.00    +0.225 C 
ATOM      2  O   LIG    1      -12.411 -11.050   0.000  0.00  0.00    -0.225 OA
ENDROOT
TORSDOF 0
REMARK  Name = molecules/OIRCOABEOLEUMC-GEJPAHFPSA-N.pdb
REMARK                            x       y       z     vdW  Elec       q    Type
REMARK                         _______ _______ _______ _____ _____    ______ ____
ROOT
ATOM      1  O   HOH    1       -9.453 -18.383   0.000  0.00  0.00    -0.410 OA
ATOM      2  H   HOH    0       -8.757 -19.355   0.000  0.00  0.00    +0.205 HD
ATOM      3  H   HOH    0       -8.208 -18.478   0.000  0.00  0.00    +0.205 HD
ENDROOT
TORSDOF 0
REMARK  Name = molecules/OIRCOABEOLEUMC-GEJPAHFPSA-N.pdb
REMARK                            x       y       z     vdW  Elec       q    Type
REMARK                         _______ _______ _______ _____ _____    ______ ____
ROOT
ATOM      1  C   LIG    1      -11.289 -13.044   0.000  0.00  0.00    +0.000 C 
ENDROOT
TORSDOF 0
REMARK  Name = molecules/OIRCOABEOLEUMC-GEJPAHFPSA-N.pdb
REMARK                            x       y       z     vdW  Elec       q    Type
REMARK                         _______ _______ _______ _____ _____    ______ ____
ROOT
ATOM      1  O   HOH    1      -13.539 -11.745   0.000  0.00  0.00    -0.253 OA
ATOM      2  H   HOH    0      -13.887 -13.044   0.000  0.00  0.00    +0.253 HD
ENDROOT
TORSDOF 0
REMARK  Name = molecules/OIRCOABEOLEUMC-GEJPAHFPSA-N.pdb
REMARK                            x       y       z     vdW  Elec       q    Type
REMARK                         _______ _______ _______ _____ _____    ______ ____
ROOT
ATOM      1  C   LIG    1      -13.338  -9.897   0.000  0.00  0.00    +0.000 C 
ENDROOT
TORSDOF 0
REMARK  Name = molecules/OIRCOABEOLEUMC-GEJPAHFPSA-N.pdb
REMARK                            x       y       z     vdW  Elec       q    Type
REMARK                         _______ _______ _______ _____ _____    ______ ____
ROOT
ATOM      1  C   LIG    1      -12.039  -9.147   0.000  0.00  0.00    +0.293 C 
ATOM      2  O   LIG    1      -12.708  -9.036   0.000  0.00  0.00    -0.293 OA
ENDROOT
TORSDOF 0
REMARK  Name = molecules/OIRCOABEOLEUMC-GEJPAHFPSA-N.pdb
REMARK                            x       y       z     vdW  Elec       q    Type
REMARK                         _______ _______ _______ _____ _____    ______ ____
ROOT
ATOM      1  O   LIG    1      -13.701 -11.352   0.000  0.00  0.00    -0.386 OA
ATOM      2  C   LIG    1      -13.495 -10.307   0.000  0.00  0.00    +0.176 C 
ATOM      3  H   LIG    1      -13.495 -12.108   0.000  0.00  0.00    +0.210 HD
ENDROOT
TORSDOF 0
REMARK  Name = molecules/OIRCOABEOLEUMC-GEJPAHFPSA-N.pdb
REMARK                            x       y       z     vdW  Elec       q    Type
REMARK                         _______ _______ _______ _____ _____    ______ ____
ROOT
ATOM      1  C   LIG    1      -13.294  -7.655   0.000  0.00  0.00    +0.000 C 
ENDROOT
TORSDOF 0
REMARK  Name = molecules/OIRCOABEOLEUMC-GEJPAHFPSA-N.pdb
REMARK                            x       y       z     vdW  Elec       q    Type
REMARK                         _______ _______ _______ _____ _____    ______ ____
ROOT
ATOM      1  C   LIG    1      -14.794  -7.655   0.000  0.00  0.00    +0.000 C 
ENDROOT
TORSDOF 0
REMARK  Name = molecules/OIRCOABEOLEUMC-GEJPAHFPSA-N.pdb
REMARK                            x       y       z     vdW  Elec       q    Type
REMARK                         _______ _______ _______ _____ _____    ______ ____
ROOT
ATOM      1  C   LIG    1      -16.262  -7.343   0.000  0.00  0.00    +0.000 C 
ENDROOT
TORSDOF 0
REMARK  Name = molecules/OIRCOABEOLEUMC-GEJPAHFPSA-N.pdb
REMARK                            x       y       z     vdW  Elec       q    Type
REMARK                         _______ _______ _______ _____ _____    ______ ____
ROOT
ATOM      1  C   LIG    1      -17.012  -8.643   0.000  0.00  0.00    -0.000 C 
ENDROOT
TORSDOF 0
REMARK  Name = molecules/OIRCOABEOLEUMC-GEJPAHFPSA-N.pdb
REMARK                            x       y       z     vdW  Elec       q    Type
REMARK                         _______ _______ _______ _____ _____    ______ ____
ROOT
ATOM      1  C   LIG    1      -11.044  -7.856   0.000  0.00  0.00    +0.000 C 
ENDROOT
TORSDOF 0
REMARK  Name = molecules/OIRCOABEOLEUMC-GEJPAHFPSA-N.pdb
REMARK                            x       y       z     vdW  Elec       q    Type
REMARK                         _______ _______ _______ _____ _____    ______ ____
ROOT
ATOM      1  C   LIG    1      -11.044  -4.856   0.000  0.00  0.00    +0.000 C 
ENDROOT
TORSDOF 0
REMARK  Name = molecules/OIRCOABEOLEUMC-GEJPAHFPSA-N.pdb
REMARK                            x       y       z     vdW  Elec       q    Type
REMARK                         _______ _______ _______ _____ _____    ______ ____
ROOT
ATOM      1  C   LIG    1      -11.044  -3.356   0.000  0.00  0.00    -0.018 C 
ATOM      2  C   LIG    1      -12.196  -3.557   0.000  0.00  0.00    +0.018 C 
ENDROOT
TORSDOF 0
REMARK  Name = molecules/OIRCOABEOLEUMC-GEJPAHFPSA-N.pdb
REMARK                            x       y       z     vdW  Elec       q    Type
REMARK                         _______ _______ _______ _____ _____    ______ ____
ROOT
ATOM      1  O   LIG    1      -12.343  -1.106   0.000  0.00  0.00    -0.253 OA
ENDROOT
BRANCH   1   2
ATOM      2  C   LIG    1      -11.044  -1.856   0.000  0.00  0.00    +0.500 C 
ATOM      3  O   LIG    1       -9.745  -1.106   0.000  0.00  0.00    -0.250 OA
ENDBRANCH   1   2
BRANCH   1   4
ATOM      4  O   LIG    1      -13.495  -1.307   0.000  0.00  0.00    -0.293 OA
BRANCH   4   5
ATOM      5  C   LIG    1      -13.495  -2.807   0.000  0.00  0.00    +0.251 C 
ATOM      6  C   LIG    1      -14.794  -3.557   0.000  0.00  0.00    +0.046 C 
ENDBRANCH   4   5
ENDBRANCH   1   4
TORSDOF 3
REMARK  Name = molecules/OIRCOABEOLEUMC-GEJPAHFPSA-N.pdb
REMARK                            x       y       z     vdW  Elec       q    Type
REMARK                         _______ _______ _______ _____ _____    ______ ____
ROOT
ATOM      1  C   LIG    1      -11.044  -6.356   0.000  0.00  0.00    +0.000 C 
ENDROOT
TORSDOF 0
REMARK  Name = molecules/OIRCOABEOLEUMC-GEJPAHFPSA-N.pdb
REMARK                            x       y       z     vdW  Elec       q    Type
REMARK                         _______ _______ _______ _____ _____    ______ ____
ROOT
ATOM      1  C   LIG    1       -8.245 -10.106   0.000  0.00  0.00    +0.000 C 
ENDROOT
TORSDOF 0
REMARK  Name = molecules/OIRCOABEOLEUMC-GEJPAHFPSA-N.pdb
REMARK                            x       y       z     vdW  Elec       q    Type
REMARK                         _______ _______ _______ _____ _____    ______ ____
ROOT
ATOM      1  C   LIG    1       -6.745 -10.106   0.000  0.00  0.00    +0.000 C 
ENDROOT
TORSDOF 0
REMARK  Name = molecules/OIRCOABEOLEUMC-GEJPAHFPSA-N.pdb
REMARK                            x       y       z     vdW  Elec       q    Type
REMARK                         _______ _______ _______ _____ _____    ______ ____
ROOT
ATOM      1  C   LIG    1       -5.245 -10.106   0.000  0.00  0.00    +0.287 C 
ENDROOT
BRANCH   1   2
ATOM      2  O   LIG    1       -4.495 -11.405   0.000  0.00  0.00    -0.357 OA
ATOM      3  H   LIG    1       -4.249 -12.229   0.000  0.00  0.00    +0.213 HD
ENDBRANCH   1   2
BRANCH   1   4
ATOM      4  O   LIG    1       -4.495  -8.807   0.000  0.00  0.00    -0.357 OA
ATOM      5  H   LIG    1       -5.544  -8.397   0.000  0.00  0.00    +0.213 HD
ENDBRANCH   1   4
TORSDOF 2
REMARK  Name = molecules/OIRCOABEOLEUMC-GEJPAHFPSA-N.pdb
REMARK                            x       y       z     vdW  Elec       q    Type
REMARK                         _______ _______ _______ _____ _____    ______ ____
ROOT
ATOM      1  C   LIG    1      -12.196  -5.057   0.000  0.00  0.00    -0.000 C 
ENDROOT
TORSDOF 0
REMARK  Name = molecules/OIRCOABEOLEUMC-GEJPAHFPSA-N.pdb
REMARK                            x       y       z     vdW  Elec       q    Type
REMARK                         _______ _______ _______ _____ _____    ______ ____
ROOT
ATOM      1  C   LIG    1      -13.495  -8.807   0.000  0.00  0.00    +0.000 C 
ENDROOT
TORSDOF 0
REMARK  Name = molecules/OIRCOABEOLEUMC-GEJPAHFPSA-N.pdb
REMARK                            x       y       z     vdW  Elec       q    Type
REMARK                         _______ _______ _______ _____ _____    ______ ____
ROOT
ATOM      1  C   LIG    1      -18.343 -14.204   0.000  0.00  0.00    +0.008 C 
ATOM      2  C   LIG    1      -17.593 -12.905   0.000  0.00  0.00    -0.008 C 
ENDROOT
TORSDOF 0
REMARK  Name = molecules/OIRCOABEOLEUMC-GEJPAHFPSA-N.pdb
REMARK                            x       y       z     vdW  Elec       q    Type
REMARK                         _______ _______ _______ _____ _____    ______ ____
ROOT
ATOM      1  C   LIG    1      -16.843 -11.606   0.000  0.00  0.00    +0.000 C 
ENDROOT
TORSDOF 0
REMARK  Name = molecules/OIRCOABEOLEUMC-GEJPAHFPSA-N.pdb
REMARK                            x       y       z     vdW  Elec       q    Type
REMARK                         _______ _______ _______ _____ _____    ______ ____
ROOT
ATOM      1  C   LIG    1      -16.093 -10.307   0.000  0.00  0.00    +0.000 C 
ENDROOT
TORSDOF 0
REMARK  Name = molecules/OIRCOABEOLEUMC-GEJPAHFPSA-N.pdb
REMARK                            x       y       z     vdW  Elec       q    Type
REMARK                         _______ _______ _______ _____ _____    ______ ____
ROOT
ATOM      1  C   LIG    1      -16.294 -13.655   0.000  0.00  0.00    -0.000 C 
ENDROOT
TORSDOF 0
REMARK  Name = molecules/OIRCOABEOLEUMC-GEJPAHFPSA-N.pdb
REMARK                            x       y       z     vdW  Elec       q    Type
REMARK                         _______ _______ _______ _____ _____    ______ ____
ROOT
ATOM      1  H   UNK    1        3.251 -10.715   0.000  0.00  0.00    +0.000 HD
ENDROOT
TORSDOF 0
REMARK  Name = molecules/OIRCOABEOLEUMC-GEJPAHFPSA-N.pdb
REMARK                            x       y       z     vdW  Elec       q    Type
REMARK                         _______ _______ _______ _____ _____    ______ ____
ROOT
ATOM      1  H   UNK    1        4.510 -12.617   0.000  0.00  0.00    +0.000 HD
ENDROOT
TORSDOF 0
REMARK  Name = molecules/OIRCOABEOLEUMC-GEJPAHFPSA-N.pdb
REMARK                            x       y       z     vdW  Elec       q    Type
REMARK                         _______ _______ _______ _____ _____    ______ ____
ROOT
ATOM      1  H   UNK    1        3.549  -1.647   0.000  0.00  0.00    +0.000 HD
ENDROOT
TORSDOF 0
REMARK  Name = molecules/OIRCOABEOLEUMC-GEJPAHFPSA-N.pdb
REMARK                            x       y       z     vdW  Elec       q    Type
REMARK                         _______ _______ _______ _____ _____    ______ ____
ROOT
ATOM      1  H   UNK    1       -0.348  -2.397   0.000  0.00  0.00    +0.000 HD
ENDROOT
TORSDOF 0
REMARK  Name = molecules/OIRCOABEOLEUMC-GEJPAHFPSA-N.pdb
REMARK                            x       y       z     vdW  Elec       q    Type
REMARK                         _______ _______ _______ _____ _____    ______ ____
ROOT
ATOM      1  H   UNK    1       -4.245  -3.147   0.000  0.00  0.00    +0.000 HD
ENDROOT
TORSDOF 0
REMARK  Name = molecules/OIRCOABEOLEUMC-GEJPAHFPSA-N.pdb
REMARK                            x       y       z     vdW  Elec       q    Type
REMARK                         _______ _______ _______ _____ _____    ______ ____
ROOT
ATOM      1  H   UNK    1       -8.289 -13.044   0.000  0.00  0.00    +0.000 HD
ENDROOT
TORSDOF 0
REMARK  Name = molecules/OIRCOABEOLEUMC-GEJPAHFPSA-N.pdb
REMARK                            x       y       z     vdW  Elec       q    Type
REMARK                         _______ _______ _______ _____ _____    ______ ____
ROOT
ATOM      1  H   UNK    1      -13.724 -18.724   0.000  0.00  0.00    +0.000 HD
ENDROOT
TORSDOF 0
REMARK  Name = molecules/OIRCOABEOLEUMC-GEJPAHFPSA-N.pdb
REMARK                            x       y       z     vdW  Elec       q    Type
REMARK                         _______ _______ _______ _____ _____    ______ ____
ROOT
ATOM      1  H   UNK    1      -14.794 -12.557   0.000  0.00  0.00    +0.000 HD
ENDROOT
TORSDOF 0
REMARK  Name = molecules/OIRCOABEOLEUMC-GEJPAHFPSA-N.pdb
REMARK                            x       y       z     vdW  Elec       q    Type
REMARK                         _______ _______ _______ _____ _____    ______ ____
ROOT
ATOM      1  H   UNK    1        5.544 -12.580   0.000  0.00  0.00    +0.000 HD
ENDROOT
TORSDOF 0
REMARK  Name = molecules/OIRCOABEOLEUMC-GEJPAHFPSA-N.pdb
REMARK                            x       y       z     vdW  Elec       q    Type
REMARK                         _______ _______ _______ _____ _____    ______ ____
ROOT
ATOM      1  H   UNK    1        6.742 -16.873   0.000  0.00  0.00    +0.000 HD
ENDROOT
TORSDOF 0
REMARK  Name = molecules/OIRCOABEOLEUMC-GEJPAHFPSA-N.pdb
REMARK                            x       y       z     vdW  Elec       q    Type
REMARK                         _______ _______ _______ _____ _____    ______ ____
ROOT
ATOM      1  H   UNK    1       11.242 -14.275   0.000  0.00  0.00    +0.000 HD
ENDROOT
TORSDOF 0
REMARK  Name = molecules/OIRCOABEOLEUMC-GEJPAHFPSA-N.pdb
REMARK                            x       y       z     vdW  Elec       q    Type
REMARK                         _______ _______ _______ _____ _____    ______ ____
ROOT
ATOM      1  H   UNK    1        9.742 -16.873   0.000  0.00  0.00    +0.000 HD
ENDROOT
TORSDOF 0
REMARK  Name = molecules/OIRCOABEOLEUMC-GEJPAHFPSA-N.pdb
REMARK                            x       y       z     vdW  Elec       q    Type
REMARK                         _______ _______ _______ _____ _____    ______ ____
ROOT
ATOM      1  H   UNK    1        9.556  -8.964   0.000  0.00  0.00    +0.000 HD
ENDROOT
TORSDOF 0
REMARK  Name = molecules/OIRCOABEOLEUMC-GEJPAHFPSA-N.pdb
REMARK                            x       y       z     vdW  Elec       q    Type
REMARK                         _______ _______ _______ _____ _____    ______ ____
ROOT
ATOM      1  H   UNK    1       10.306 -10.263   0.000  0.00  0.00    +0.000 HD
ENDROOT
TORSDOF 0
REMARK  Name = molecules/OIRCOABEOLEUMC-GEJPAHFPSA-N.pdb
REMARK                            x       y       z     vdW  Elec       q    Type
REMARK                         _______ _______ _______ _____ _____    ______ ____
ROOT
ATOM      1  H   UNK    1       11.257 -12.312   0.000  0.00  0.00    +0.000 HD
ENDROOT
TORSDOF 0
REMARK  Name = molecules/OIRCOABEOLEUMC-GEJPAHFPSA-N.pdb
REMARK                            x       y       z     vdW  Elec       q    Type
REMARK                         _______ _______ _______ _____ _____    ______ ____
ROOT
ATOM      1  H   UNK    1      -12.731 -13.458   0.000  0.00  0.00    +0.000 HD
ENDROOT
TORSDOF 0
REMARK  Name = molecules/OIRCOABEOLEUMC-GEJPAHFPSA-N.pdb
REMARK                            x       y       z     vdW  Elec       q    Type
REMARK                         _______ _______ _______ _____ _____    ______ ____
ROOT
ATOM      1  H   UNK    1       -7.247 -16.721   0.000  0.00  0.00    +0.000 HD
ENDROOT
TORSDOF 0
REMARK  Name = molecules/OIRCOABEOLEUMC-GEJPAHFPSA-N.pdb
REMARK                            x       y       z     vdW  Elec       q    Type
REMARK                         _______ _______ _______ _____ _____    ______ ____
ROOT
ATOM      1  H   UNK    1      -12.187 -19.392   0.000  0.00  0.00    +0.000 HD
ENDROOT
TORSDOF 0
REMARK  Name = molecules/OIRCOABEOLEUMC-GEJPAHFPSA-N.pdb
REMARK                            x       y       z     vdW  Elec       q    Type
REMARK                         _______ _______ _______ _____ _____    ______ ____
ROOT
ATOM      1  H   UNK    1      -20.383 -18.294   0.000  0.00  0.00    +0.000 HD
ENDROOT
TORSDOF 0
REMARK  Name = molecules/OIRCOABEOLEUMC-GEJPAHFPSA-N.pdb
REMARK                            x       y       z     vdW  Elec       q    Type
REMARK                         _______ _______ _______ _____ _____    ______ ____
ROOT
ATOM      1  H   UNK    1       -6.789 -18.240   0.000  0.00  0.00    +0.000 HD
ENDROOT
TORSDOF 0
REMARK  Name = molecules/OIRCOABEOLEUMC-GEJPAHFPSA-N.pdb
REMARK                            x       y       z     vdW  Elec       q    Type
REMARK                         _______ _______ _______ _____ _____    ______ ____
ROOT
ATOM      1  H   UNK    1      -10.091 -12.142   0.000  0.00  0.00    +0.000 HD
ENDROOT
TORSDOF 0
REMARK  Name = molecules/OIRCOABEOLEUMC-GEJPAHFPSA-N.pdb
REMARK                            x       y       z     vdW  Elec       q    Type
REMARK                         _______ _______ _______ _____ _____    ______ ____
ROOT
ATOM      1  H   UNK    1      -11.154  -6.955   0.000  0.00  0.00    +0.000 HD
ENDROOT
TORSDOF 0
REMARK  Name = molecules/OIRCOABEOLEUMC-GEJPAHFPSA-N.pdb
REMARK                            x       y       z     vdW  Elec       q    Type
REMARK                         _______ _______ _______ _____ _____    ______ ____
ROOT
ATOM      1  H   UNK    1       -9.676  -6.166   0.000  0.00  0.00    +0.000 HD
ENDROOT
TORSDOF 0
REMARK  Name = molecules/OIRCOABEOLEUMC-GEJPAHFPSA-N.pdb
REMARK                            x       y       z     vdW  Elec       q    Type
REMARK                         _______ _______ _______ _____ _____    ______ ____
ROOT
ATOM      1  H   UNK    1       -8.490 -12.294   0.000  0.00  0.00    +0.000 HD
ENDROOT
TORSDOF 0
REMARK  Name = molecules/OIRCOABEOLEUMC-GEJPAHFPSA-N.pdb
REMARK                            x       y       z     vdW  Elec       q    Type
REMARK                         _______ _______ _______ _____ _____    ______ ____
ROOT
ATOM      1  H   UNK    1      -14.637  -6.163   0.000  0.00  0.00    +0.000 HD
ENDROOT
TORSDOF 0
REMARK  Name = molecules/OIRCOABEOLEUMC-GEJPAHFPSA-N.pdb
REMARK                            x       y       z     vdW  Elec       q    Type
REMARK                         _______ _______ _______ _____ _____    ______ ____
ROOT
ATOM      1  H   UNK    1      -16.157  -5.847   0.000  0.00  0.00    +0.000 HD
ENDROOT
TORSDOF 0
REMARK  Name = molecules/OIRCOABEOLEUMC-GEJPAHFPSA-N.pdb
REMARK                            x       y       z     vdW  Elec       q    Type
REMARK                         _______ _______ _______ _____ _____    ______ ____
ROOT
ATOM      1  H   UNK    1      -17.632  -6.733   0.000  0.00  0.00    +0.000 HD
ENDROOT
TORSDOF 0
REMARK  Name = molecules/OIRCOABEOLEUMC-GEJPAHFPSA-N.pdb
REMARK                            x       y       z     vdW  Elec       q    Type
REMARK                         _______ _______ _______ _____ _____    ______ ____
ROOT
ATOM      1  H   UNK    1      -18.144  -9.627   0.000  0.00  0.00    +0.000 HD
ENDROOT
TORSDOF 0
REMARK  Name = molecules/OIRCOABEOLEUMC-GEJPAHFPSA-N.pdb
REMARK                            x       y       z     vdW  Elec       q    Type
REMARK                         _______ _______ _______ _____ _____    ______ ____
ROOT
ATOM      1  H   UNK    1       -9.544  -3.356   0.000  0.00  0.00    +0.000 HD
ENDROOT
TORSDOF 0
REMARK  Name = molecules/OIRCOABEOLEUMC-GEJPAHFPSA-N.pdb
REMARK                            x       y       z     vdW  Elec       q    Type
REMARK                         _______ _______ _______ _____ _____    ______ ____
ROOT
ATOM      1  H   UNK    1      -12.343   0.394   0.000  0.00  0.00    +0.000 HD
ENDROOT
TORSDOF 0
REMARK  Name = molecules/OIRCOABEOLEUMC-GEJPAHFPSA-N.pdb
REMARK                            x       y       z     vdW  Elec       q    Type
REMARK                         _______ _______ _______ _____ _____    ______ ____
ROOT
ATOM      1  H   UNK    1       -9.556  -6.173   0.000  0.00  0.00    +0.000 HD
ENDROOT
TORSDOF 0
REMARK  Name = molecules/OIRCOABEOLEUMC-GEJPAHFPSA-N.pdb
REMARK                            x       y       z     vdW  Elec       q    Type
REMARK                         _______ _______ _______ _____ _____    ______ ____
ROOT
ATOM      1  H   UNK    1       -6.745 -11.606   0.000  0.00  0.00    +0.000 HD
ENDROOT
TORSDOF 0
REMARK  Name = molecules/OIRCOABEOLEUMC-GEJPAHFPSA-N.pdb
REMARK                            x       y       z     vdW  Elec       q    Type
REMARK                         _______ _______ _______ _____ _____    ______ ____
ROOT
ATOM      1  H   UNK    1       -2.995 -11.405   0.000  0.00  0.00    +0.000 HD
ENDROOT
TORSDOF 0
REMARK  Name = molecules/OIRCOABEOLEUMC-GEJPAHFPSA-N.pdb
REMARK                            x       y       z     vdW  Elec       q    Type
REMARK                         _______ _______ _______ _____ _____    ______ ____
ROOT
ATOM      1  H   UNK    1      -12.095  -6.770   0.000  0.00  0.00    +0.000 HD
ENDROOT
TORSDOF 0
REMARK  Name = molecules/OIRCOABEOLEUMC-GEJPAHFPSA-N.pdb
REMARK                            x       y       z     vdW  Elec       q    Type
REMARK                         _______ _______ _______ _____ _____    ______ ____
ROOT
ATOM      1  H   UNK    1      -10.697  -5.109   0.000  0.00  0.00    +0.000 HD
ENDROOT
TORSDOF 0
REMARK  Name = molecules/OIRCOABEOLEUMC-GEJPAHFPSA-N.pdb
REMARK                            x       y       z     vdW  Elec       q    Type
REMARK                         _______ _______ _______ _____ _____    ______ ____
ROOT
ATOM      1  H   UNK    1      -14.794  -0.557   0.000  0.00  0.00    +0.000 HD
ENDROOT
TORSDOF 0
REMARK  Name = molecules/OIRCOABEOLEUMC-GEJPAHFPSA-N.pdb
REMARK                            x       y       z     vdW  Elec       q    Type
REMARK                         _______ _______ _______ _____ _____    ______ ____
ROOT
ATOM      1  H   UNK    1      -16.175  -5.643   0.000  0.00  0.00    +0.000 HD
ENDROOT
TORSDOF 0
REMARK  Name = molecules/OIRCOABEOLEUMC-GEJPAHFPSA-N.pdb
REMARK                            x       y       z     vdW  Elec       q    Type
REMARK                         _______ _______ _______ _____ _____    ______ ____
ROOT
ATOM      1  H   UNK    1      -18.142 -10.856   0.000  0.00  0.00    +0.000 HD
ENDROOT
TORSDOF 0
REMARK  Name = molecules/OIRCOABEOLEUMC-GEJPAHFPSA-N.pdb
REMARK                            x       y       z     vdW  Elec       q    Type
REMARK                         _______ _______ _______ _____ _____    ______ ____
ROOT
ATOM      1  H   UNK    1      -16.880 -15.036   0.000  0.00  0.00    +0.000 HD
ENDROOT
TORSDOF 0
REMARK  Name = molecules/OIRCOABEOLEUMC-GEJPAHFPSA-N.pdb
REMARK                            x       y       z     vdW  Elec       q    Type
REMARK                         _______ _______ _______ _____ _____    ______ ____
ROOT
ATOM      1  H   UNK    1      -15.544 -12.356   0.000  0.00  0.00    +0.000 HD
ENDROOT
TORSDOF 0
