REMARK  Name = molecules/OIRDTQYFTABQOQ-KQYNXXCUSA-N.pdb
REMARK                            x       y       z     vdW  Elec       q    Type
REMARK                         _______ _______ _______ _____ _____    ______ ____
ROOT
ATOM      1  C2*   A A  1        1.090  -1.405   0.734  0.00  0.00    +0.195 C 
ATOM      2  C1*   A A  1        0.680  -0.080   1.304  0.00  0.00    +0.253 C 
ATOM      3  O4*   A A  1        1.724   0.789   1.136  0.00  0.00    -0.346 OA
ATOM      4  C4*   A A  1        2.645   0.251   0.279  0.00  0.00    +0.177 C 
ATOM      5  C3*   A A  1        2.008  -0.941  -0.406  0.00  0.00    +0.178 C 
ENDROOT
BRANCH   2   6
ATOM      6  N9    A A  1       -0.506   0.472   0.706  0.00  0.00    -0.286 N 
ATOM      7  C8    A A  1       -0.697   1.777   0.444  0.00  0.00    +0.203 A 
ATOM      8  N7    A A  1       -1.890   1.966  -0.108  0.00  0.00    -0.231 NA
ATOM      9  C5    A A  1       -2.513   0.797  -0.224  0.00  0.00    +0.147 A 
ATOM     10  C6    A A  1       -3.722   0.381  -0.701  0.00  0.00    +0.147 A 
ATOM     11  N1    A A  1       -4.051  -0.919  -0.669  0.00  0.00    -0.219 NA
ATOM     12  C2    A A  1       -3.204  -1.846  -0.169  0.00  0.00    +0.225 A 
ATOM     13  N3    A A  1       -2.006  -1.419   0.301  0.00  0.00    -0.216 NA
ATOM     14  C4    A A  1       -1.630  -0.147   0.294  0.00  0.00    +0.167 A 
BRANCH  10  15
ATOM     15  N6    A A  1       -4.654   1.301  -1.237  0.00  0.00    -0.341 N 
ATOM     16  H61   A A  1       -4.975   2.090  -0.648  0.00  0.00    +0.144 HD
ATOM     17  H62   A A  1       -4.996   1.169  -2.202  0.00  0.00    +0.144 HD
ENDBRANCH  10  15
ENDBRANCH   2   6
BRANCH   1  18
ATOM     18  O2*   A A  1        1.939  -2.017   1.665  0.00  0.00    -0.385 OA
ATOM     19  H2*   A A  1        1.585  -1.924   2.598  0.00  0.00    +0.210 HD
ENDBRANCH   1  18
BRANCH   5  20
ATOM     20  O3*   A A  1        2.921  -1.905  -0.757  0.00  0.00    -0.386 OA
ATOM     21  H3*   A A  1        2.441  -2.685  -1.085  0.00  0.00    +0.210 HD
ENDBRANCH   5  20
BRANCH   4  22
ATOM     22  C5*   A A  1        3.200   1.236  -0.724  0.00  0.00    +0.190 C 
BRANCH  22  23
ATOM     23  O5*   A A  1        2.155   1.736  -1.498  0.00  0.00    -0.392 OA
ATOM     24  H5*   A A  1        2.500   2.026  -2.401  0.00  0.00    +0.210 HD
ENDBRANCH  22  23
ENDBRANCH   4  22
TORSDOF 6
