REMARK  Name = molecules/OIRDTQYFTABQOQ-UHTZMRCNSA-N.pdb
REMARK                            x       y       z     vdW  Elec       q    Type
REMARK                         _______ _______ _______ _____ _____    ______ ____
ROOT
ATOM      1  C2*   A A  1       -1.117  -1.089   0.104  0.00  0.00    +0.195 C 
ATOM      2  C3*   A A  1       -2.616  -0.822   0.182  0.00  0.00    +0.178 C 
ATOM      3  C4*   A A  1       -2.642   0.684   0.316  0.00  0.00    +0.177 C 
ATOM      4  O4*   A A  1       -1.358   1.057   0.721  0.00  0.00    -0.346 OA
ATOM      5  C1*   A A  1       -0.609   0.280  -0.194  0.00  0.00    +0.253 C 
ENDROOT
BRANCH   5   6
ATOM      6  N9    A A  1        0.786   0.473  -0.074  0.00  0.00    -0.286 N 
ATOM      7  C8    A A  1        1.328   1.672   0.223  0.00  0.00    +0.203 A 
ATOM      8  N7    A A  1        2.661   1.567   0.274  0.00  0.00    -0.231 NA
ATOM      9  C5    A A  1        2.988   0.294   0.009  0.00  0.00    +0.147 A 
ATOM     10  C6    A A  1        4.225  -0.304  -0.054  0.00  0.00    +0.147 A 
ATOM     11  N1    A A  1        4.214  -1.635  -0.350  0.00  0.00    -0.219 NA
ATOM     12  C2    A A  1        3.050  -2.286  -0.559  0.00  0.00    +0.225 A 
ATOM     13  N3    A A  1        1.853  -1.661  -0.488  0.00  0.00    -0.216 NA
ATOM     14  C4    A A  1        1.808  -0.365  -0.203  0.00  0.00    +0.167 A 
BRANCH  10  15
ATOM     15  N6    A A  1        5.412   0.416   0.172  0.00  0.00    -0.341 N 
ATOM     16  H61   A A  1        5.380   1.274   0.758  0.00  0.00    +0.144 HD
ATOM     17  H62   A A  1        6.344   0.150  -0.211  0.00  0.00    +0.144 HD
ENDBRANCH  10  15
ENDBRANCH   5   6
BRANCH   1  18
ATOM     18  O2*   A A  1       -0.741  -1.582   1.331  0.00  0.00    -0.385 OA
ATOM     19  H2*   A A  1       -0.930  -2.563   1.322  0.00  0.00    +0.210 HD
ENDBRANCH   1  18
BRANCH   2  20
ATOM     20  O3*   A A  1       -3.247  -1.159  -1.004  0.00  0.00    -0.386 OA
ATOM     21  H3*   A A  1       -3.784  -0.425  -1.392  0.00  0.00    +0.210 HD
ENDBRANCH   2  20
BRANCH   3  22
ATOM     22  C5*   A A  1       -3.699   1.149   1.288  0.00  0.00    +0.190 C 
BRANCH  22  23
ATOM     23  O5*   A A  1       -3.621   2.536   1.351  0.00  0.00    -0.392 OA
ATOM     24  H5*   A A  1       -3.520   2.868   0.410  0.00  0.00    +0.210 HD
ENDBRANCH  22  23
ENDBRANCH   3  22
TORSDOF 6
