REMARK  Name = molecules/OJCPSBCUMRIPFL-HNNXBMFYSA-N.pdb
REMARK                            x       y       z     vdW  Elec       q    Type
REMARK                         _______ _______ _______ _____ _____    ______ ____
ROOT
ATOM      1  C   LIG    1       -0.078   0.804  -0.736  0.00  0.00    +0.061 C 
ENDROOT
BRANCH   1   2
ATOM      2  N   LIG    1       -0.836  -0.317  -0.493  0.00  0.00    -0.299 NA
ATOM      3  C   LIG    1       -1.457  -0.594   0.734  0.00  0.00    +0.085 C 
ATOM      4  C   LIG    1       -1.582  -2.131   0.595  0.00  0.00    +0.017 C 
ATOM      5  C   LIG    1       -2.229  -2.143  -0.802  0.00  0.00    +0.017 C 
ATOM      6  C   LIG    1       -1.663  -0.887  -1.484  0.00  0.00    +0.085 C 
ENDBRANCH   1   2
BRANCH   1   7
ATOM      7  C   LIG    1        1.171   0.905   0.071  0.00  0.00    +0.054 C 
BRANCH   7   8
ATOM      8  C   LIG    1        2.009  -0.318   0.089  0.00  0.00    -0.046 A 
ATOM      9  C   LIG    1        1.949  -1.290   1.062  0.00  0.00    +0.004 A 
ATOM     10  C   LIG    1        2.761  -2.416   1.062  0.00  0.00    +0.000 A 
ATOM     11  C   LIG    1        3.672  -2.600   0.067  0.00  0.00    +0.000 A 
ATOM     12  C   LIG    1        3.767  -1.647  -0.935  0.00  0.00    +0.000 A 
ATOM     13  C   LIG    1        2.961  -0.551  -0.914  0.00  0.00    +0.004 A 
ENDBRANCH   7   8
ENDBRANCH   1   7
BRANCH   1  14
ATOM     14  C   LIG    1       -0.788   2.135  -0.657  0.00  0.00    +0.019 C 
BRANCH  14  15
ATOM     15  C   LIG    1       -1.173   2.578   0.708  0.00  0.00    -0.002 C 
ATOM     16  C   LIG    1       -1.875   3.936   0.539  0.00  0.00    +0.004 C 
ENDBRANCH  14  15
ENDBRANCH   1  14
TORSDOF 5
