REMARK  Name = molecules/OJFSXZCBGQGRNV-MRXNPFEDSA-N.pdb
REMARK                            x       y       z     vdW  Elec       q    Type
REMARK                         _______ _______ _______ _____ _____    ______ ____
ROOT
ATOM      1  C   LIG    1       -0.541   0.067  -0.065  0.00  0.00    +0.197 C 
ENDROOT
BRANCH   1   2
ATOM      2  C   LIG    1       -1.550  -0.896   0.366  0.00  0.00    -0.013 A 
ATOM      3  C   LIG    1       -2.876  -0.549   0.594  0.00  0.00    +0.008 A 
ATOM      4  C   LIG    1       -3.815  -1.470   0.987  0.00  0.00    +0.020 A 
ATOM      5  C   LIG    1       -3.483  -2.800   1.176  0.00  0.00    +0.041 A 
ATOM      6 CL   LIG    1       -4.694  -3.963   1.679  0.00  0.00    -0.084 Cl
ATOM      7  C   LIG    1       -2.173  -3.154   0.952  0.00  0.00    +0.020 A 
ATOM      8  C   LIG    1       -1.223  -2.213   0.552  0.00  0.00    +0.008 A 
ENDBRANCH   1   2
BRANCH   1   9
ATOM      9  C   LIG    1       -1.189   1.276  -0.695  0.00  0.00    +0.074 A 
ATOM     10  C   LIG    1       -1.291   2.437   0.022  0.00  0.00    +0.026 A 
ATOM     11  C   LIG    1       -1.876   3.572  -0.494  0.00  0.00    +0.003 A 
ATOM     12  C   LIG    1       -2.377   3.534  -1.778  0.00  0.00    +0.020 A 
ATOM     13  C   LIG    1       -2.253   2.339  -2.470  0.00  0.00    +0.111 A 
ATOM     14  N   LIG    1       -1.678   1.255  -1.937  0.00  0.00    -0.257 NA
ENDBRANCH   1   9
BRANCH   1  15
ATOM     15  O   LIG    1        0.344  -0.482  -0.966  0.00  0.00    -0.365 OA
BRANCH  15  16
ATOM     16  C   LIG    1        1.671  -0.335  -0.673  0.00  0.00    +0.176 C 
BRANCH  16  17
ATOM     17  C   LIG    1        2.126  -0.945   0.601  0.00  0.00    +0.112 C 
BRANCH  17  18
ATOM     18  N   LIG    1        3.556  -0.701   0.785  0.00  0.00    -0.306 NA
ATOM     19  C   LIG    1        3.841   0.690   1.023  0.00  0.00    +0.104 C 
ATOM     20  C   LIG    1        4.334  -1.135  -0.359  0.00  0.00    +0.104 C 
ENDBRANCH  17  18
ENDBRANCH  16  17
ENDBRANCH  15  16
ENDBRANCH   1  15
TORSDOF 6
