REMARK  Name = molecules/OJYGBLRPYBAHRT-IPQSZEQASA-N.pdb
REMARK                            x       y       z     vdW  Elec       q    Type
REMARK                         _______ _______ _______ _____ _____    ______ ____
ROOT
ATOM      1  C   LIG    1       -0.177  -1.060   0.621  0.00  0.00    +0.180 C 
ATOM      2  C   LIG    1        1.115  -0.328   0.821  0.00  0.00    +0.208 C 
ATOM      3  C   LIG    1        0.881   1.006   0.205  0.00  0.00    +0.285 C 
ATOM      4  O   LIG    1       -0.302   0.999  -0.469  0.00  0.00    -0.340 OA
ATOM      5  O   LIG    1        1.999   1.204  -0.635  0.00  0.00    -0.316 OA
ATOM      6  C   LIG    1        2.921   0.312  -0.126  0.00  0.00    +0.305 C 
ATOM      7  O   LIG    1        2.152  -0.839   0.041  0.00  0.00    -0.336 OA
ATOM      8  C   LIG    1       -0.892  -0.223  -0.388  0.00  0.00    +0.183 C 
ENDROOT
BRANCH   6   9
ATOM      9  C   LIG    1        4.101   0.091  -1.028  0.00  0.00    +0.241 C 
ATOM     10 CL   LIG    1        5.169  -1.094  -0.200  0.00  0.00    -0.078 Cl
ATOM     11 CL   LIG    1        5.006   1.615  -1.170  0.00  0.00    -0.078 Cl
ATOM     12 CL   LIG    1        3.664  -0.592  -2.585  0.00  0.00    -0.078 Cl
ENDBRANCH   6   9
BRANCH   1  13
ATOM     13  O   LIG    1       -0.885  -1.057   1.825  0.00  0.00    -0.386 OA
ATOM     14  H   LIG    1       -0.820  -0.136   2.184  0.00  0.00    +0.210 HD
ENDBRANCH   1  13
BRANCH   8  15
ATOM     15  C   LIG    1       -2.372  -0.145  -0.027  0.00  0.00    +0.171 C 
BRANCH  15  16
ATOM     16  O   LIG    1       -2.919  -1.413   0.040  0.00  0.00    -0.387 OA
ATOM     17  H   LIG    1       -2.936  -1.767   0.958  0.00  0.00    +0.210 HD
ENDBRANCH  15  16
BRANCH  15  18
ATOM     18  C   LIG    1       -3.114   0.670  -1.089  0.00  0.00    +0.189 C 
BRANCH  18  19
ATOM     19  O   LIG    1       -4.452   0.772  -0.769  0.00  0.00    -0.392 OA
ATOM     20  H   LIG    1       -4.686   0.370   0.100  0.00  0.00    +0.210 HD
ENDBRANCH  18  19
ENDBRANCH  15  18
ENDBRANCH   8  15
TORSDOF 6
