REMARK  Name = molecules/OKBVVJOGVLARMR-QSWIMTSFSA-N.pdb
REMARK                            x       y       z     vdW  Elec       q    Type
REMARK                         _______ _______ _______ _____ _____    ______ ____
ROOT
ATOM      1  N   LIG    1       -0.420  -0.208   0.054  0.00  0.00    -0.296 N 
ATOM      2  H   LIG    1        0.146  -0.707   0.738  0.00  0.00    +0.150 HD
ATOM      3  C   LIG    1       -1.789   0.018   0.202  0.00  0.00    +0.268 C 
ATOM      4  O   LIG    1       -2.266   0.657  -0.858  0.00  0.00    -0.268 OA
ENDROOT
BRANCH   1  10
ATOM      5  C   LIG    1        1.535   1.069  -0.870  0.00  0.00    +0.169 C 
ATOM      6  S   LIG    1        2.211   1.009   0.831  0.00  0.00    -0.131 S 
ATOM      7  C   LIG    1        3.987   1.105   0.643  0.00  0.00    +0.108 C 
ATOM      8  C   LIG    1        4.463   0.695  -0.713  0.00  0.00    -0.010 C 
ATOM      9  CA  LIG    1        3.722   0.214  -1.692  0.00  0.00    +0.126 C 
ATOM     10  CA  LIG    1        0.334   0.235  -1.126  0.00  0.00    +0.191 C 
ATOM     11  C   LIG    1        1.143  -0.774  -1.796  0.00  0.00    +0.244 C 
ATOM     12  O   LIG    1        0.917  -1.877  -2.346  0.00  0.00    -0.273 OA
ATOM     13  N   LIG    1        2.289   0.021  -1.562  0.00  0.00    -0.249 N 
BRANCH   8  14
ATOM     14  C   LIG    1        5.909   0.877  -0.939  0.00  0.00    -0.001 C 
ATOM     15  C   LIG    1        6.627   1.357   0.075  0.00  0.00    +0.009 C 
ENDBRANCH   8  14
BRANCH   9  16
ATOM     16  C   LIG    1        4.286  -0.198  -2.981  0.00  0.00    +0.352 C 
ATOM     17  OXT LIG    1        5.457  -0.167  -3.351  0.00  0.00    -0.244 OA
BRANCH  16  18
ATOM     18  O   LIG    1        3.394  -0.709  -3.956  0.00  0.00    -0.476 OA
ATOM     19  H   LIG    1        3.636  -1.609  -4.348  0.00  0.00    +0.295 HD
ENDBRANCH  16  18
ENDBRANCH   9  16
ENDBRANCH   1  10
BRANCH   3  20
ATOM     20  C   LIG    1       -2.732  -0.284   1.215  0.00  0.00    +0.190 C 
ATOM     21  N   LIG    1       -3.985   0.076   0.959  0.00  0.00    -0.077 NA
BRANCH  20  22
ATOM     22  C   LIG    1       -2.488  -0.970   2.517  0.00  0.00    +0.107 A 
ATOM     23  N   LIG    1       -3.536  -1.319   3.260  0.00  0.00    -0.223 NA
ATOM     24  C   LIG    1       -3.383  -1.889   4.413  0.00  0.00    +0.156 A 
ATOM     25  S   LIG    1       -1.700  -1.992   4.567  0.00  0.00    -0.060 S 
ATOM     26  C   LIG    1       -1.271  -1.253   3.053  0.00  0.00    +0.078 A 
BRANCH  24  27
ATOM     27  N   LIG    1       -4.437  -2.317   5.314  0.00  0.00    -0.338 N 
ATOM     28  H   LIG    1       -4.535  -1.757   6.190  0.00  0.00    +0.144 HD
ATOM     29  H   LIG    1       -5.040  -3.139   5.069  0.00  0.00    +0.144 HD
ENDBRANCH  24  27
ENDBRANCH  20  22
BRANCH  21  30
ATOM     30  O   LIG    1       -4.302   0.690  -0.209  0.00  0.00    -0.382 OA
BRANCH  30  31
ATOM     31  C   LIG    1       -5.268   0.063  -1.034  0.00  0.00    +0.382 C 
BRANCH  31  32
ATOM     32  C   LIG    1       -5.536   0.818  -2.278  0.00  0.00    +0.345 C 
ATOM     33  O   LIG    1       -6.386   0.333  -3.074  0.00  0.00    -0.247 OA
BRANCH  32  34
ATOM     34  O   LIG    1       -4.933   1.997  -2.630  0.00  0.00    -0.478 OA
ATOM     35  H   LIG    1       -4.963   2.799  -1.997  0.00  0.00    +0.295 HD
ENDBRANCH  32  34
ENDBRANCH  31  32
ENDBRANCH  30  31
ENDBRANCH  21  30
ENDBRANCH   3  20
TORSDOF 11
