REMARK  Name = molecules/OLBCVFGFOZPWHH-UHFFFAOYSA-N.pdb
REMARK                            x       y       z     vdW  Elec       q    Type
REMARK                         _______ _______ _______ _____ _____    ______ ____
ROOT
ATOM      1  C   LIG    1        1.255   0.259   0.105  0.00  0.00    -0.003 A 
ATOM      2  C   LIG    1        1.423   1.145   1.129  0.00  0.00    +0.007 A 
ATOM      3  C   LIG    1        0.352   1.786   1.750  0.00  0.00    +0.001 A 
ATOM      4  C   LIG    1       -0.915   1.478   1.287  0.00  0.00    +0.007 A 
ATOM      5  C   LIG    1       -1.172   0.573   0.260  0.00  0.00    -0.003 A 
ATOM      6  C   LIG    1       -0.058  -0.003  -0.297  0.00  0.00    +0.124 A 
ENDROOT
BRANCH   1   8
ATOM      7  C   LIG    1        2.578  -1.700  -0.695  0.00  0.00    +0.012 C 
ATOM      8  C   LIG    1        2.379  -0.216  -0.706  0.00  0.00    +0.016 C 
ATOM      9  C   LIG    1        3.677   0.236   0.054  0.00  0.00    +0.012 C 
ENDBRANCH   1   8
BRANCH   5  10
ATOM     10  C   LIG    1       -2.543   0.070   0.001  0.00  0.00    +0.016 C 
ATOM     11  C   LIG    1       -2.813  -1.360   0.147  0.00  0.00    +0.012 C 
ATOM     12  C   LIG    1       -3.419   0.899  -0.871  0.00  0.00    +0.012 C 
ENDBRANCH   5  10
BRANCH   6  13
ATOM     13  O   LIG    1       -0.174  -0.916  -1.327  0.00  0.00    -0.506 OA
ATOM     14  H   LIG    1       -0.950  -1.258  -1.793  0.00  0.00    +0.292 HD
ENDBRANCH   6  13
TORSDOF 3
