REMARK  Name = molecules/OLBWFRRUHYQABZ-MRVPVSSYSA-N.pdb
REMARK                            x       y       z     vdW  Elec       q    Type
REMARK                         _______ _______ _______ _____ _____    ______ ____
ROOT
ATOM      1  C   LIG    1        0.187   0.888  -0.402  0.00  0.00    +0.183 C 
ENDROOT
BRANCH   1   2
ATOM      2  C   LIG    1       -1.201   0.356  -0.285  0.00  0.00    +0.002 A 
ATOM      3  C   LIG    1       -1.552  -0.486   0.711  0.00  0.00    +0.008 A 
ATOM      4  C   LIG    1       -2.853  -0.976   0.848  0.00  0.00    +0.000 A 
ATOM      5  C   LIG    1       -3.816  -0.580  -0.074  0.00  0.00    +0.001 A 
ATOM      6  C   LIG    1       -3.450   0.284  -1.083  0.00  0.00    +0.020 A 
ATOM      7  C   LIG    1       -2.174   0.770  -1.225  0.00  0.00    +0.047 A 
ATOM      8 CL   LIG    1       -1.730   1.844  -2.523  0.00  0.00    -0.083 Cl
ENDBRANCH   1   2
BRANCH   1   9
ATOM      9  O   LIG    1        0.503   1.213  -1.702  0.00  0.00    -0.384 OA
ATOM     10  H   LIG    1        0.803   0.481  -2.260  0.00  0.00    +0.210 HD
ENDBRANCH   1   9
BRANCH   1  11
ATOM     11  C   LIG    1        1.153  -0.090   0.163  0.00  0.00    +0.270 C 
BRANCH  11  12
ATOM     12  O   LIG    1        2.495   0.429   0.039  0.00  0.00    -0.448 OA
BRANCH  12  13
ATOM     13  C   LIG    1        3.515  -0.438   0.447  0.00  0.00    +0.398 C 
ATOM     14  O   LIG    1        3.259  -1.602   0.897  0.00  0.00    -0.227 OA
ATOM     15  N   LIG    1        4.855  -0.019   0.371  0.00  0.00    -0.295 N 
ATOM     16  H   LIG    1        5.148   0.807   0.915  0.00  0.00    +0.148 HD
ATOM     17  H   LIG    1        5.511  -0.572  -0.238  0.00  0.00    +0.148 HD
ENDBRANCH  12  13
ENDBRANCH  11  12
ENDBRANCH   1  11
TORSDOF 5
