REMARK  Name = molecules/OLNTVTPDXPETLC-XPWALMASSA-N.pdb
REMARK                            x       y       z     vdW  Elec       q    Type
REMARK                         _______ _______ _______ _____ _____    ______ ____
ROOT
ATOM      1  C   LIG    1       -0.251  -0.594  -1.073  0.00  0.00    +0.101 C 
ATOM      2  C   LIG    1       -0.950  -0.171   0.246  0.00  0.00    +0.123 C 
ATOM      3  N   LIG    1       -1.604  -1.405   0.077  0.00  0.00    -0.263 N 
ATOM      4  C   LIG    1       -0.336  -1.868  -0.465  0.00  0.00    +0.226 C 
ATOM      5  O   LIG    1        0.146  -3.026  -0.242  0.00  0.00    -0.275 OA
ENDROOT
BRANCH   3   6
ATOM      6  C   LIG    1       -2.834  -2.088   0.252  0.00  0.00    +0.037 A 
ATOM      7  C   LIG    1       -3.935  -1.460   0.813  0.00  0.00    +0.026 A 
ATOM      8  C   LIG    1       -5.104  -2.140   0.965  0.00  0.00    +0.040 A 
ATOM      9  C   LIG    1       -5.280  -3.471   0.583  0.00  0.00    +0.124 A 
ATOM     10  F   LIG    1       -6.460  -4.119   0.749  0.00  0.00    -0.205 F 
ATOM     11  C   LIG    1       -4.187  -4.092   0.028  0.00  0.00    +0.040 A 
ATOM     12  C   LIG    1       -3.007  -3.413  -0.129  0.00  0.00    +0.026 A 
ENDBRANCH   3   6
BRANCH   2  13
ATOM     13  C   LIG    1       -1.627   1.099   0.175  0.00  0.00    -0.026 A 
ATOM     14  C   LIG    1       -1.362   2.081   1.094  0.00  0.00    +0.009 A 
ATOM     15  C   LIG    1       -1.991   3.327   1.058  0.00  0.00    +0.046 A 
ATOM     16  C   LIG    1       -2.904   3.581   0.073  0.00  0.00    +0.117 A 
ATOM     17  C   LIG    1       -3.172   2.606  -0.847  0.00  0.00    +0.046 A 
ATOM     18  C   LIG    1       -2.541   1.364  -0.805  0.00  0.00    +0.009 A 
BRANCH  16  19
ATOM     19  O   LIG    1       -3.541   4.816   0.018  0.00  0.00    -0.507 OA
ATOM     20  H   LIG    1       -3.339   5.526   0.698  0.00  0.00    +0.292 HD
ENDBRANCH  16  19
ENDBRANCH   2  13
BRANCH   1  21
ATOM     21  C   LIG    1        0.821   0.238  -1.512  0.00  0.00    +0.018 C 
BRANCH  21  22
ATOM     22  C   LIG    1        2.036   0.577  -0.790  0.00  0.00    +0.037 C 
BRANCH  22  23
ATOM     23  C   LIG    1        2.941  -0.519  -0.413  0.00  0.00    +0.145 C 
BRANCH  23  24
ATOM     24  C   LIG    1        4.198   0.034   0.230  0.00  0.00    -0.019 A 
ATOM     25  C   LIG    1        4.140   0.266   1.581  0.00  0.00    +0.009 A 
ATOM     26  C   LIG    1        5.208   0.763   2.275  0.00  0.00    +0.039 A 
ATOM     27  C   LIG    1        6.363   1.028   1.570  0.00  0.00    +0.123 A 
ATOM     28  F   LIG    1        7.448   1.521   2.212  0.00  0.00    -0.205 F 
ATOM     29  C   LIG    1        6.417   0.793   0.212  0.00  0.00    +0.039 A 
ATOM     30  C   LIG    1        5.336   0.294  -0.470  0.00  0.00    +0.009 A 
ENDBRANCH  23  24
BRANCH  23  31
ATOM     31  O   LIG    1        2.495  -1.491   0.419  0.00  0.00    -0.387 OA
ATOM     32  H   LIG    1        3.043  -2.290   0.482  0.00  0.00    +0.210 HD
ENDBRANCH  23  31
ENDBRANCH  22  23
ENDBRANCH  21  22
ENDBRANCH   1  21
TORSDOF 8
