REMARK  Name = molecules/OLTAWOVKGWWERU-HNNXBMFYSA-N.pdb
REMARK                            x       y       z     vdW  Elec       q    Type
REMARK                         _______ _______ _______ _____ _____    ______ ____
ROOT
ATOM      1  C   LIG    1       -1.954   1.230   0.355  0.00  0.00    +0.179 A 
ATOM      2  N   LIG    1       -1.633   1.686   1.579  0.00  0.00    -0.061 NA
ATOM      3  O   LIG    1       -0.344   1.812   1.662  0.00  0.00    -0.338 OA
ATOM      4  C   LIG    1        0.237   1.454   0.521  0.00  0.00    +0.229 A 
ATOM      5  N   LIG    1       -0.784   1.093  -0.285  0.00  0.00    -0.195 NA
ENDROOT
BRANCH   1   6
ATOM      6  C   LIG    1       -3.294   0.931  -0.200  0.00  0.00    +0.090 C 
BRANCH   6   7
ATOM      7  C   LIG    1       -3.743  -0.446   0.068  0.00  0.00    -0.037 A 
ATOM      8  C   LIG    1       -4.512  -0.699   1.183  0.00  0.00    +0.004 A 
ATOM      9  C   LIG    1       -4.971  -1.959   1.504  0.00  0.00    +0.000 A 
ATOM     10  C   LIG    1       -4.659  -3.027   0.689  0.00  0.00    +0.000 A 
ATOM     11  C   LIG    1       -3.885  -2.791  -0.438  0.00  0.00    +0.000 A 
ATOM     12  C   LIG    1       -3.427  -1.528  -0.758  0.00  0.00    +0.004 A 
ENDBRANCH   6   7
BRANCH   6  13
ATOM     13  C   LIG    1       -3.353   1.216  -1.689  0.00  0.00    +0.013 C 
ATOM     14  C   LIG    1       -3.052   2.672  -1.975  0.00  0.00    +0.005 C 
ENDBRANCH   6  13
ENDBRANCH   1   6
BRANCH   4  15
ATOM     15  C   LIG    1        1.697   1.456   0.216  0.00  0.00    +0.114 C 
BRANCH  15  16
ATOM     16  C   LIG    1        2.313   0.120   0.567  0.00  0.00    +0.094 C 
BRANCH  16  17
ATOM     17  N   LIG    1        3.719   0.064   0.294  0.00  0.00    -0.302 NA
BRANCH  17  18
ATOM     18  C   LIG    1        4.517   0.892   1.139  0.00  0.00    +0.081 C 
ATOM     19  C   LIG    1        5.967   0.756   0.753  0.00  0.00    +0.020 C 
ENDBRANCH  17  18
BRANCH  17  20
ATOM     20  C   LIG    1        4.133  -1.324   0.499  0.00  0.00    +0.081 C 
ATOM     21  C   LIG    1        3.531  -2.225  -0.559  0.00  0.00    +0.020 C 
ENDBRANCH  17  20
ENDBRANCH  16  17
ENDBRANCH  15  16
ENDBRANCH   4  15
TORSDOF 8
