REMARK  Name = molecules/OLVCFLKTBJRLHI-AXAPSJFSSA-N.pdb
REMARK                            x       y       z     vdW  Elec       q    Type
REMARK                         _______ _______ _______ _____ _____    ______ ____
ROOT
ATOM      1  CA  LIG    1       -2.074   1.124  -0.212  0.00  0.00    +0.123 C 
ATOM      2  C   LIG    1       -2.590   0.036   0.319  0.00  0.00    -0.021 C 
ATOM      3  C   LIG    1       -1.819  -1.266   0.441  0.00  0.00    +0.104 C 
ATOM      4  S   LIG    1       -0.645  -1.550  -0.863  0.00  0.00    -0.131 S 
ATOM      5  C   LIG    1       -0.262   0.027  -1.637  0.00  0.00    +0.169 C 
ATOM      6  CA  LIG    1        1.157   0.517  -1.503  0.00  0.00    +0.191 C 
ATOM      7  C   LIG    1        0.517   1.700  -0.847  0.00  0.00    +0.244 C 
ATOM      8  O   LIG    1        1.065   2.810  -0.540  0.00  0.00    -0.273 OA
ATOM      9  N   LIG    1       -0.740   1.078  -0.765  0.00  0.00    -0.249 N 
ENDROOT
BRANCH   6  10
ATOM     10  N   LIG    1        2.051  -0.250  -0.701  0.00  0.00    -0.299 N 
ATOM     11  H   LIG    1        1.755  -0.569   0.238  0.00  0.00    +0.150 HD
ATOM     12  C   LIG    1        3.343  -0.584  -1.166  0.00  0.00    +0.247 C 
ATOM     13  O   LIG    1        3.685  -0.191  -2.304  0.00  0.00    -0.273 OA
BRANCH  12  14
ATOM     14  C   LIG    1        4.252  -1.364  -0.346  0.00  0.00    +0.230 C 
BRANCH  14  15
ATOM     15  C   LIG    1        5.564  -0.790  -0.071  0.00  0.00    -0.010 A 
ATOM     16  C   LIG    1        6.380  -1.500   0.813  0.00  0.00    +0.006 A 
ATOM     17  C   LIG    1        7.639  -1.050   1.138  0.00  0.00    +0.000 A 
ATOM     18  C   LIG    1        8.130   0.129   0.590  0.00  0.00    +0.000 A 
ATOM     19  C   LIG    1        7.313   0.804  -0.270  0.00  0.00    +0.000 A 
ATOM     20  C   LIG    1        6.045   0.374  -0.612  0.00  0.00    +0.006 A 
ENDBRANCH  14  15
BRANCH  14  21
ATOM     21  O   LIG    1        3.608  -1.742   0.859  0.00  0.00    -0.378 OA
ATOM     22  H   LIG    1        3.806  -1.030   1.501  0.00  0.00    +0.211 HD
ENDBRANCH  14  21
ENDBRANCH  12  14
ENDBRANCH   6  10
BRANCH   1  23
ATOM     23  C   LIG    1       -2.755   2.399  -0.309  0.00  0.00    +0.351 C 
ATOM     24  OXT LIG    1       -3.917   2.588   0.094  0.00  0.00    -0.244 OA
BRANCH  23  25
ATOM     25  O   LIG    1       -2.087   3.499  -0.886  0.00  0.00    -0.476 OA
ATOM     26  H   LIG    1       -1.591   4.105  -0.269  0.00  0.00    +0.295 HD
ENDBRANCH  23  25
ENDBRANCH   1  23
BRANCH   2  27
ATOM     27  C   LIG    1       -3.929  -0.015   0.877  0.00  0.00    +0.111 C 
BRANCH  27  28
ATOM     28  S   LIG    1       -4.975  -1.244   0.005  0.00  0.00    -0.080 S 
BRANCH  28  29
ATOM     29  C   LIG    1       -6.577  -1.186   0.778  0.00  0.00    +0.209 A 
ATOM     30  N   LIG    1       -7.021  -1.901   1.816  0.00  0.00    -0.102 NA
ATOM     31  N   LIG    1       -8.288  -1.557   2.096  0.00  0.00    -0.022 NA
ATOM     32  N   LIG    1       -8.595  -0.629   1.211  0.00  0.00    -0.043 NA
ATOM     33  N   LIG    1       -7.582  -0.383   0.403  0.00  0.00    -0.223 N 
ATOM     34  C   LIG    1       -7.581   0.583  -0.690  0.00  0.00    +0.177 C 
ENDBRANCH  28  29
ENDBRANCH  27  28
ENDBRANCH   2  27
TORSDOF 9
