REMARK  Name = molecules/OMCPLEZZPVJJIS-QWHCGFSZSA-N.pdb
REMARK                            x       y       z     vdW  Elec       q    Type
REMARK                         _______ _______ _______ _____ _____    ______ ____
ROOT
ATOM      1  C   LIG    1        1.118   0.263  -0.549  0.00  0.00    +0.162 A 
ATOM      2  C   LIG    1        2.375  -0.334  -0.367  0.00  0.00    +0.165 A 
ATOM      3  O   LIG    1        2.522  -1.476   0.443  0.00  0.00    -0.484 OA
ATOM      4  C   LIG    1        3.755  -1.744   1.129  0.00  0.00    +0.276 C 
ATOM      5  C   LIG    1        4.867  -0.865   0.683  0.00  0.00    +0.250 C 
ATOM      6  C   LIG    1        4.780  -0.474  -0.772  0.00  0.00    +0.089 C 
ATOM      7  C   LIG    1        3.471   0.199  -0.984  0.00  0.00    +0.002 A 
ATOM      8  C   LIG    1        3.396   1.328  -1.798  0.00  0.00    +0.007 A 
ATOM      9  C   LIG    1        2.158   1.902  -1.965  0.00  0.00    +0.004 A 
ATOM     10  C   LIG    1        1.043   1.377  -1.350  0.00  0.00    +0.049 A 
ENDROOT
BRANCH   1  11
ATOM     11  O   LIG    1        0.091  -0.347   0.104  0.00  0.00    -0.486 OA
BRANCH  11  12
ATOM     12  C   LIG    1       -1.264  -0.105   0.147  0.00  0.00    +0.261 C 
BRANCH  12  13
ATOM     13  C   LIG    1       -2.029  -0.284  -1.118  0.00  0.00    +0.166 C 
BRANCH  13  14
ATOM     14  O   LIG    1       -2.015  -1.632  -1.562  0.00  0.00    -0.387 OA
ATOM     15  H   LIG    1       -2.605  -2.175  -0.985  0.00  0.00    +0.210 HD
ENDBRANCH  13  14
BRANCH  13  16
ATOM     16  C   LIG    1       -3.383   0.335  -1.202  0.00  0.00    +0.115 C 
BRANCH  16  17
ATOM     17  N   LIG    1       -4.460  -0.229  -0.526  0.00  0.00    -0.311 NA
ATOM     18  H   LIG    1       -5.316  -0.458  -1.075  0.00  0.00    +0.122 HD
BRANCH  17  19
ATOM     19  C   LIG    1       -4.594  -0.208   0.866  0.00  0.00    +0.048 C 
ATOM     20  C   LIG    1       -4.676   1.192   1.456  0.00  0.00    +0.023 C 
ATOM     21  C   LIG    1       -5.961  -0.842   1.206  0.00  0.00    +0.023 C 
ENDBRANCH  17  19
ENDBRANCH  16  17
ENDBRANCH  13  16
ENDBRANCH  12  13
ENDBRANCH  11  12
ENDBRANCH   1  11
BRANCH   5  22
ATOM     22  O   LIG    1        5.035   0.292   1.507  0.00  0.00    -0.345 OA
BRANCH  22  23
ATOM     23  N   LIG    1        6.193   0.513   2.205  0.00  0.00    +0.218 N 
ATOM     24  O   LIG    1        6.151   1.240   3.209  0.00  0.00    -0.090 OA
ATOM     25  O   LIG    1        7.386  -0.039   1.834  0.00  0.00    -0.090 OA
ENDBRANCH  22  23
ENDBRANCH   5  22
TORSDOF 9
