REMARK  Name = molecules/OMDMTHRBGUBUCO-IUCAKERBSA-N.pdb
REMARK                            x       y       z     vdW  Elec       q    Type
REMARK                         _______ _______ _______ _____ _____    ______ ____
ROOT
ATOM      1  C   LIG    1       -3.531  -0.341  -0.458  0.00  0.00    +0.041 C 
ATOM      2  C   LIG    1       -2.127   0.098  -0.457  0.00  0.00    -0.048 C 
ATOM      3  C   LIG    1       -1.617   1.066   0.541  0.00  0.00    +0.140 C 
ATOM      4  C   LIG    1       -0.348   0.418   1.094  0.00  0.00    +0.042 C 
ATOM      5  C   LIG    1        0.675   0.492  -0.018  0.00  0.00    +0.027 C 
ATOM      6  C   LIG    1        0.158   0.090  -1.344  0.00  0.00    +0.033 C 
ATOM      7  C   LIG    1       -1.264  -0.356  -1.347  0.00  0.00    -0.025 C 
ENDROOT
BRANCH   5   8
ATOM      8  C   LIG    1        1.928  -0.234   0.403  0.00  0.00    +0.064 C 
ATOM      9  C   LIG    1        1.734  -1.722   0.499  0.00  0.00    +0.041 C 
ATOM     10  C   LIG    1        3.050   0.013  -0.585  0.00  0.00    +0.041 C 
BRANCH   8  11
ATOM     11  O   LIG    1        2.303   0.221   1.667  0.00  0.00    -0.389 OA
ATOM     12  H   LIG    1        2.195   1.189   1.744  0.00  0.00    +0.210 HD
ENDBRANCH   8  11
ENDBRANCH   5   8
BRANCH   3  13
ATOM     13  O   LIG    1       -2.528   1.326   1.557  0.00  0.00    -0.388 OA
ATOM     14  H   LIG    1       -2.325   2.268   1.861  0.00  0.00    +0.210 HD
ENDBRANCH   3  13
TORSDOF 3
