REMARK  Name = molecules/OMFNSKIUKYOYRG-MOSHPQCFSA-N.pdb
REMARK                            x       y       z     vdW  Elec       q    Type
REMARK                         _______ _______ _______ _____ _____    ______ ____
ROOT
ATOM      1  C   LIG    1       -0.367   0.199   0.592  0.00  0.00    +0.031 C 
ATOM      2  C   LIG    1        0.439  -0.607  -0.070  0.00  0.00    +0.035 C 
ATOM      3  C   LIG    1        1.899  -0.435  -0.117  0.00  0.00    +0.003 A 
ATOM      4  C   LIG    1        2.490   0.599   0.565  0.00  0.00    +0.059 A 
ATOM      5  C   LIG    1        3.872   0.732   0.489  0.00  0.00    +0.163 A 
ATOM      6  C   LIG    1        4.654  -0.147  -0.251  0.00  0.00    +0.162 A 
ATOM      7  C   LIG    1        4.000  -1.162  -0.910  0.00  0.00    +0.053 A 
ATOM      8  C   LIG    1        2.631  -1.337  -0.866  0.00  0.00    -0.033 A 
ATOM      9  C   LIG    1        2.067  -2.478  -1.614  0.00  0.00    +0.054 C 
ATOM     10  C   LIG    1        0.713  -2.886  -1.048  0.00  0.00    +0.106 C 
ATOM     11  N   LIG    1       -0.087  -1.701  -0.815  0.00  0.00    -0.343 N 
ATOM     12  H   LIG    1       -1.029  -1.641  -1.194  0.00  0.00    +0.146 HD
ENDROOT
BRANCH   1  13
ATOM     13  C   LIG    1       -1.825  -0.054   0.588  0.00  0.00    -0.020 A 
ATOM     14  C   LIG    1       -2.318  -1.317   0.830  0.00  0.00    +0.012 A 
ATOM     15  C   LIG    1       -3.700  -1.542   0.853  0.00  0.00    +0.050 A 
ATOM     16  C   LIG    1       -4.590  -0.515   0.636  0.00  0.00    +0.162 A 
ATOM     17  C   LIG    1       -4.098   0.756   0.393  0.00  0.00    +0.162 A 
ATOM     18  C   LIG    1       -2.730   0.956   0.375  0.00  0.00    +0.057 A 
BRANCH  16  19
ATOM     19  O   LIG    1       -5.948  -0.728   0.657  0.00  0.00    -0.489 OA
BRANCH  19  20
ATOM     20  C   LIG    1       -6.597  -1.947   0.888  0.00  0.00    +0.226 C 
ATOM     21  C   LIG    1       -6.253  -3.022  -0.115  0.00  0.00    +0.048 C 
ENDBRANCH  19  20
ENDBRANCH  16  19
BRANCH  17  22
ATOM     22  O   LIG    1       -4.914   1.818   0.171  0.00  0.00    -0.489 OA
BRANCH  22  23
ATOM     23  C   LIG    1       -4.608   3.137  -0.082  0.00  0.00    +0.226 C 
ATOM     24  C   LIG    1       -5.886   3.912  -0.261  0.00  0.00    +0.048 C 
ENDBRANCH  22  23
ENDBRANCH  17  22
ENDBRANCH   1  13
BRANCH   5  25
ATOM     25  O   LIG    1        4.490   1.751   1.156  0.00  0.00    -0.489 OA
BRANCH  25  26
ATOM     26  C   LIG    1        3.898   2.732   1.946  0.00  0.00    +0.226 C 
ATOM     27  C   LIG    1        2.901   3.606   1.254  0.00  0.00    +0.048 C 
ENDBRANCH  25  26
ENDBRANCH   5  25
BRANCH   6  28
ATOM     28  O   LIG    1        6.037   0.008  -0.309  0.00  0.00    -0.489 OA
BRANCH  28  29
ATOM     29  C   LIG    1        6.763  -0.932  -1.083  0.00  0.00    +0.226 C 
ATOM     30  C   LIG    1        8.233  -0.666  -1.073  0.00  0.00    +0.048 C 
ENDBRANCH  28  29
ENDBRANCH   6  28
TORSDOF 9
