REMARK  Name = molecules/OMHBPUNFVFNHJK-UHFFFAOYSA-P.pdb
REMARK                            x       y       z     vdW  Elec       q    Type
REMARK                         _______ _______ _______ _____ _____    ______ ____
ROOT
ATOM      1  N   LIG    1        2.381  -2.384   0.285  0.00  0.00    -0.309 N 
ATOM      2  C   LIG    1        1.343  -1.708   0.954  0.00  0.00    +0.299 C 
ATOM      3  O   LIG    1        1.574  -1.157   2.050  0.00  0.00    -0.265 OA
ATOM      4  H   LIG    1        2.137  -2.840  -0.642  0.00  0.00    +0.149 HD
ENDROOT
BRANCH   2   5
ATOM      5  C   LIG    1        0.008  -1.636   0.404  0.00  0.00    +0.299 C 
ATOM      6  N   LIG    1       -1.045  -0.953   1.094  0.00  0.00    -0.309 N 
ATOM      7  H   LIG    1       -0.810  -0.515   1.996  0.00  0.00    +0.149 HD
ATOM      8  O   LIG    1       -0.216  -2.189  -0.703  0.00  0.00    -0.265 OA
BRANCH   6   9
ATOM      9  C   LIG    1       -2.347  -0.932   0.469  0.00  0.00    +0.086 C 
BRANCH   9  10
ATOM     10  C   LIG    1       -3.373  -0.218   1.250  0.00  0.00    -0.056 C 
BRANCH  10  11
ATOM     11  N   LIG    1       -4.726  -0.169   0.668  0.00  0.00    +0.383 N 
BRANCH  11  12
ATOM     12  C   LIG    1       -5.473   0.547   1.681  0.00  0.00    -0.078 C 
ATOM     13  C   LIG    1       -5.950   1.897   1.401  0.00  0.00    -0.016 C 
ENDBRANCH  11  12
BRANCH  11  14
ATOM     14  C   LIG    1       -5.222  -1.524   0.683  0.00  0.00    -0.078 C 
ATOM     15  C   LIG    1       -5.235  -2.260  -0.601  0.00  0.00    -0.016 C 
ENDBRANCH  11  14
BRANCH  11  16
ATOM     16  C   LIG    1       -4.634   0.458  -0.578  0.00  0.00    -0.038 C 
BRANCH  16  17
ATOM     17  C   LIG    1       -5.798   0.742  -1.397  0.00  0.00    -0.045 A 
ATOM     18  C   LIG    1       -7.088   0.428  -1.068  0.00  0.00    +0.003 A 
ATOM     19  C   LIG    1       -8.193   0.708  -1.867  0.00  0.00    +0.000 A 
ATOM     20  C   LIG    1       -7.980   1.334  -3.053  0.00  0.00    +0.001 A 
ATOM     21  C   LIG    1       -6.678   1.662  -3.410  0.00  0.00    +0.020 A 
ATOM     22  C   LIG    1       -5.605   1.379  -2.611  0.00  0.00    +0.042 A 
ATOM     23 CL   LIG    1       -3.998   1.840  -3.160  0.00  0.00    -0.083 Cl
ENDBRANCH  16  17
ENDBRANCH  11  16
ENDBRANCH  10  11
ENDBRANCH   9  10
ENDBRANCH   6   9
ENDBRANCH   2   5
BRANCH   1  24
ATOM     24  C   LIG    1        3.725  -2.481   0.798  0.00  0.00    +0.086 C 
BRANCH  24  25
ATOM     25  C   LIG    1        4.455  -1.202   0.984  0.00  0.00    -0.056 C 
BRANCH  25  26
ATOM     26  N   LIG    1        4.710  -0.389  -0.180  0.00  0.00    +0.383 N 
BRANCH  26  27
ATOM     27  C   LIG    1        3.676   0.576  -0.307  0.00  0.00    -0.078 C 
ATOM     28  C   LIG    1        2.802   0.469  -1.532  0.00  0.00    -0.016 C 
ENDBRANCH  26  27
BRANCH  26  29
ATOM     29  C   LIG    1        4.699  -1.312  -1.345  0.00  0.00    -0.078 C 
ATOM     30  C   LIG    1        5.637  -0.862  -2.436  0.00  0.00    -0.016 C 
ENDBRANCH  26  29
BRANCH  26  31
ATOM     31  C   LIG    1        6.045   0.129  -0.064  0.00  0.00    -0.038 C 
BRANCH  31  32
ATOM     32  C   LIG    1        6.406   1.131   0.915  0.00  0.00    -0.045 A 
ATOM     33  C   LIG    1        5.572   1.725   1.812  0.00  0.00    +0.003 A 
ATOM     34  C   LIG    1        6.050   2.695   2.700  0.00  0.00    +0.000 A 
ATOM     35  C   LIG    1        7.367   3.061   2.682  0.00  0.00    +0.001 A 
ATOM     36  C   LIG    1        8.212   2.457   1.771  0.00  0.00    +0.020 A 
ATOM     37  C   LIG    1        7.773   1.520   0.905  0.00  0.00    +0.042 A 
ATOM     38 CL   LIG    1        8.874   0.744  -0.257  0.00  0.00    -0.083 Cl
ENDBRANCH  31  32
ENDBRANCH  26  31
ENDBRANCH  25  26
ENDBRANCH  24  25
ENDBRANCH   1  24
TORSDOF 15
