REMARK  Name = molecules/OMPJBNCRMGITSC-UHFFFAOYSA-N.pdb
REMARK                            x       y       z     vdW  Elec       q    Type
REMARK                         _______ _______ _______ _____ _____    ______ ____
ROOT
ATOM      1  O   LIG    1       -0.704   0.038   0.765  0.00  0.00    -0.241 OA
ENDROOT
BRANCH   1   2
ATOM      2  C   LIG    1       -1.516   0.689  -0.134  0.00  0.00    +0.387 C 
ATOM      3  O   LIG    1       -0.985   1.526  -0.906  0.00  0.00    -0.241 OA
BRANCH   2   4
ATOM      4  C   LIG    1       -2.963   0.437  -0.218  0.00  0.00    +0.063 A 
ATOM      5  C   LIG    1       -3.581  -0.472   0.610  0.00  0.00    +0.015 A 
ATOM      6  C   LIG    1       -4.952  -0.676   0.495  0.00  0.00    +0.001 A 
ATOM      7  C   LIG    1       -5.732  -0.005  -0.418  0.00  0.00    +0.000 A 
ATOM      8  C   LIG    1       -5.102   0.906  -1.246  0.00  0.00    +0.001 A 
ATOM      9  C   LIG    1       -3.726   1.110  -1.129  0.00  0.00    +0.015 A 
ENDBRANCH   2   4
ENDBRANCH   1   2
BRANCH   1  10
ATOM     10  O   LIG    1        0.633   0.283   0.828  0.00  0.00    -0.241 OA
BRANCH  10  11
ATOM     11  C   LIG    1        1.518  -0.610   0.283  0.00  0.00    +0.387 C 
ATOM     12  O   LIG    1        1.054  -1.638  -0.264  0.00  0.00    -0.241 OA
BRANCH  11  13
ATOM     13  C   LIG    1        2.963  -0.436   0.301  0.00  0.00    +0.063 A 
ATOM     14  C   LIG    1        3.520   0.674   0.888  0.00  0.00    +0.015 A 
ATOM     15  C   LIG    1        4.876   0.888   0.933  0.00  0.00    +0.001 A 
ATOM     16  C   LIG    1        5.725  -0.039   0.371  0.00  0.00    +0.000 A 
ATOM     17  C   LIG    1        5.186  -1.156  -0.221  0.00  0.00    +0.001 A 
ATOM     18  C   LIG    1        3.809  -1.365  -0.262  0.00  0.00    +0.015 A 
ENDBRANCH  11  13
ENDBRANCH  10  11
ENDBRANCH   1  10
TORSDOF 5
