REMARK  Name = molecules/OMWQUXGVXQELIX-UHFFFAOYSA-N.pdb
REMARK                            x       y       z     vdW  Elec       q    Type
REMARK                         _______ _______ _______ _____ _____    ______ ____
ROOT
ATOM      1  C   LIG    1        1.302  -0.706  -0.154  0.00  0.00    +0.074 A 
ATOM      2  C   LIG    1        0.378  -1.627   0.299  0.00  0.00    +0.030 A 
ATOM      3  C   LIG    1       -0.990  -1.409   0.213  0.00  0.00    +0.030 A 
ATOM      4  C   LIG    1       -1.450  -0.232  -0.345  0.00  0.00    +0.074 A 
ATOM      5  C   LIG    1       -0.525   0.694  -0.801  0.00  0.00    +0.030 A 
ATOM      6  C   LIG    1        0.834   0.468  -0.711  0.00  0.00    +0.030 A 
ENDROOT
BRANCH   1   9
ATOM      7  S   LIG    1        4.346   1.427   0.309  0.00  0.00    +0.021 S 
ATOM      8  C   LIG    1        3.491   0.102   0.030  0.00  0.00    +0.041 C 
ATOM      9  N   LIG    1        2.711  -0.916  -0.072  0.00  0.00    -0.197 NA
ENDBRANCH   1   9
BRANCH   4  10
ATOM     10  N   LIG    1       -2.851   0.049  -0.461  0.00  0.00    -0.197 NA
ATOM     11  C   LIG    1       -3.297   1.222  -0.538  0.00  0.00    +0.041 C 
ATOM     12  S   LIG    1       -3.653   2.787  -0.380  0.00  0.00    +0.021 S 
ENDBRANCH   4  10
TORSDOF 2
