REMARK  Name = molecules/ONIQOQHATWINJY-UHFFFAOYSA-N.pdb
REMARK                            x       y       z     vdW  Elec       q    Type
REMARK                         _______ _______ _______ _____ _____    ______ ____
ROOT
ATOM      1  C   LIG    1        0.769   0.973  -1.021  0.00  0.00    +0.034 A 
ATOM      2  C   LIG    1        0.317   1.048   0.254  0.00  0.00    +0.027 A 
ATOM      3  C   LIG    1       -1.060   0.987   0.499  0.00  0.00    +0.048 A 
ATOM      4  C   LIG    1       -1.994   0.854  -0.503  0.00  0.00    +0.129 A 
ATOM      5  C   LIG    1       -1.496   0.782  -1.787  0.00  0.00    +0.048 A 
ATOM      6  C   LIG    1       -0.161   0.836  -2.083  0.00  0.00    +0.027 A 
ENDROOT
BRANCH   1   9
ATOM      7  C   LIG    1        3.179   0.768  -0.414  0.00  0.00    +0.232 C 
ATOM      8  O   LIG    1        2.945   0.494   0.782  0.00  0.00    -0.274 OA
ATOM      9  N   LIG    1        2.148   1.006  -1.332  0.00  0.00    -0.285 N 
ATOM     10  H   LIG    1        2.430   1.237  -2.355  0.00  0.00    +0.155 HD
BRANCH   7  11
ATOM     11  C   LIG    1        4.617   0.840  -0.865  0.00  0.00    +0.123 C 
ATOM     12  C   LIG    1        5.112   2.040  -1.540  0.00  0.00    +0.027 C 
ATOM     13  C   LIG    1        4.931   0.717  -2.295  0.00  0.00    +0.027 C 
BRANCH  11  14
ATOM     14  C   LIG    1        5.575   0.202   0.122  0.00  0.00    +0.232 C 
ATOM     15  O   LIG    1        5.066  -0.308   1.144  0.00  0.00    -0.274 OA
ATOM     16  N   LIG    1        6.928   0.251  -0.215  0.00  0.00    -0.285 N 
ATOM     17  H   LIG    1        7.227   0.714  -1.117  0.00  0.00    +0.155 HD
BRANCH  16  18
ATOM     18  C   LIG    1        7.953  -0.314   0.616  0.00  0.00    +0.034 A 
ATOM     19  C   LIG    1        7.726  -1.189   1.630  0.00  0.00    +0.026 A 
ATOM     20  C   LIG    1        8.766  -1.702   2.375  0.00  0.00    +0.040 A 
ATOM     21  C   LIG    1       10.048  -1.313   2.075  0.00  0.00    +0.124 A 
ATOM     22  F   LIG    1       11.069  -1.825   2.817  0.00  0.00    -0.205 F 
ATOM     23  C   LIG    1       10.295  -0.427   1.050  0.00  0.00    +0.040 A 
ATOM     24  C   LIG    1        9.264   0.085   0.308  0.00  0.00    +0.026 A 
ENDBRANCH  16  18
ENDBRANCH  11  14
ENDBRANCH   7  11
ENDBRANCH   1   9
BRANCH   4  25
ATOM     25  O   LIG    1       -3.353   0.796  -0.228  0.00  0.00    -0.455 OA
BRANCH  25  26
ATOM     26  C   LIG    1       -3.891  -0.467   0.003  0.00  0.00    +0.139 A 
ATOM     27  C   LIG    1       -5.236  -0.575   0.282  0.00  0.00    +0.046 A 
ATOM     28  C   LIG    1       -5.834  -1.816   0.523  0.00  0.00    +0.078 A 
ATOM     29  C   LIG    1       -7.173  -1.907   0.800  0.00  0.00    +0.077 A 
ATOM     30  C   LIG    1       -7.972  -0.792   0.851  0.00  0.00    +0.164 A 
ATOM     31  C   LIG    1       -7.416   0.472   0.616  0.00  0.00    +0.162 A 
ATOM     32  N   LIG    1       -5.047  -2.918   0.473  0.00  0.00    -0.255 NA
ATOM     33  C   LIG    1       -3.734  -2.840   0.203  0.00  0.00    +0.115 A 
ATOM     34  C   LIG    1       -6.067   0.528   0.341  0.00  0.00    +0.063 A 
ATOM     35  C   LIG    1       -3.134  -1.623  -0.036  0.00  0.00    +0.066 A 
BRANCH  30  36
ATOM     36  O   LIG    1       -9.328  -0.818   1.126  0.00  0.00    -0.491 OA
ATOM     37  C   LIG    1      -10.063  -1.976   1.387  0.00  0.00    +0.277 C 
ENDBRANCH  30  36
BRANCH  31  38
ATOM     38  O   LIG    1       -8.214   1.605   0.665  0.00  0.00    -0.491 OA
ATOM     39  C   LIG    1       -7.631   2.868   0.425  0.00  0.00    +0.277 C 
ENDBRANCH  31  38
ENDBRANCH  25  26
ENDBRANCH   4  25
TORSDOF 8
