REMARK  Name = molecules/ONKUMRGIYFNPJW-KIEAKMPYSA-N.pdb
REMARK                            x       y       z     vdW  Elec       q    Type
REMARK                         _______ _______ _______ _____ _____    ______ ____
ROOT
ATOM      1  C   LIG    1       -2.275   0.202   1.746  0.00  0.00    +0.016 C 
ATOM      2  C   LIG    1       -2.385  -0.059   0.270  0.00  0.00    +0.022 C 
ATOM      3  C   LIG    1       -1.885  -1.422  -0.090  0.00  0.00    +0.012 C 
ATOM      4  C   LIG    1       -0.434  -1.575   0.213  0.00  0.00    +0.005 C 
ATOM      5  C   LIG    1        0.441  -0.460  -0.239  0.00  0.00    -0.000 C 
ATOM      6  C   LIG    1        1.763  -0.513   0.498  0.00  0.00    +0.018 C 
ATOM      7  C   LIG    1        2.521  -1.773   0.334  0.00  0.00    +0.012 C 
ATOM      8  C   LIG    1        3.540  -1.784  -0.774  0.00  0.00    +0.049 C 
ATOM      9  C   LIG    1        4.481  -0.606  -0.702  0.00  0.00    +0.199 C 
ATOM     10  C   LIG    1        3.807   0.643  -0.316  0.00  0.00    +0.016 C 
ATOM     11  C   LIG    1        2.600   0.675   0.216  0.00  0.00    -0.067 C 
ATOM     12  C   LIG    1        1.953   1.996   0.590  0.00  0.00    +0.031 C 
ATOM     13  C   LIG    1        0.691   2.040  -0.283  0.00  0.00    +0.008 C 
ATOM     14  C   LIG    1       -0.175   0.903   0.119  0.00  0.00    -0.003 C 
ATOM     15  C   LIG    1       -3.744   0.260  -0.247  0.00  0.00    +0.178 C 
ATOM     16  C   LIG    1       -3.685   1.673  -0.807  0.00  0.00    +0.062 C 
ATOM     17  C   LIG    1       -2.278   2.165  -0.460  0.00  0.00    +0.009 C 
ATOM     18  C   LIG    1       -1.513   0.909  -0.542  0.00  0.00    +0.003 C 
ENDROOT
BRANCH  15  19
ATOM     19  C   LIG    1       -4.209  -0.665  -1.281  0.00  0.00    -0.058 C 
ATOM     20  C   LIG    1       -4.587  -1.429  -2.126  0.00  0.00    +0.008 C 
ENDBRANCH  15  19
BRANCH   9  21
ATOM     21  O   LIG    1        5.607  -0.883   0.093  0.00  0.00    -0.457 OA
BRANCH  21  22
ATOM     22  C   LIG    1        6.884  -0.937  -0.408  0.00  0.00    +0.305 C 
ATOM     23  C   LIG    1        8.095  -1.225   0.394  0.00  0.00    +0.136 C 
ATOM     24  O   LIG    1        7.027  -0.723  -1.650  0.00  0.00    -0.251 OA
ENDBRANCH  21  22
ENDBRANCH   9  21
BRANCH  15  25
ATOM     25  O   LIG    1       -4.643   0.300   0.851  0.00  0.00    -0.445 OA
BRANCH  25  26
ATOM     26  C   LIG    1       -5.984   0.569   0.734  0.00  0.00    +0.305 C 
ATOM     27  C   LIG    1       -6.922   0.611   1.886  0.00  0.00    +0.136 C 
ATOM     28  O   LIG    1       -6.440   0.792  -0.415  0.00  0.00    -0.251 OA
ENDBRANCH  25  26
ENDBRANCH  15  25
TORSDOF 5
