REMARK  Name = molecules/ONNOFKFOZAJDHT-UHFFFAOYSA-N.pdb
REMARK                            x       y       z     vdW  Elec       q    Type
REMARK                         _______ _______ _______ _____ _____    ______ ____
ROOT
ATOM      1  C   LIG    1       -1.407   0.342  -0.509  0.00  0.00    +0.115 C 
ATOM      2  C   LIG    1       -2.176  -0.661   0.261  0.00  0.00    -0.023 A 
ATOM      3  C   LIG    1       -1.842  -0.791   1.571  0.00  0.00    +0.006 A 
ATOM      4  C   LIG    1       -2.471  -1.695   2.430  0.00  0.00    +0.000 A 
ATOM      5  C   LIG    1       -3.483  -2.479   1.876  0.00  0.00    +0.000 A 
ATOM      6  C   LIG    1       -3.816  -2.347   0.564  0.00  0.00    +0.004 A 
ATOM      7  C   LIG    1       -3.179  -1.442  -0.273  0.00  0.00    -0.042 A 
ATOM      8  C   LIG    1       -3.727  -1.482  -1.655  0.00  0.00    +0.040 C 
ATOM      9  C   LIG    1       -4.106  -0.192  -2.247  0.00  0.00    +0.040 C 
ATOM     10  C   LIG    1       -3.548   1.050  -1.728  0.00  0.00    -0.042 A 
ATOM     11  C   LIG    1       -4.372   2.094  -2.097  0.00  0.00    +0.004 A 
ATOM     12  C   LIG    1       -4.065   3.373  -1.754  0.00  0.00    +0.000 A 
ATOM     13  C   LIG    1       -2.924   3.645  -1.032  0.00  0.00    +0.000 A 
ATOM     14  C   LIG    1       -2.093   2.615  -0.656  0.00  0.00    +0.006 A 
ATOM     15  C   LIG    1       -2.393   1.338  -0.995  0.00  0.00    -0.023 A 
ENDROOT
BRANCH   1  16
ATOM     16  N   LIG    1       -0.221   0.823   0.041  0.00  0.00    -0.306 NA
ATOM     17  H   LIG    1       -0.291   1.431   0.879  0.00  0.00    +0.123 HD
BRANCH  16  18
ATOM     18  C   LIG    1        0.863  -0.123   0.134  0.00  0.00    +0.082 C 
BRANCH  18  19
ATOM     19  C   LIG    1        2.010   0.598   0.801  0.00  0.00    +0.015 C 
BRANCH  19  20
ATOM     20  C   LIG    1        3.231  -0.267   0.997  0.00  0.00    +0.001 C 
BRANCH  20  21
ATOM     21  C   LIG    1        3.786  -0.777  -0.299  0.00  0.00    +0.001 C 
BRANCH  21  22
ATOM     22  C   LIG    1        4.981  -1.647  -0.061  0.00  0.00    +0.011 C 
BRANCH  22  23
ATOM     23  C   LIG    1        6.061  -0.877   0.654  0.00  0.00    +0.120 C 
BRANCH  23  24
ATOM     24  C   LIG    1        6.470   0.289  -0.142  0.00  0.00    +0.305 C 
ATOM     25  O   LIG    1        6.825   0.174  -1.345  0.00  0.00    -0.251 OA
BRANCH  24  26
ATOM     26  O   LIG    1        6.462   1.542   0.448  0.00  0.00    -0.481 OA
ATOM     27  H   LIG    1        6.276   2.402  -0.020  0.00  0.00    +0.295 HD
ENDBRANCH  24  26
ENDBRANCH  23  24
ENDBRANCH  22  23
ENDBRANCH  21  22
ENDBRANCH  20  21
ENDBRANCH  19  20
ENDBRANCH  18  19
ENDBRANCH  16  18
ENDBRANCH   1  16
TORSDOF 9
