REMARK  Name = molecules/ONWXNHPOAGOMTG-UHFFFAOYSA-N.pdb
REMARK                            x       y       z     vdW  Elec       q    Type
REMARK                         _______ _______ _______ _____ _____    ______ ____
ROOT
ATOM      1  C   LIG    1        0.460   0.435  -0.832  0.00  0.00    +0.160 C 
ATOM      2  C   LIG    1        0.232  -0.230   0.476  0.00  0.00    +0.255 C 
ATOM      3  O   LIG    1        1.136  -0.282   1.345  0.00  0.00    -0.272 OA
ATOM      4  N   LIG    1       -1.083  -0.755   0.568  0.00  0.00    -0.180 N 
ATOM      5  N   LIG    1       -1.725  -0.512  -0.670  0.00  0.00    -0.180 N 
ATOM      6  C   LIG    1       -0.834   0.166  -1.557  0.00  0.00    +0.255 C 
ATOM      7  O   LIG    1       -1.037   0.507  -2.750  0.00  0.00    -0.272 OA
ENDROOT
BRANCH   4   8
ATOM      8  C   LIG    1       -1.715  -1.413   1.652  0.00  0.00    +0.057 A 
ATOM      9  C   LIG    1       -1.532  -1.001   2.969  0.00  0.00    +0.025 A 
ATOM     10  C   LIG    1       -2.143  -1.636   4.027  0.00  0.00    +0.002 A 
ATOM     11  C   LIG    1       -2.969  -2.722   3.773  0.00  0.00    +0.000 A 
ATOM     12  C   LIG    1       -3.142  -3.119   2.471  0.00  0.00    +0.002 A 
ATOM     13  C   LIG    1       -2.534  -2.489   1.406  0.00  0.00    +0.025 A 
ENDBRANCH   4   8
BRANCH   5  14
ATOM     14  C   LIG    1       -3.035  -0.846  -1.063  0.00  0.00    +0.057 A 
ATOM     15  C   LIG    1       -4.127  -0.418  -0.354  0.00  0.00    +0.025 A 
ATOM     16  C   LIG    1       -5.427  -0.750  -0.745  0.00  0.00    +0.002 A 
ATOM     17  C   LIG    1       -5.562  -1.521  -1.864  0.00  0.00    +0.000 A 
ATOM     18  C   LIG    1       -4.503  -1.978  -2.612  0.00  0.00    +0.002 A 
ATOM     19  C   LIG    1       -3.230  -1.618  -2.179  0.00  0.00    +0.025 A 
ENDBRANCH   5  14
BRANCH   1  20
ATOM     20  C   LIG    1        1.529  -0.210  -1.637  0.00  0.00    +0.257 C 
BRANCH  20  21
ATOM     21  O   LIG    1        2.832  -0.018  -1.161  0.00  0.00    -0.463 OA
BRANCH  21  22
ATOM     22  C   LIG    1        3.927  -0.560  -1.810  0.00  0.00    +0.308 C 
ATOM     23  O   LIG    1        3.690  -1.240  -2.858  0.00  0.00    -0.251 OA
BRANCH  22  24
ATOM     24  C   LIG    1        5.319  -0.382  -1.343  0.00  0.00    +0.132 C 
BRANCH  24  25
ATOM     25  C   LIG    1        5.346   0.459  -0.084  0.00  0.00    +0.131 C 
BRANCH  25  26
ATOM     26  C   LIG    1        4.566  -0.207   0.986  0.00  0.00    +0.305 C 
ATOM     27  O   LIG    1        4.459   0.339   2.109  0.00  0.00    -0.251 OA
BRANCH  26  28
ATOM     28  O   LIG    1        3.956  -1.422   0.764  0.00  0.00    -0.481 OA
ATOM     29  H   LIG    1        4.409  -2.305   0.715  0.00  0.00    +0.295 HD
ENDBRANCH  26  28
ENDBRANCH  25  26
ENDBRANCH  24  25
ENDBRANCH  22  24
ENDBRANCH  21  22
ENDBRANCH  20  21
ENDBRANCH   1  20
BRANCH   1  30
ATOM     30  C   LIG    1        0.550   1.926  -0.705  0.00  0.00    +0.029 C 
BRANCH  30  31
ATOM     31  C   LIG    1        1.783   2.455  -0.073  0.00  0.00    +0.001 C 
BRANCH  31  32
ATOM     32  C   LIG    1        1.651   3.983  -0.045  0.00  0.00    -0.003 C 
ATOM     33  C   LIG    1        0.468   4.448   0.733  0.00  0.00    +0.004 C 
ENDBRANCH  31  32
ENDBRANCH  30  31
ENDBRANCH   1  30
TORSDOF 12
