REMARK  Name = molecules/OOBHFESNSZDWIU-ONGXEEELSA-N.pdb
REMARK                            x       y       z     vdW  Elec       q    Type
REMARK                         _______ _______ _______ _____ _____    ______ ____
ROOT
ATOM      1  C   LIG    1       -1.361  -1.720  -0.035  0.00  0.00    +0.027 C 
ATOM      2  C   LIG    1       -1.198  -0.457   0.747  0.00  0.00    +0.084 C 
ATOM      3  N   LIG    1       -2.514   0.167   0.850  0.00  0.00    -0.309 NA
ATOM      4  H   LIG    1       -2.548   0.830   1.645  0.00  0.00    +0.122 HD
ATOM      5  C   LIG    1       -2.935   0.785  -0.369  0.00  0.00    +0.109 C 
ATOM      6  C   LIG    1       -1.856   1.638  -1.004  0.00  0.00    +0.176 C 
ATOM      7  O   LIG    1       -0.731   0.828  -1.158  0.00  0.00    -0.369 OA
ATOM      8  C   LIG    1       -0.276   0.532   0.122  0.00  0.00    +0.165 C 
ENDROOT
BRANCH   8   9
ATOM      9  C   LIG    1        1.133   0.159   0.125  0.00  0.00    -0.017 A 
ATOM     10  C   LIG    1        2.061   0.641   1.047  0.00  0.00    +0.006 A 
ATOM     11  C   LIG    1        3.384   0.250   1.000  0.00  0.00    +0.000 A 
ATOM     12  C   LIG    1        3.838  -0.629   0.043  0.00  0.00    +0.000 A 
ATOM     13  C   LIG    1        2.944  -1.111  -0.868  0.00  0.00    +0.000 A 
ATOM     14  C   LIG    1        1.621  -0.718  -0.816  0.00  0.00    +0.006 A 
ENDBRANCH   8   9
TORSDOF 1
