REMARK  Name = molecules/OPNPQXLQERQBBV-UHFFFAOYSA-N.pdb
REMARK                            x       y       z     vdW  Elec       q    Type
REMARK                         _______ _______ _______ _____ _____    ______ ____
ROOT
ATOM      1  C   LIG    1        0.935  -0.297   0.039  0.00  0.00    +0.237 C 
ATOM      2  N   LIG    1        1.866   0.452   0.823  0.00  0.00    -0.239 N 
ATOM      3  H   LIG    1        1.542   0.921   1.677  0.00  0.00    +0.159 HD
ATOM      4  C   LIG    1        3.215   0.551   0.437  0.00  0.00    +0.303 C 
ATOM      5  O   LIG    1        4.006   1.218   1.152  0.00  0.00    -0.253 OA
ATOM      6  N   LIG    1        3.649  -0.109  -0.755  0.00  0.00    -0.313 N 
ATOM      7  H   LIG    1        3.893  -1.121  -0.799  0.00  0.00    +0.146 HD
ATOM      8  H   LIG    1        3.718   0.477  -1.615  0.00  0.00    +0.146 HD
ATOM      9  O   LIG    1        1.357  -0.862  -1.003  0.00  0.00    -0.274 OA
ENDROOT
BRANCH   1  10
ATOM     10  C   LIG    1       -0.478  -0.432   0.393  0.00  0.00    +0.102 C 
ATOM     11 BR   LIG    1       -0.575  -1.385   2.098  0.00  0.00    -0.075 Br
BRANCH  10  12
ATOM     12  C   LIG    1       -1.161   0.898   0.616  0.00  0.00    +0.024 C 
ATOM     13  C   LIG    1       -1.128   1.778  -0.591  0.00  0.00    +0.006 C 
ENDBRANCH  10  12
BRANCH  10  14
ATOM     14  C   LIG    1       -1.177  -1.274  -0.628  0.00  0.00    +0.024 C 
ATOM     15  C   LIG    1       -2.656  -1.407  -0.243  0.00  0.00    +0.006 C 
ENDBRANCH  10  14
ENDBRANCH   1  10
TORSDOF 3
