REMARK  Name = molecules/OPTBBAGXQYOFTL-UHFFFAOYSA-N.pdb
REMARK                            x       y       z     vdW  Elec       q    Type
REMARK                         _______ _______ _______ _____ _____    ______ ____
ROOT
ATOM      1  C   LIG    1       -0.836   0.908  -1.395  0.00  0.00    +0.049 A 
ATOM      2  C   LIG    1        0.465   0.483  -1.580  0.00  0.00    +0.049 A 
ATOM      3  C   LIG    1        1.433   1.310  -2.170  0.00  0.00    +0.014 A 
ATOM      4  C   LIG    1        1.025   2.564  -2.555  0.00  0.00    +0.001 A 
ATOM      5  C   LIG    1       -0.278   3.022  -2.381  0.00  0.00    +0.001 A 
ATOM      6  C   LIG    1       -1.192   2.180  -1.800  0.00  0.00    +0.014 A 
ENDROOT
BRANCH   1   7
ATOM      7  C   LIG    1       -1.888   0.095  -0.826  0.00  0.00    +0.247 C 
ATOM      8  N   LIG    1       -2.356   0.075   0.502  0.00  0.00    -0.298 N 
ATOM      9  O   LIG    1       -2.430  -0.687  -1.711  0.00  0.00    -0.270 OA
BRANCH   8  10
ATOM     10  C   LIG    1       -1.889   0.856   1.603  0.00  0.00    +0.104 C 
ATOM     11  C   LIG    1       -0.835   0.220   2.449  0.00  0.00    +0.024 C 
ENDBRANCH   8  10
BRANCH   8  12
ATOM     12  C   LIG    1       -3.466  -0.875   0.777  0.00  0.00    +0.104 C 
ATOM     13  C   LIG    1       -4.804  -0.257   0.566  0.00  0.00    +0.024 C 
ENDBRANCH   8  12
ENDBRANCH   1   7
BRANCH   2  14
ATOM     14  C   LIG    1        0.927  -0.817  -1.153  0.00  0.00    +0.247 C 
ATOM     15  N   LIG    1        1.656  -1.083   0.034  0.00  0.00    -0.298 N 
ATOM     16  O   LIG    1        0.662  -1.809  -1.907  0.00  0.00    -0.270 OA
BRANCH  15  17
ATOM     17  C   LIG    1        2.084   0.010   0.882  0.00  0.00    +0.104 C 
ATOM     18  C   LIG    1        3.472   0.468   0.459  0.00  0.00    +0.024 C 
ENDBRANCH  15  17
BRANCH  15  19
ATOM     19  C   LIG    1        2.047  -2.409   0.413  0.00  0.00    +0.104 C 
ATOM     20  C   LIG    1        3.395  -2.810  -0.123  0.00  0.00    +0.024 C 
ENDBRANCH  15  19
ENDBRANCH   2  14
TORSDOF 6
