REMARK  Name = molecules/OPXLLQIJSORQAM-UHFFFAOYSA-N.pdb
REMARK                            x       y       z     vdW  Elec       q    Type
REMARK                         _______ _______ _______ _____ _____    ______ ____
ROOT
ATOM      1  C   LIG    1       -1.334  -0.501   0.169  0.00  0.00    +0.024 A 
ATOM      2  C   LIG    1       -0.030  -0.607   0.660  0.00  0.00    +0.041 A 
ATOM      3  C   LIG    1        1.069  -0.278  -0.106  0.00  0.00    +0.091 A 
ATOM      4  N   LIG    1        2.394  -0.288   0.119  0.00  0.00    -0.214 NA
ATOM      5  C   LIG    1        3.037   0.141  -0.997  0.00  0.00    +0.203 A 
ATOM      6  N   LIG    1        2.128   0.431  -1.950  0.00  0.00    -0.326 N 
ATOM      7  H   LIG    1        2.316   0.789  -2.933  0.00  0.00    +0.169 HD
ATOM      8  C   LIG    1        0.928   0.173  -1.400  0.00  0.00    +0.067 A 
ATOM      9  C   LIG    1       -0.363   0.280  -1.892  0.00  0.00    +0.028 A 
ATOM     10  C   LIG    1       -1.475  -0.051  -1.123  0.00  0.00    +0.014 A 
ENDROOT
BRANCH   5  11
ATOM     11  N   LIG    1        4.441   0.263  -1.133  0.00  0.00    -0.221 N 
ATOM     12  C   LIG    1        5.295  -0.067  -0.077  0.00  0.00    +0.406 C 
ATOM     13  O   LIG    1        4.818  -0.475   1.004  0.00  0.00    -0.226 OA
ATOM     14  H   LIG    1        4.834   0.602  -2.030  0.00  0.00    +0.161 HD
BRANCH  12  15
ATOM     15  O   LIG    1        6.681   0.027  -0.138  0.00  0.00    -0.453 OA
ATOM     16  C   LIG    1        7.485  -0.328   0.982  0.00  0.00    +0.282 C 
ENDBRANCH  12  15
ENDBRANCH   5  11
BRANCH   1  17
ATOM     17  C   LIG    1       -2.470  -0.868   0.997  0.00  0.00    +0.193 C 
ATOM     18  O   LIG    1       -2.337  -1.752   1.914  0.00  0.00    -0.287 OA
BRANCH  17  19
ATOM     19  C   LIG    1       -3.762  -0.276   0.836  0.00  0.00    +0.022 A 
ATOM     20  C   LIG    1       -4.888  -0.996   1.178  0.00  0.00    +0.012 A 
ATOM     21  C   LIG    1       -6.152  -0.459   1.050  0.00  0.00    +0.001 A 
ATOM     22  C   LIG    1       -6.290   0.838   0.566  0.00  0.00    +0.000 A 
ATOM     23  C   LIG    1       -5.175   1.563   0.223  0.00  0.00    +0.001 A 
ATOM     24  C   LIG    1       -3.898   1.007   0.357  0.00  0.00    +0.012 A 
ENDBRANCH  17  19
ENDBRANCH   1  17
TORSDOF 4
