REMARK  Name = molecules/OPYGFNJSCUDTBT-PMLPCWDUSA-N.pdb
REMARK                            x       y       z     vdW  Elec       q    Type
REMARK                         _______ _______ _______ _____ _____    ______ ____
ROOT
ATOM      1  C   LIG    1        3.101  -0.431   0.861  0.00  0.00    +0.190 C 
ATOM      2  C   LIG    1        2.151   0.695   1.069  0.00  0.00    +0.165 C 
ATOM      3  S   LIG    1        2.604   2.270   0.231  0.00  0.00    -0.127 S 
ATOM      4  C   LIG    1        1.030   2.458  -0.696  0.00  0.00    +0.042 C 
ATOM      5  C   LIG    1        0.368   3.702  -0.146  0.00  0.00    +0.025 C 
ATOM      6  C   LIG    1        0.307   1.190  -0.340  0.00  0.00    +0.201 C 
ATOM      7  C   LIG    1        1.277   2.586  -2.178  0.00  0.00    +0.025 C 
ATOM      8  N   LIG    1        1.240   0.192   0.045  0.00  0.00    -0.271 N 
ATOM      9  C   LIG    1        1.950  -1.033   0.133  0.00  0.00    +0.240 C 
ATOM     10  O   LIG    1        1.778  -2.245  -0.230  0.00  0.00    -0.273 OA
ENDROOT
BRANCH   1  13
ATOM     11  C   LIG    1        5.552  -0.642   0.327  0.00  0.00    +0.235 C 
ATOM     12  O   LIG    1        5.751  -1.320   1.359  0.00  0.00    -0.274 OA
ATOM     13  N   LIG    1        4.261  -0.180   0.036  0.00  0.00    -0.300 N 
ATOM     14  H   LIG    1        4.104   0.384  -0.825  0.00  0.00    +0.150 HD
BRANCH  11  15
ATOM     15  C   LIG    1        6.677  -0.338  -0.570  0.00  0.00    +0.168 C 
BRANCH  15  17
ATOM     16  C   LIG    1        8.161  -1.367  -2.244  0.00  0.00    +0.005 A 
ATOM     17  C   LIG    1        7.254  -1.558  -1.212  0.00  0.00    -0.022 A 
ATOM     18  C   LIG    1        6.959  -2.839  -0.871  0.00  0.00    +0.005 A 
ATOM     19  C   LIG    1        7.533  -3.920  -1.518  0.00  0.00    +0.000 A 
ATOM     20  C   LIG    1        8.430  -3.696  -2.538  0.00  0.00    +0.000 A 
ATOM     21  C   LIG    1        8.748  -2.416  -2.906  0.00  0.00    +0.000 A 
ENDBRANCH  15  17
BRANCH  15  22
ATOM     22  N   LIG    1        6.272   0.561  -1.653  0.00  0.00    -0.316 NA
ATOM     23  H   LIG    1        5.808   1.403  -1.298  0.00  0.00    +0.119 HD
ATOM     24  H   LIG    1        5.641   0.016  -2.279  0.00  0.00    +0.119 HD
ENDBRANCH  15  22
ENDBRANCH  11  15
ENDBRANCH   1  13
BRANCH   6  25
ATOM     25  C   LIG    1       -0.706   1.374   0.709  0.00  0.00    +0.332 C 
ATOM     26  O   LIG    1       -0.722   0.758   1.802  0.00  0.00    -0.249 OA
BRANCH  25  27
ATOM     27  O   LIG    1       -1.720   2.292   0.486  0.00  0.00    -0.426 OA
BRANCH  27  28
ATOM     28  C   LIG    1       -2.761   2.591   1.373  0.00  0.00    +0.472 C 
BRANCH  28  29
ATOM     29  O   LIG    1       -3.558   1.446   1.677  0.00  0.00    -0.426 OA
BRANCH  29  30
ATOM     30  C   LIG    1       -4.234   0.747   0.690  0.00  0.00    +0.333 C 
ATOM     31  O   LIG    1       -4.121   1.154  -0.491  0.00  0.00    -0.249 OA
BRANCH  30  32
ATOM     32  C   LIG    1       -5.073  -0.461   1.022  0.00  0.00    +0.213 C 
ATOM     33  C   LIG    1       -6.109  -0.092   2.010  0.00  0.00    +0.113 C 
ATOM     34  C   LIG    1       -5.707  -0.312   3.435  0.00  0.00    +0.038 C 
ATOM     35  C   LIG    1       -6.638   1.312   1.768  0.00  0.00    +0.038 C 
ATOM     36  S   LIG    1       -7.424  -1.248   1.566  0.00  0.00    -0.004 S 
ATOM     37  O   LIG    1       -7.136  -2.616   2.057  0.00  0.00    -0.172 OA
ATOM     38  O   LIG    1       -8.757  -0.731   1.947  0.00  0.00    -0.172 OA
ATOM     39  C   LIG    1       -7.083  -1.093  -0.173  0.00  0.00    +0.229 C 
ATOM     40  C   LIG    1       -6.821  -2.346  -0.934  0.00  0.00    +0.142 C 
ATOM     41  C   LIG    1       -5.701  -1.488  -1.464  0.00  0.00    +0.221 C 
ATOM     42  O   LIG    1       -5.151  -1.347  -2.573  0.00  0.00    -0.275 OA
ATOM     43  N   LIG    1       -5.606  -0.969  -0.167  0.00  0.00    -0.263 N 
ENDBRANCH  30  32
ENDBRANCH  29  30
ENDBRANCH  28  29
ENDBRANCH  27  28
ENDBRANCH  25  27
ENDBRANCH   6  25
TORSDOF 10
