REMARK  Name = molecules/OQLKNTOKMBVBKV-UHFFFAOYSA-N.pdb
REMARK                            x       y       z     vdW  Elec       q    Type
REMARK                         _______ _______ _______ _____ _____    ______ ____
ROOT
ATOM      1  C   LIG    1        0.768   0.011   1.476  0.00  0.00    +0.003 C 
ENDROOT
BRANCH   1   2
ATOM      2  C   LIG    1        1.742   0.687   2.432  0.00  0.00    +0.041 C 
BRANCH   2   3
ATOM      3  C   LIG    1        2.203   1.976   1.814  0.00  0.00    +0.229 C 
BRANCH   3   4
ATOM      4  O   LIG    1        2.819   1.829   0.612  0.00  0.00    -0.492 OA
BRANCH   4   5
ATOM      5  C   LIG    1        3.990   1.206   0.282  0.00  0.00    +0.121 A 
ATOM      6  C   LIG    1        4.839   0.595   1.175  0.00  0.00    +0.046 A 
ATOM      7  C   LIG    1        6.013  -0.029   0.802  0.00  0.00    +0.019 A 
ATOM      8  C   LIG    1        6.394  -0.066  -0.513  0.00  0.00    +0.065 A 
ATOM      9  C   LIG    1        5.559   0.541  -1.424  0.00  0.00    +0.019 A 
ATOM     10  C   LIG    1        4.397   1.159  -1.056  0.00  0.00    +0.046 A 
BRANCH   8  11
ATOM     11  C   LIG    1        7.615  -0.702  -0.989  0.00  0.00    +0.306 C 
ATOM     12  N   LIG    1        7.920  -0.683  -2.389  0.00  0.00    -0.286 N 
ATOM     13  H   LIG    1        8.273  -1.542  -2.864  0.00  0.00    +0.301 HD
ATOM     14  H   LIG    1        7.797   0.180  -2.953  0.00  0.00    +0.301 HD
BRANCH  11  15
ATOM     15  N   LIG    1        8.450  -1.292  -0.205  0.00  0.00    -0.069 NA
ATOM     16  H   LIG    1        8.343  -1.373   0.817  0.00  0.00    +0.348 HD
ENDBRANCH  11  15
ENDBRANCH   8  11
ENDBRANCH   4   5
ENDBRANCH   3   4
ENDBRANCH   2   3
ENDBRANCH   1   2
BRANCH   1  17
ATOM     17  C   LIG    1       -0.402   0.892   1.240  0.00  0.00    +0.003 C 
BRANCH  17  18
ATOM     18  C   LIG    1       -1.375   0.216   0.280  0.00  0.00    +0.041 C 
BRANCH  18  19
ATOM     19  C   LIG    1       -1.862  -1.061   0.852  0.00  0.00    +0.229 C 
BRANCH  19  20
ATOM     20  O   LIG    1       -2.778  -1.696   0.046  0.00  0.00    -0.492 OA
BRANCH  20  21
ATOM     21  C   LIG    1       -4.021  -1.320  -0.320  0.00  0.00    +0.121 A 
ATOM     22  C   LIG    1       -4.602  -0.162   0.144  0.00  0.00    +0.046 A 
ATOM     23  C   LIG    1       -5.881   0.138  -0.284  0.00  0.00    +0.019 A 
ATOM     24  C   LIG    1       -6.628  -0.639  -1.148  0.00  0.00    +0.065 A 
ATOM     25  C   LIG    1       -6.014  -1.792  -1.592  0.00  0.00    +0.019 A 
ATOM     26  C   LIG    1       -4.746  -2.148  -1.205  0.00  0.00    +0.046 A 
BRANCH  24  27
ATOM     27  C   LIG    1       -7.971  -0.252  -1.553  0.00  0.00    +0.306 C 
ATOM     28  N   LIG    1       -8.521   0.948  -1.047  0.00  0.00    -0.286 N 
ATOM     29  H   LIG    1       -8.458   1.136  -0.030  0.00  0.00    +0.301 HD
ATOM     30  H   LIG    1       -8.985   1.648  -1.652  0.00  0.00    +0.301 HD
BRANCH  27  31
ATOM     31  N   LIG    1       -8.664  -0.963  -2.347  0.00  0.00    -0.069 NA
ATOM     32  H   LIG    1       -8.419  -1.856  -2.804  0.00  0.00    +0.348 HD
ENDBRANCH  27  31
ENDBRANCH  24  27
ENDBRANCH  20  21
ENDBRANCH  19  20
ENDBRANCH  18  19
ENDBRANCH  17  18
ENDBRANCH   1  17
TORSDOF 13
