REMARK  Name = molecules/ORAUEDBBTFLQSK-UHFFFAOYSA-N.pdb
REMARK                            x       y       z     vdW  Elec       q    Type
REMARK                         _______ _______ _______ _____ _____    ______ ____
ROOT
ATOM      1  N   LIG    1       -1.114  -0.003   0.451  0.00  0.00    -0.289 NA
ATOM      2  C   LIG    1       -0.575  -1.039   1.269  0.00  0.00    +0.100 C 
ATOM      3  C   LIG    1        0.424  -1.925   0.596  0.00  0.00    +0.100 C 
ATOM      4  N   LIG    1        1.509  -1.212  -0.013  0.00  0.00    -0.296 NA
ATOM      5  C   LIG    1        1.261   0.209  -0.128  0.00  0.00    +0.100 C 
ATOM      6  C   LIG    1       -0.169   0.367  -0.591  0.00  0.00    +0.100 C 
ENDROOT
BRANCH   1   7
ATOM      7  C   LIG    1       -2.350  -0.367  -0.210  0.00  0.00    +0.117 C 
BRANCH   7   8
ATOM      8  C   LIG    1       -3.360  -0.930   0.689  0.00  0.00    -0.026 A 
ATOM      9  C   LIG    1       -3.598  -0.331   1.900  0.00  0.00    +0.005 A 
ATOM     10  C   LIG    1       -4.542  -0.815   2.796  0.00  0.00    +0.000 A 
ATOM     11  C   LIG    1       -5.279  -1.933   2.487  0.00  0.00    +0.000 A 
ATOM     12  C   LIG    1       -5.053  -2.548   1.273  0.00  0.00    +0.000 A 
ATOM     13  C   LIG    1       -4.103  -2.053   0.382  0.00  0.00    +0.005 A 
ENDBRANCH   7   8
BRANCH   7  14
ATOM     14  C   LIG    1       -2.828   0.764  -1.029  0.00  0.00    -0.026 A 
ATOM     15  C   LIG    1       -2.801   2.028  -0.476  0.00  0.00    +0.005 A 
ATOM     16  C   LIG    1       -3.239   3.122  -1.205  0.00  0.00    +0.000 A 
ATOM     17  C   LIG    1       -3.704   2.932  -2.490  0.00  0.00    +0.000 A 
ATOM     18  C   LIG    1       -3.737   1.663  -3.062  0.00  0.00    +0.000 A 
ATOM     19  C   LIG    1       -3.300   0.581  -2.334  0.00  0.00    +0.005 A 
ENDBRANCH   7  14
ENDBRANCH   1   7
BRANCH   4  20
ATOM     20  C   LIG    1        2.757  -1.478   0.628  0.00  0.00    +0.119 C 
BRANCH  20  21
ATOM     21  C   LIG    1        3.858  -0.725  -0.031  0.00  0.00    -0.030 A 
ATOM     22  C   LIG    1        4.256   0.530   0.377  0.00  0.00    +0.054 A 
ATOM     23  C   LIG    1        5.277   1.237  -0.229  0.00  0.00    +0.167 A 
ATOM     24  O   LIG    1        5.863   2.483  -0.023  0.00  0.00    -0.453 OA
ATOM     25  C   LIG    1        7.141   2.535  -0.648  0.00  0.00    +0.466 C 
ATOM     26  O   LIG    1        6.928   1.604  -1.721  0.00  0.00    -0.453 OA
ATOM     27  C   LIG    1        5.950   0.686  -1.299  0.00  0.00    +0.166 A 
ATOM     28  C   LIG    1        5.571  -0.568  -1.726  0.00  0.00    +0.050 A 
ATOM     29  C   LIG    1        4.551  -1.269  -1.117  0.00  0.00    +0.009 A 
ENDBRANCH  20  21
ENDBRANCH   4  20
TORSDOF 5
