REMARK  Name = molecules/OROAFUQRIXKEMV-LDADJPATSA-N.pdb
REMARK                            x       y       z     vdW  Elec       q    Type
REMARK                         _______ _______ _______ _____ _____    ______ ____
ROOT
ATOM      1  N   LIG    1       -0.065   0.321  -0.385  0.00  0.00    -0.324 N 
ATOM      2  C   LIG    1       -0.394   1.622  -0.524  0.00  0.00    +0.110 A 
ATOM      3  N   LIG    1        0.282   2.065  -1.600  0.00  0.00    -0.240 NA
ATOM      4  C   LIG    1        1.014   1.112  -2.135  0.00  0.00    +0.138 A 
ATOM      5  C   LIG    1        0.803  -0.017  -1.362  0.00  0.00    +0.062 A 
ENDROOT
BRANCH   5   6
ATOM      6  C   LIG    1        1.518  -1.252  -1.644  0.00  0.00    +0.038 C 
ATOM      7  C   LIG    1        2.447  -1.808  -0.893  0.00  0.00    +0.043 C 
BRANCH   7   8
ATOM      8  C   LIG    1        3.024  -3.059  -1.381  0.00  0.00    +0.333 C 
ATOM      9  O   LIG    1        3.903  -3.592  -0.677  0.00  0.00    -0.245 OA
BRANCH   8  10
ATOM     10  O   LIG    1        2.619  -3.636  -2.570  0.00  0.00    -0.477 OA
ATOM     11  H   LIG    1        2.675  -3.208  -3.463  0.00  0.00    +0.295 HD
ENDBRANCH   8  10
ENDBRANCH   7   8
BRANCH   7  12
ATOM     12  C   LIG    1        2.831  -1.153   0.345  0.00  0.00    +0.084 C 
BRANCH  12  13
ATOM     13  C   LIG    1        4.259  -0.806   0.460  0.00  0.00    -0.006 A 
ATOM     14  S   LIG    1        5.443  -1.842   1.119  0.00  0.00    -0.101 S 
ATOM     15  C   LIG    1        6.825  -0.837   0.940  0.00  0.00    +0.045 A 
ATOM     16  C   LIG    1        6.293   0.284   0.362  0.00  0.00    +0.008 A 
ATOM     17  C   LIG    1        4.974   0.288   0.121  0.00  0.00    +0.011 A 
ENDBRANCH  12  13
ENDBRANCH   7  12
ENDBRANCH   5   6
BRANCH   1  18
ATOM     18  C   LIG    1       -0.601  -0.559   0.633  0.00  0.00    +0.158 C 
BRANCH  18  19
ATOM     19  C   LIG    1       -1.863  -1.231   0.231  0.00  0.00    -0.028 A 
ATOM     20  C   LIG    1       -3.094  -0.807   0.668  0.00  0.00    +0.006 A 
ATOM     21  C   LIG    1       -4.276  -1.445   0.269  0.00  0.00    +0.015 A 
ATOM     22  C   LIG    1       -4.235  -2.527  -0.581  0.00  0.00    +0.059 A 
ATOM     23  C   LIG    1       -2.997  -2.947  -1.014  0.00  0.00    +0.015 A 
ATOM     24  C   LIG    1       -1.842  -2.311  -0.615  0.00  0.00    +0.006 A 
BRANCH  22  25
ATOM     25  C   LIG    1       -5.469  -3.208  -1.009  0.00  0.00    +0.337 C 
ATOM     26  O   LIG    1       -5.344  -4.184  -1.783  0.00  0.00    -0.245 OA
BRANCH  25  27
ATOM     27  O   LIG    1       -6.704  -2.799  -0.584  0.00  0.00    -0.477 OA
ATOM     28  H   LIG    1       -7.214  -3.177   0.205  0.00  0.00    +0.295 HD
ENDBRANCH  25  27
ENDBRANCH  22  25
ENDBRANCH  18  19
ENDBRANCH   1  18
BRANCH   2  29
ATOM     29  C   LIG    1       -1.285   2.498   0.269  0.00  0.00    +0.074 C 
BRANCH  29  30
ATOM     30  C   LIG    1       -0.541   3.180   1.401  0.00  0.00    +0.007 C 
BRANCH  30  31
ATOM     31  C   LIG    1       -1.443   4.069   2.209  0.00  0.00    -0.003 C 
ATOM     32  C   LIG    1       -2.069   5.167   1.386  0.00  0.00    +0.004 C 
ENDBRANCH  30  31
ENDBRANCH  29  30
ENDBRANCH   2  29
TORSDOF 12
