REMARK  Name = molecules/ORRZGUBHBVWWOP-UHFFFAOYSA-N.pdb
REMARK                            x       y       z     vdW  Elec       q    Type
REMARK                         _______ _______ _______ _____ _____    ______ ____
ROOT
ATOM      1  C   LIG    1       -0.082  -0.526   0.200  0.00  0.00    -0.016 C 
ATOM      2  C   LIG    1        0.307   0.568   1.175  0.00  0.00    +0.103 C 
ATOM      3  C   LIG    1        1.142   1.601   0.541  0.00  0.00    +0.220 C 
ATOM      4  O   LIG    1        1.118   2.769   1.006  0.00  0.00    -0.275 OA
ATOM      5  N   LIG    1        1.951   1.226  -0.588  0.00  0.00    -0.256 N 
ATOM      6  H   LIG    1        2.557   1.956  -1.034  0.00  0.00    +0.157 HD
ATOM      7  C   LIG    1        1.962  -0.077  -1.115  0.00  0.00    +0.220 C 
ATOM      8  O   LIG    1        2.668  -0.362  -2.100  0.00  0.00    -0.275 OA
ATOM      9  C   LIG    1       -0.756  -1.605   0.966  0.00  0.00    +0.012 C 
ATOM     10  C   LIG    1        1.129  -1.124  -0.498  0.00  0.00    +0.103 C 
ENDROOT
BRANCH   1  12
ATOM     11  C   LIG    1       -2.179   0.740  -0.360  0.00  0.00    +0.004 C 
ATOM     12  C   LIG    1       -0.938   0.105  -0.867  0.00  0.00    +0.004 C 
ENDBRANCH   1  12
TORSDOF 1
