REMARK  Name = molecules/ORUJFMPWKPVXLZ-UHFFFAOYSA-N.pdb
REMARK                            x       y       z     vdW  Elec       q    Type
REMARK                         _______ _______ _______ _____ _____    ______ ____
ROOT
ATOM      1  C   LIG    1       -0.015   0.614  -0.225  0.00  0.00    +0.521 C 
ATOM      2  O   LIG    1        0.007  -0.570   0.188  0.00  0.00    -0.202 OA
ENDROOT
BRANCH   1   3
ATOM      3  O   LIG    1       -1.161   1.050  -0.877  0.00  0.00    -0.391 OA
BRANCH   3   4
ATOM      4  C   LIG    1       -2.255   0.211  -1.073  0.00  0.00    +0.176 A 
ATOM      5  C   LIG    1       -3.287   0.106  -0.164  0.00  0.00    +0.162 A 
ATOM      6  C   LIG    1       -4.372  -0.732  -0.368  0.00  0.00    +0.049 A 
ATOM      7  C   LIG    1       -4.402  -1.483  -1.533  0.00  0.00    +0.004 A 
ATOM      8  C   LIG    1       -3.394  -1.415  -2.472  0.00  0.00    +0.004 A 
ATOM      9  C   LIG    1       -2.342  -0.562  -2.212  0.00  0.00    +0.050 A 
BRANCH   5  10
ATOM     10  O   LIG    1       -3.211   0.873   0.977  0.00  0.00    -0.491 OA
ATOM     11  C   LIG    1       -4.168   0.892   2.004  0.00  0.00    +0.277 C 
ENDBRANCH   5  10
ENDBRANCH   3   4
ENDBRANCH   1   3
BRANCH   1  12
ATOM     12  O   LIG    1        1.094   1.416  -0.011  0.00  0.00    -0.391 OA
BRANCH  12  13
ATOM     13  C   LIG    1        2.230   0.934   0.653  0.00  0.00    +0.176 A 
ATOM     14  C   LIG    1        2.337   1.050   2.032  0.00  0.00    +0.050 A 
ATOM     15  C   LIG    1        3.416   0.600   2.734  0.00  0.00    +0.004 A 
ATOM     16  C   LIG    1        4.453   0.003   2.052  0.00  0.00    +0.004 A 
ATOM     17  C   LIG    1        4.368  -0.122   0.692  0.00  0.00    +0.049 A 
ATOM     18  C   LIG    1        3.270   0.336  -0.022  0.00  0.00    +0.162 A 
BRANCH  18  19
ATOM     19  O   LIG    1        3.164   0.220  -1.397  0.00  0.00    -0.491 OA
ATOM     20  C   LIG    1        4.181  -0.376  -2.146  0.00  0.00    +0.277 C 
ENDBRANCH  18  19
ENDBRANCH  12  13
ENDBRANCH   1  12
TORSDOF 6
