REMARK  Name = molecules/OSASVXMJTNOKOY-UHFFFAOYSA-N.pdb
REMARK                            x       y       z     vdW  Elec       q    Type
REMARK                         _______ _______ _______ _____ _____    ______ ____
ROOT
ATOM      1  C   LIG    1        1.201   0.373   0.558  0.00  0.00    +0.045 C 
ATOM      2  C   LIG    1       -0.204  -0.054   0.182  0.00  0.00    +0.107 C 
ATOM      3  C   LIG    1       -0.914   1.077  -0.505  0.00  0.00    +0.045 C 
ENDROOT
BRANCH   2   4
ATOM      4  C   LIG    1       -0.077  -1.282  -0.686  0.00  0.00    +0.218 C 
ATOM      5 CL   LIG    1        0.780  -2.527   0.273  0.00  0.00    -0.080 Cl
ATOM      6 CL   LIG    1       -1.642  -1.912  -1.215  0.00  0.00    -0.080 Cl
ATOM      7 CL   LIG    1        0.883  -0.951  -2.145  0.00  0.00    -0.080 Cl
ENDBRANCH   2   4
BRANCH   2   8
ATOM      8  O   LIG    1       -0.854  -0.379   1.372  0.00  0.00    -0.385 OA
ATOM      9  H   LIG    1       -0.502   0.122   2.138  0.00  0.00    +0.210 HD
ENDBRANCH   2   8
TORSDOF 2
