REMARK  Name = molecules/OSDLLIBGSJNGJE-UHFFFAOYSA-N.pdb
REMARK                            x       y       z     vdW  Elec       q    Type
REMARK                         _______ _______ _______ _____ _____    ______ ____
ROOT
ATOM      1  C   LIG    1        2.639   0.592   0.215  0.00  0.00    +0.045 C 
ATOM      2  C   LIG    1        1.161   0.431   0.063  0.00  0.00    -0.028 A 
ATOM      3  C   LIG    1        0.537  -0.795   0.074  0.00  0.00    +0.047 A 
ATOM      4 CL   LIG    1        1.582  -2.206   0.280  0.00  0.00    -0.083 Cl
ATOM      5  C   LIG    1       -0.827  -0.949  -0.065  0.00  0.00    -0.028 A 
ATOM      6  C   LIG    1       -1.419  -2.315  -0.042  0.00  0.00    +0.045 C 
ATOM      7  C   LIG    1       -1.596   0.186  -0.223  0.00  0.00    +0.050 A 
ATOM      8  C   LIG    1       -1.014   1.436  -0.240  0.00  0.00    +0.117 A 
ATOM      9  C   LIG    1        0.354   1.546  -0.097  0.00  0.00    +0.050 A 
ENDROOT
BRANCH   8  10
ATOM     10  O   LIG    1       -1.795   2.568  -0.399  0.00  0.00    -0.507 OA
ATOM     11  H   LIG    1       -2.162   3.014   0.455  0.00  0.00    +0.292 HD
ENDBRANCH   8  10
TORSDOF 1
