REMARK  Name = molecules/OSJJYEUEJRVVOD-UHFFFAOYSA-N.pdb
REMARK                            x       y       z     vdW  Elec       q    Type
REMARK                         _______ _______ _______ _____ _____    ______ ____
ROOT
ATOM      1  N   LIG    1       -2.106   0.441   0.676  0.00  0.00    -0.298 N 
ATOM      2  C   LIG    1       -3.038  -0.123   1.620  0.00  0.00    +0.044 C 
ATOM      3  C   LIG    1       -2.873   0.103   2.984  0.00  0.00    +0.006 C 
ATOM      4  C   LIG    1       -3.778  -0.382   3.928  0.00  0.00    +0.047 C 
ATOM      5  C   LIG    1       -4.880  -1.107   3.554  0.00  0.00    -0.017 C 
ATOM      6  C   LIG    1       -5.030  -1.322   2.198  0.00  0.00    +0.013 C 
ATOM      7  C   LIG    1       -4.144  -0.849   1.272  0.00  0.00    +0.034 C 
ATOM      8  S   LIG    1       -4.478  -1.210  -0.422  0.00  0.00    -0.086 S 
ATOM      9  C   LIG    1       -3.243  -0.352  -1.386  0.00  0.00    +0.034 A 
ATOM     10  C   LIG    1       -3.346  -0.408  -2.757  0.00  0.00    +0.018 A 
ATOM     11  C   LIG    1       -2.441   0.204  -3.586  0.00  0.00    +0.021 A 
ATOM     12  C   LIG    1       -1.423   0.879  -2.962  0.00  0.00    +0.043 A 
ATOM     13  C   LIG    1       -1.316   0.938  -1.591  0.00  0.00    +0.044 A 
ATOM     14 CL   LIG    1       -0.231   1.683  -3.958  0.00  0.00    -0.083 Cl
ATOM     15  C   LIG    1       -2.235   0.317  -0.734  0.00  0.00    +0.049 A 
ENDROOT
BRANCH   1  16
ATOM     16  C   LIG    1       -0.948   1.094   1.265  0.00  0.00    +0.112 C 
BRANCH  16  17
ATOM     17  C   LIG    1        0.038   0.116   1.876  0.00  0.00    +0.035 C 
BRANCH  17  18
ATOM     18  C   LIG    1        0.628  -0.841   0.870  0.00  0.00    +0.086 C 
BRANCH  18  22
ATOM     19  C   LIG    1        3.529   0.457  -1.774  0.00  0.00    +0.077 C 
ATOM     20  C   LIG    1        3.782   0.420  -0.283  0.00  0.00    +0.028 C 
ATOM     21  C   LIG    1        2.464   0.530   0.431  0.00  0.00    +0.085 C 
ATOM     22  N   LIG    1        1.399  -0.207  -0.177  0.00  0.00    -0.302 NA
ATOM     23  C   LIG    1        1.832  -1.250  -1.067  0.00  0.00    +0.085 C 
ATOM     24  C   LIG    1        2.799  -0.814  -2.113  0.00  0.00    +0.028 C 
BRANCH  19  27
ATOM     25  N   LIG    1        5.796   1.493  -2.317  0.00  0.00    -0.329 N 
ATOM     26  H   LIG    1        6.470   1.537  -1.519  0.00  0.00    +0.145 HD
ATOM     27  C   LIG    1        4.855   0.418  -2.449  0.00  0.00    +0.214 C 
ATOM     28  O   LIG    1        5.201  -0.545  -3.152  0.00  0.00    -0.276 OA
ATOM     29  H   LIG    1        5.821   2.252  -3.019  0.00  0.00    +0.145 HD
ENDBRANCH  19  27
ENDBRANCH  18  22
ENDBRANCH  17  18
ENDBRANCH  16  17
ENDBRANCH   1  16
TORSDOF 5
