REMARK  Name = molecules/OTBXOEAOVRKTNQ-UHFFFAOYSA-N.pdb
REMARK                            x       y       z     vdW  Elec       q    Type
REMARK                         _______ _______ _______ _____ _____    ______ ____
ROOT
ATOM      1 CL   LIG    1       -2.142  -1.932  -2.210  0.00  0.00    -0.082 Cl
ATOM      2  C   LIG    1       -2.200  -0.732  -0.939  0.00  0.00    +0.069 A 
ATOM      3  C   LIG    1       -0.990  -0.292  -0.380  0.00  0.00    +0.046 A 
ATOM      4  C   LIG    1       -1.001   0.647   0.618  0.00  0.00    +0.149 A 
ATOM      5  N   LIG    1        0.216   1.129   1.222  0.00  0.00    -0.076 NA
ATOM      6  C   LIG    1        1.368   0.689   0.842  0.00  0.00    +0.380 C 
ATOM      7  N   LIG    1        2.694   0.982   1.255  0.00  0.00    -0.174 N 
ATOM      8  H   LIG    1        2.997   1.671   2.010  0.00  0.00    +0.254 HD
ATOM      9  C   LIG    1        3.598   0.215   0.508  0.00  0.00    +0.307 C 
ATOM     10  O   LIG    1        4.863   0.237   0.627  0.00  0.00    -0.254 OA
ATOM     11  C   LIG    1        2.844  -0.626  -0.444  0.00  0.00    +0.302 C 
ATOM     12  N   LIG    1        1.433  -0.283  -0.186  0.00  0.00    -0.210 N 
ATOM     13  C   LIG    1       -2.233   1.125   1.032  0.00  0.00    +0.048 A 
ATOM     14  C   LIG    1       -3.432   0.708   0.499  0.00  0.00    +0.025 A 
ATOM     15  C   LIG    1        0.285  -0.838  -0.863  0.00  0.00    +0.229 C 
ATOM     16  C   LIG    1       -3.417  -0.246  -0.515  0.00  0.00    +0.060 A 
ATOM     17 CL   LIG    1       -4.932  -0.791  -1.209  0.00  0.00    -0.082 Cl
ENDROOT
TORSDOF 0
