REMARK  Name = molecules/OTGAHJPFNKQGAE-UHFFFAOYSA-N.pdb
REMARK                            x       y       z     vdW  Elec       q    Type
REMARK                         _______ _______ _______ _____ _____    ______ ____
ROOT
ATOM      1  C   LIG    1        0.311   0.372  -0.473  0.00  0.00    +0.132 A 
ATOM      2  C   LIG    1       -0.608  -0.625  -0.237  0.00  0.00    +0.049 A 
ATOM      3  C   LIG    1       -1.941  -0.346  -0.034  0.00  0.00    -0.047 A 
ATOM      4  C   LIG    1       -2.882  -1.467   0.215  0.00  0.00    +0.044 C 
ATOM      5  C   LIG    1       -2.363   0.969  -0.067  0.00  0.00    +0.003 A 
ATOM      6  C   LIG    1       -1.459   1.982  -0.301  0.00  0.00    +0.004 A 
ATOM      7  C   LIG    1       -0.112   1.666  -0.504  0.00  0.00    +0.046 A 
ENDROOT
BRANCH   1   8
ATOM      8  O   LIG    1        1.637   0.013  -0.669  0.00  0.00    -0.426 OA
BRANCH   8  10
ATOM      9  C   LIG    1        3.975  -0.478   0.143  0.00  0.00    +0.136 C 
ATOM     10  C   LIG    1        2.561  -0.094   0.363  0.00  0.00    +0.309 C 
ATOM     11  O   LIG    1        2.100   0.165   1.526  0.00  0.00    -0.251 OA
ENDBRANCH   8  10
ENDBRANCH   1   8
TORSDOF 2
