REMARK  Name = molecules/OUYCCCASQSFEME-QMMMGPOBSA-N.pdb
REMARK                            x       y       z     vdW  Elec       q    Type
REMARK                         _______ _______ _______ _____ _____    ______ ____
ROOT
ATOM      1  CB  TYR A  1       -0.959   0.519  -0.833  0.00  0.00    +0.065 C 
ENDROOT
BRANCH   1   2
ATOM      2  CG  TYR A  1        0.458   0.303  -0.450  0.00  0.00    -0.045 A 
ATOM      3  CD2 TYR A  1        1.176   1.247   0.251  0.00  0.00    +0.007 A 
ATOM      4  CE2 TYR A  1        2.494   1.064   0.616  0.00  0.00    +0.045 A 
ATOM      5  CZ  TYR A  1        3.152  -0.098   0.283  0.00  0.00    +0.117 A 
ATOM      6  CE1 TYR A  1        2.426  -1.052  -0.426  0.00  0.00    +0.045 A 
ATOM      7  CD1 TYR A  1        1.101  -0.865  -0.791  0.00  0.00    +0.007 A 
BRANCH   5   8
ATOM      8  OH  TYR A  1        4.480  -0.313   0.636  0.00  0.00    -0.507 OA
ATOM      9  HH  TYR A  1        4.904  -1.179   0.365  0.00  0.00    +0.292 HD
ENDBRANCH   5   8
ENDBRANCH   1   2
BRANCH   1  10
ATOM     10  CA  TYR A  1       -1.857  -0.011   0.291  0.00  0.00    +0.165 C 
BRANCH  10  11
ATOM     11  N   TYR A  1       -1.563  -1.373   0.606  0.00  0.00    -0.318 NA
ATOM     12  H1  TYR A  1       -2.030  -1.600   1.512  0.00  0.00    +0.119 HD
ATOM     13  H2  TYR A  1       -1.755  -2.053  -0.138  0.00  0.00    +0.119 HD
ENDBRANCH  10  11
BRANCH  10  14
ATOM     14  C   TYR A  1       -3.278   0.174  -0.028  0.00  0.00    +0.322 C 
ATOM     15  OXT TYR A  1       -4.049  -0.802   0.001  0.00  0.00    -0.249 OA
BRANCH  14  16
ATOM     16  O   TYR A  1       -3.804   1.414  -0.366  0.00  0.00    -0.480 OA
ATOM     17  H   TYR A  1       -4.189   2.016   0.354  0.00  0.00    +0.295 HD
ENDBRANCH  14  16
ENDBRANCH  10  14
ENDBRANCH   1  10
TORSDOF 6
