REMARK  Name = molecules/OUZWUKMCLIBBOG-UHFFFAOYSA-N.pdb
REMARK                            x       y       z     vdW  Elec       q    Type
REMARK                         _______ _______ _______ _____ _____    ______ ____
ROOT
ATOM      1  C   LIG    1        3.161  -0.181  -0.421  0.00  0.00    +0.233 A 
ATOM      2  N   LIG    1        2.536  -0.301   0.713  0.00  0.00    -0.221 NA
ATOM      3  C   LIG    1        1.224  -0.279   0.749  0.00  0.00    +0.081 A 
ATOM      4  C   LIG    1        0.428  -0.398   1.902  0.00  0.00    +0.032 A 
ATOM      5  C   LIG    1       -0.947  -0.359   1.810  0.00  0.00    +0.048 A 
ATOM      6  C   LIG    1       -1.607  -0.207   0.623  0.00  0.00    +0.122 A 
ATOM      7  C   LIG    1       -0.834  -0.091  -0.508  0.00  0.00    +0.063 A 
ATOM      8  C   LIG    1        0.565  -0.129  -0.423  0.00  0.00    +0.044 A 
ATOM      9  S   LIG    1        1.881  -0.025  -1.540  0.00  0.00    -0.047 S 
ENDROOT
BRANCH   1  10
ATOM     10  S   LIG    1        4.897  -0.191  -0.642  0.00  0.00    +0.080 S 
ATOM     11  O   LIG    1        5.550  -1.048   0.423  0.00  0.00    -0.151 OA
ATOM     12  O   LIG    1        5.165  -0.748  -2.010  0.00  0.00    -0.151 OA
BRANCH  10  13
ATOM     13  N   LIG    1        5.446   1.443  -0.516  0.00  0.00    -0.202 NA
ATOM     14  H   LIG    1        5.438   1.683   0.504  0.00  0.00    +0.144 HD
ATOM     15  H   LIG    1        4.758   2.041  -0.995  0.00  0.00    +0.144 HD
ENDBRANCH  10  13
ENDBRANCH   1  10
BRANCH   6  16
ATOM     16  O   LIG    1       -2.981  -0.175   0.584  0.00  0.00    -0.492 OA
BRANCH  16  17
ATOM     17  C   LIG    1       -3.753  -0.025  -0.566  0.00  0.00    +0.225 C 
ATOM     18  C   LIG    1       -5.220  -0.042  -0.170  0.00  0.00    +0.048 C 
ENDBRANCH  16  17
ENDBRANCH   6  16
TORSDOF 4
