REMARK  Name = molecules/OVBPIULPVIDEAO-LBPRGKRZSA-N.pdb
REMARK                            x       y       z     vdW  Elec       q    Type
REMARK                         _______ _______ _______ _____ _____    ______ ____
ROOT
ATOM      1  C   UNK A  0        0.811  -0.129   0.095  0.00  0.00    +0.027 A 
ATOM      2  C   UNK A  0        0.061   0.861   0.693  0.00  0.00    +0.023 A 
ATOM      3  C   UNK A  0       -1.337   0.804   0.678  0.00  0.00    +0.015 A 
ATOM      4  C   UNK A  0       -2.014  -0.222   0.077  0.00  0.00    +0.037 A 
ATOM      5  C   UNK A  0       -1.253  -1.223  -0.528  0.00  0.00    +0.015 A 
ATOM      6  C   UNK A  0        0.128  -1.161  -0.510  0.00  0.00    +0.023 A 
ENDROOT
BRANCH   4   7
ATOM      7  C   UNK A  0       -3.489  -0.310   0.038  0.00  0.00    +0.245 C 
ATOM      8  N   GLU A  1       -4.259   0.518   0.873  0.00  0.00    -0.298 N 
ATOM      9  H   GLU A  1       -3.827   1.192   1.519  0.00  0.00    +0.150 HD
ATOM     10  O   UNK A  0       -4.052  -1.118  -0.736  0.00  0.00    -0.270 OA
BRANCH   8  11
ATOM     11  CA  GLU A  1       -5.740   0.396   0.804  0.00  0.00    +0.182 C 
BRANCH  11  12
ATOM     12  C   GLU A  1       -6.083  -0.939   1.205  0.00  0.00    +0.325 C 
ATOM     13  OXT GLU A  1       -5.178  -1.800   1.457  0.00  0.00    -0.249 OA
BRANCH  12  14
ATOM     14  O   GLU A  1       -7.375  -1.420   1.363  0.00  0.00    -0.479 OA
ATOM     15  H   GLU A  1       -7.641  -2.332   0.999  0.00  0.00    +0.295 HD
ENDBRANCH  12  14
ENDBRANCH  11  12
BRANCH  11  16
ATOM     16  CB  GLU A  1       -6.147   0.937  -0.500  0.00  0.00    +0.045 C 
BRANCH  16  17
ATOM     17  CG  GLU A  1       -7.574   0.945  -0.863  0.00  0.00    +0.123 C 
BRANCH  17  18
ATOM     18  CD  GLU A  1       -8.252  -0.343  -1.018  0.00  0.00    +0.305 C 
ATOM     19  OE2 GLU A  1       -9.451  -0.522  -0.614  0.00  0.00    -0.251 OA
BRANCH  18  20
ATOM     20  OE1 GLU A  1       -7.569  -1.401  -1.627  0.00  0.00    -0.481 OA
ATOM     21  HE1 GLU A  1       -7.114  -1.291  -2.541  0.00  0.00    +0.295 HD
ENDBRANCH  18  20
ENDBRANCH  17  18
ENDBRANCH  16  17
ENDBRANCH  11  16
ENDBRANCH   8  11
ENDBRANCH   4   7
BRANCH   1  22
ATOM     22  N   UNK A  0        2.230  -0.119   0.089  0.00  0.00    -0.338 N 
ATOM     23  H   UNK A  0        2.742  -0.916  -0.341  0.00  0.00    +0.146 HD
BRANCH  22  24
ATOM     24  C   UNK A  0        3.009   0.956   0.657  0.00  0.00    +0.158 C 
BRANCH  24  31
ATOM     25  C   UNK A  0        9.230   0.107  -0.727  0.00  0.00    +0.218 A 
ATOM     26  N   UNK A  0        8.521  -0.067   0.424  0.00  0.00    -0.195 NA
ATOM     27  C   UNK A  0        7.204   0.164   0.516  0.00  0.00    +0.166 A 
ATOM     28  N   UNK A  0        6.486   0.001   1.639  0.00  0.00    -0.343 N 
ATOM     29  H   UNK A  0        7.000  -0.333   2.504  0.00  0.00    +0.167 HD
ATOM     30  C   UNK A  0        5.151   0.255   1.665  0.00  0.00    +0.109 A 
ATOM     31  C   UNK A  0        4.463   0.693   0.542  0.00  0.00    +0.075 A 
ATOM     32  N   UNK A  0        5.151   0.874  -0.622  0.00  0.00    -0.240 NA
ATOM     33  C   UNK A  0        6.472   0.629  -0.675  0.00  0.00    +0.173 A 
ATOM     34  C   UNK A  0        7.234   0.789  -1.813  0.00  0.00    +0.302 A 
ATOM     35  O   UNK A  0        6.680   1.183  -2.870  0.00  0.00    -0.263 OA
ATOM     36  N   UNK A  0        8.559   0.531  -1.813  0.00  0.00    -0.174 NA
BRANCH  25  37
ATOM     37  N   UNK A  0       10.622  -0.147  -0.784  0.00  0.00    -0.327 N 
ATOM     38  H   UNK A  0       11.240   0.236  -0.045  0.00  0.00    +0.145 HD
ATOM     39  H   UNK A  0       11.033  -0.706  -1.548  0.00  0.00    +0.145 HD
ENDBRANCH  25  37
ENDBRANCH  24  31
ENDBRANCH  22  24
ENDBRANCH   1  22
TORSDOF 12
