REMARK  Name = molecules/OVCDSSHSILBFBN-UHFFFAOYSA-N.pdb
REMARK                            x       y       z     vdW  Elec       q    Type
REMARK                         _______ _______ _______ _____ _____    ______ ____
ROOT
ATOM      1  C   LIG    1        0.835   0.230  -0.296  0.00  0.00    +0.032 A 
ATOM      2  C   LIG    1       -0.317  -0.262   0.345  0.00  0.00    +0.031 A 
ATOM      3  C   LIG    1       -1.503  -0.486  -0.317  0.00  0.00    +0.010 A 
ATOM      4  C   LIG    1       -1.545  -0.185  -1.694  0.00  0.00    +0.121 A 
ATOM      5  C   LIG    1       -0.470   0.294  -2.348  0.00  0.00    +0.047 A 
ATOM      6  C   LIG    1        0.698   0.494  -1.644  0.00  0.00    +0.027 A 
ENDROOT
BRANCH   1   7
ATOM      7  N   LIG    1        2.114   0.261   0.355  0.00  0.00    -0.314 N 
ATOM      8  H   LIG    1        2.164  -0.041   1.316  0.00  0.00    +0.152 HD
BRANCH   7   9
ATOM      9  C   LIG    1        3.280   0.706  -0.302  0.00  0.00    +0.042 A 
ATOM     10  C   LIG    1        4.482  -0.002  -0.024  0.00  0.00    +0.022 A 
ATOM     11  C   LIG    1        4.524  -1.028   0.891  0.00  0.00    +0.013 A 
ATOM     12  C   LIG    1        5.723  -1.722   1.180  0.00  0.00    +0.021 A 
ATOM     13  C   LIG    1        6.871  -1.348   0.519  0.00  0.00    +0.043 A 
ATOM     14 CL   LIG    1        8.418  -2.182   0.885  0.00  0.00    -0.083 Cl
ATOM     15  C   LIG    1        6.808  -0.330  -0.388  0.00  0.00    +0.048 A 
ATOM     16  C   LIG    1        5.641   0.343  -0.667  0.00  0.00    +0.074 A 
ATOM     17  N   LIG    1        5.631   1.364  -1.560  0.00  0.00    -0.255 NA
ATOM     18  C   LIG    1        4.530   2.046  -1.828  0.00  0.00    +0.113 A 
ATOM     19  C   LIG    1        3.340   1.731  -1.208  0.00  0.00    +0.043 A 
ENDBRANCH   7   9
ENDBRANCH   1   7
BRANCH   4  20
ATOM     20  O   LIG    1       -2.744  -0.365  -2.383  0.00  0.00    -0.506 OA
ATOM     21  H   LIG    1       -2.790  -0.146  -3.341  0.00  0.00    +0.292 HD
ENDBRANCH   4  20
BRANCH   3  22
ATOM     22  C   LIG    1       -2.673  -1.214   0.174  0.00  0.00    +0.123 C 
BRANCH  22  23
ATOM     23  N   LIG    1       -3.376  -0.460   1.213  0.00  0.00    -0.299 NA
BRANCH  23  24
ATOM     24  C   LIG    1       -4.397  -1.165   1.896  0.00  0.00    +0.081 C 
ATOM     25  C   LIG    1       -5.640  -1.471   1.154  0.00  0.00    +0.020 C 
ENDBRANCH  23  24
BRANCH  23  26
ATOM     26  C   LIG    1       -3.982   0.661   0.410  0.00  0.00    +0.081 C 
ATOM     27  C   LIG    1       -4.886   1.450   1.244  0.00  0.00    +0.020 C 
ENDBRANCH  23  26
ENDBRANCH  22  23
ENDBRANCH   3  22
TORSDOF 7
