REMARK  Name = molecules/OVGORFFCBUIFIA-NSHDSACASA-N.pdb
REMARK                            x       y       z     vdW  Elec       q    Type
REMARK                         _______ _______ _______ _____ _____    ______ ____
ROOT
ATOM      1  C   LIG    1       -0.159   0.563   0.388  0.00  0.00    +0.145 C 
ENDROOT
BRANCH   1   2
ATOM      2  C   LIG    1       -1.451  -0.040  -0.066  0.00  0.00    -0.019 A 
ATOM      3  C   LIG    1       -2.350  -0.416   0.938  0.00  0.00    +0.006 A 
ATOM      4  C   LIG    1       -3.547  -0.972   0.576  0.00  0.00    +0.000 A 
ATOM      5  C   LIG    1       -3.877  -1.164  -0.749  0.00  0.00    +0.000 A 
ATOM      6  C   LIG    1       -3.000  -0.796  -1.724  0.00  0.00    +0.000 A 
ATOM      7  C   LIG    1       -1.776  -0.229  -1.369  0.00  0.00    +0.006 A 
ENDBRANCH   1   2
BRANCH   1   8
ATOM      8  O   LIG    1        0.367  -0.179   1.412  0.00  0.00    -0.387 OA
ATOM      9  H   LIG    1        0.154   0.124   2.309  0.00  0.00    +0.210 HD
ENDBRANCH   1   8
BRANCH   1  10
ATOM     10  C   LIG    1        0.823   0.681  -0.744  0.00  0.00    +0.036 C 
BRANCH  10  11
ATOM     11  C   LIG    1        2.101   1.337  -0.367  0.00  0.00    +0.003 C 
BRANCH  11  13
ATOM     12  C   LIG    1        3.277  -0.751   0.313  0.00  0.00    +0.004 C 
ATOM     13  C   LIG    1        2.895   0.671   0.704  0.00  0.00    -0.003 C 
ENDBRANCH  11  13
ENDBRANCH  10  11
ENDBRANCH   1  10
TORSDOF 5
