REMARK  Name = molecules/OWEGWHBOCFMBLP-AWEZNQCLSA-N.pdb
REMARK                            x       y       z     vdW  Elec       q    Type
REMARK                         _______ _______ _______ _____ _____    ______ ____
ROOT
ATOM      1  C   LIG    1       -0.339   0.935  -0.478  0.00  0.00    +0.345 C 
ENDROOT
BRANCH   1   2
ATOM      2  N   LIG    1       -0.688   2.212   0.168  0.00  0.00    -0.295 N 
ATOM      3  C   LIG    1       -0.760   2.407   1.484  0.00  0.00    +0.110 A 
ATOM      4  C   LIG    1       -1.111   3.714   1.709  0.00  0.00    +0.130 A 
ATOM      5  N   LIG    1       -1.242   4.271   0.500  0.00  0.00    -0.244 NA
ATOM      6  C   LIG    1       -0.987   3.364  -0.444  0.00  0.00    +0.202 A 
ENDBRANCH   1   2
BRANCH   1   7
ATOM      7  C   LIG    1       -1.562   0.191  -0.861  0.00  0.00    +0.200 C 
ATOM      8  O   LIG    1       -2.329   0.759  -1.622  0.00  0.00    -0.291 OA
BRANCH   7   9
ATOM      9  C   LIG    1       -1.865  -1.184  -0.355  0.00  0.00    +0.026 C 
ATOM     10  C   LIG    1       -1.965  -1.198   1.162  0.00  0.00    +0.019 C 
ATOM     11  C   LIG    1       -0.859  -2.195  -0.846  0.00  0.00    +0.019 C 
ATOM     12  C   LIG    1       -3.222  -1.601  -0.882  0.00  0.00    +0.019 C 
ENDBRANCH   7   9
ENDBRANCH   1   7
BRANCH   1  13
ATOM     13  O   LIG    1        0.499   0.257   0.382  0.00  0.00    -0.462 OA
BRANCH  13  20
ATOM     14  C   LIG    1        2.407  -0.771   1.254  0.00  0.00    +0.047 A 
ATOM     15  C   LIG    1        3.723  -1.154   1.163  0.00  0.00    +0.023 A 
ATOM     16  C   LIG    1        4.487  -0.866   0.031  0.00  0.00    +0.041 A 
ATOM     17 CL   LIG    1        6.149  -1.337  -0.110  0.00  0.00    -0.084 Cl
ATOM     18  C   LIG    1        3.884  -0.182  -1.004  0.00  0.00    +0.023 A 
ATOM     19  C   LIG    1        2.563   0.211  -0.932  0.00  0.00    +0.047 A 
ATOM     20  C   LIG    1        1.827  -0.076   0.178  0.00  0.00    +0.124 A 
ENDBRANCH  13  20
ENDBRANCH   1  13
TORSDOF 5
