REMARK  Name = molecules/OWQUZNMMYNAXSL-UHFFFAOYSA-N.pdb
REMARK                            x       y       z     vdW  Elec       q    Type
REMARK                         _______ _______ _______ _____ _____    ______ ____
ROOT
ATOM      1  C   LIG    1       -0.990   0.155   0.321  0.00  0.00    +0.179 C 
ENDROOT
BRANCH   1   2
ATOM      2  C   LIG    1       -1.899  -0.987   0.635  0.00  0.00    -0.014 A 
ATOM      3  C   LIG    1       -2.334  -1.248   1.927  0.00  0.00    +0.006 A 
ATOM      4  C   LIG    1       -3.174  -2.311   2.185  0.00  0.00    +0.000 A 
ATOM      5  C   LIG    1       -3.566  -3.103   1.129  0.00  0.00    +0.000 A 
ATOM      6  C   LIG    1       -3.132  -2.846  -0.174  0.00  0.00    +0.000 A 
ATOM      7  C   LIG    1       -2.290  -1.779  -0.425  0.00  0.00    +0.006 A 
ENDBRANCH   1   2
BRANCH   1   8
ATOM      8  C   LIG    1       -1.755   1.341  -0.147  0.00  0.00    -0.014 A 
ATOM      9  C   LIG    1       -2.100   2.376   0.729  0.00  0.00    +0.006 A 
ATOM     10  C   LIG    1       -2.797   3.478   0.349  0.00  0.00    +0.000 A 
ATOM     11  C   LIG    1       -3.185   3.580  -0.973  0.00  0.00    +0.000 A 
ATOM     12  C   LIG    1       -2.856   2.572  -1.854  0.00  0.00    +0.000 A 
ATOM     13  C   LIG    1       -2.147   1.452  -1.469  0.00  0.00    +0.006 A 
ENDBRANCH   1   8
BRANCH   1  14
ATOM     14  O   LIG    1        0.035  -0.201  -0.525  0.00  0.00    -0.364 OA
BRANCH  14  15
ATOM     15  C   LIG    1        1.298  -0.102   0.057  0.00  0.00    +0.122 C 
ATOM     16  C   LIG    1        1.932  -1.466   0.192  0.00  0.00    +0.047 C 
ATOM     17  C   LIG    1        3.408  -1.254   0.439  0.00  0.00    +0.086 C 
ATOM     18  N   LIG    1        4.073  -0.679  -0.689  0.00  0.00    -0.305 NA
ATOM     19  C   LIG    1        5.359  -0.169  -0.248  0.00  0.00    +0.104 C 
ATOM     20  C   LIG    1        3.299   0.281  -1.412  0.00  0.00    +0.086 C 
ATOM     21  C   LIG    1        2.182   0.894  -0.612  0.00  0.00    +0.047 C 
ENDBRANCH  14  15
ENDBRANCH   1  14
TORSDOF 4
