REMARK  Name = molecules/OWWLUIWOFHMHOQ-XGHATYIMSA-N.pdb
REMARK                            x       y       z     vdW  Elec       q    Type
REMARK                         _______ _______ _______ _____ _____    ______ ____
ROOT
ATOM      1  C   LIG    1        2.580  -0.388  -2.668  0.00  0.00    +0.015 C 
ATOM      2  C   LIG    1        2.425  -0.847  -1.249  0.00  0.00    +0.010 C 
ATOM      3  C   LIG    1        1.941   0.248  -0.320  0.00  0.00    +0.003 C 
ATOM      4  C   LIG    1        3.174   0.967   0.033  0.00  0.00    +0.027 C 
ATOM      5  C   LIG    1        3.963  -0.280   0.503  0.00  0.00    +0.098 C 
ATOM      6  C   LIG    1        0.803   0.945  -0.931  0.00  0.00    -0.004 C 
ATOM      7  C   LIG    1        0.494   2.300  -0.397  0.00  0.00    +0.004 C 
ATOM      8  C   LIG    1       -0.668   2.823  -1.256  0.00  0.00    +0.004 C 
ATOM      9  C   LIG    1       -1.858   1.951  -0.826  0.00  0.00    -0.001 C 
ATOM     10  C   LIG    1       -1.666   0.508  -1.193  0.00  0.00    -0.024 C 
ATOM     11  C   LIG    1       -2.742  -0.286  -0.469  0.00  0.00    +0.029 C 
ATOM     12  C   LIG    1       -3.910   0.573  -0.078  0.00  0.00    +0.098 C 
ATOM     13  C   LIG    1       -4.267   1.629  -1.068  0.00  0.00    +0.194 C 
ATOM     14  C   LIG    1       -1.829   0.295  -2.699  0.00  0.00    +0.012 C 
ATOM     15  C   LIG    1       -3.102   2.551  -1.378  0.00  0.00    +0.050 C 
ATOM     16  C   LIG    1       -0.348  -0.041  -0.800  0.00  0.00    -0.001 C 
ATOM     17  C   LIG    1       -0.009  -1.316  -1.492  0.00  0.00    +0.005 C 
ATOM     18  C   LIG    1        3.731  -1.236  -0.600  0.00  0.00    +0.200 C 
ATOM     19  C   LIG    1        1.344  -1.886  -1.176  0.00  0.00    +0.011 C 
ENDROOT
BRANCH   5  20
ATOM     20  N   LIG    1        5.254  -0.002   0.960  0.00  0.00    -0.299 NA
ATOM     21  C   LIG    1        5.169   1.046   1.971  0.00  0.00    +0.067 C 
ATOM     22  C   LIG    1        6.321   0.991   2.933  0.00  0.00    -0.060 C 
ATOM     23  N   LIG    1        7.541   0.519   2.321  0.00  0.00    +0.378 N 
ATOM     24  C   LIG    1        8.581   0.583   3.350  0.00  0.00    -0.092 C 
ATOM     25  C   LIG    1        7.345  -0.848   1.918  0.00  0.00    -0.060 C 
ATOM     26  C   LIG    1        7.887   1.400   1.228  0.00  0.00    -0.092 C 
ATOM     27  C   LIG    1        5.890  -1.132   1.537  0.00  0.00    +0.067 C 
ENDBRANCH   5  20
BRANCH  12  28
ATOM     28  N   LIG    1       -5.071  -0.149   0.301  0.00  0.00    -0.299 NA
ATOM     29  C   LIG    1       -4.811  -0.963   1.502  0.00  0.00    +0.067 C 
ATOM     30  C   LIG    1       -6.116  -1.227   2.178  0.00  0.00    -0.060 C 
ATOM     31  N   LIG    1       -7.040  -1.777   1.214  0.00  0.00    +0.378 N 
ATOM     32  C   LIG    1       -7.663  -2.942   1.798  0.00  0.00    -0.092 C 
ATOM     33  C   LIG    1       -8.018  -0.787   0.844  0.00  0.00    -0.092 C 
ATOM     34  C   LIG    1       -6.357  -2.203   0.007  0.00  0.00    -0.060 C 
ATOM     35  C   LIG    1       -5.665  -1.003  -0.662  0.00  0.00    +0.067 C 
ENDBRANCH  12  28
BRANCH  13  36
ATOM     36  O   LIG    1       -5.275   2.446  -0.495  0.00  0.00    -0.460 OA
BRANCH  36  37
ATOM     37  C   LIG    1       -6.514   2.639  -1.068  0.00  0.00    +0.304 C 
ATOM     38  C   LIG    1       -7.530   3.504  -0.421  0.00  0.00    +0.136 C 
ATOM     39  O   LIG    1       -6.760   2.061  -2.156  0.00  0.00    -0.251 OA
ENDBRANCH  36  37
ENDBRANCH  13  36
BRANCH  18  40
ATOM     40  O   LIG    1        4.770  -1.379  -1.520  0.00  0.00    -0.459 OA
BRANCH  40  41
ATOM     41  C   LIG    1        5.456  -2.483  -1.894  0.00  0.00    +0.304 C 
ATOM     42  O   LIG    1        5.131  -3.565  -1.347  0.00  0.00    -0.251 OA
ATOM     43  C   LIG    1        6.556  -2.479  -2.905  0.00  0.00    +0.136 C 
ENDBRANCH  40  41
ENDBRANCH  18  40
TORSDOF 6
