REMARK  Name = molecules/OWZREIFADZCYQD-NSHGMRRFSA-N.pdb
REMARK                            x       y       z     vdW  Elec       q    Type
REMARK                         _______ _______ _______ _____ _____    ______ ____
ROOT
ATOM      1  C   LIG    1       -0.261   0.489  -0.076  0.00  0.00    +0.308 C 
ENDROOT
BRANCH   1   2
ATOM      2  C   LIG    1       -1.065  -0.663  -0.557  0.00  0.00    +0.010 A 
ATOM      3  C   LIG    1       -2.441  -0.646  -0.527  0.00  0.00    +0.054 A 
ATOM      4  C   LIG    1       -3.216  -1.701  -0.966  0.00  0.00    +0.129 A 
ATOM      5  C   LIG    1       -2.590  -2.814  -1.451  0.00  0.00    +0.046 A 
ATOM      6  C   LIG    1       -1.214  -2.877  -1.500  0.00  0.00    +0.004 A 
ATOM      7  C   LIG    1       -0.453  -1.795  -1.050  0.00  0.00    +0.008 A 
BRANCH   4   8
ATOM      8  O   LIG    1       -4.604  -1.671  -0.931  0.00  0.00    -0.456 OA
BRANCH   8   9
ATOM      9  C   LIG    1       -5.327  -0.593  -0.460  0.00  0.00    +0.128 A 
ATOM     10  C   LIG    1       -5.641  -0.583   0.893  0.00  0.00    +0.046 A 
ATOM     11  C   LIG    1       -6.358   0.477   1.385  0.00  0.00    +0.004 A 
ATOM     12  C   LIG    1       -6.764   1.517   0.565  0.00  0.00    +0.000 A 
ATOM     13  C   LIG    1       -6.451   1.502  -0.772  0.00  0.00    +0.004 A 
ATOM     14  C   LIG    1       -5.732   0.443  -1.276  0.00  0.00    +0.046 A 
ENDBRANCH   8   9
ENDBRANCH   4   8
ENDBRANCH   1   2
BRANCH   1  15
ATOM     15  C   LIG    1       -1.091   1.423   0.708  0.00  0.00    +0.112 C 
ATOM     16  N   LIG    1       -1.739   2.145   1.339  0.00  0.00    -0.192 NA
ENDBRANCH   1  15
BRANCH   1  17
ATOM     17  O   LIG    1        0.811   0.113   0.727  0.00  0.00    -0.441 OA
BRANCH  17  18
ATOM     18  C   LIG    1        2.105   0.472   0.349  0.00  0.00    +0.313 C 
ATOM     19  O   LIG    1        2.217   1.129  -0.719  0.00  0.00    -0.250 OA
BRANCH  18  20
ATOM     20  C   LIG    1        3.298   0.108   1.153  0.00  0.00    +0.111 C 
ATOM     21  C   LIG    1        4.527   0.901   1.189  0.00  0.00    +0.034 C 
ATOM     22  C   LIG    1        4.528  -0.373   0.444  0.00  0.00    -0.014 C 
ATOM     23  C   LIG    1        5.338  -1.513   1.013  0.00  0.00    +0.012 C 
ATOM     24  C   LIG    1        4.431  -0.389  -1.066  0.00  0.00    +0.012 C 
BRANCH  21  25
ATOM     25  C   LIG    1        4.678   2.199   0.487  0.00  0.00    +0.000 C 
ATOM     26  C   LIG    1        5.694   3.006   0.769  0.00  0.00    +0.057 C 
ATOM     27 BR   LIG    1        6.986   2.502   2.092  0.00  0.00    -0.043 Br
ATOM     28 BR   LIG    1        5.939   4.686  -0.102  0.00  0.00    -0.043 Br
ENDBRANCH  21  25
ENDBRANCH  18  20
ENDBRANCH  17  18
ENDBRANCH   1  17
TORSDOF 8
