REMARK  Name = molecules/OXDOWGVJMITMJL-OAQYLSRUSA-N.pdb
REMARK                            x       y       z     vdW  Elec       q    Type
REMARK                         _______ _______ _______ _____ _____    ______ ____
ROOT
ATOM      1  C   LIG    1       -0.240   0.443   0.434  0.00  0.00    +0.121 C 
ENDROOT
BRANCH   1   2
ATOM      2  C   LIG    1        1.125  -0.117   0.467  0.00  0.00    +0.047 C 
ATOM      3  C   LIG    1        2.223   0.907   0.284  0.00  0.00    +0.091 C 
ATOM      4  N   LIG    1        3.382   0.178  -0.173  0.00  0.00    -0.302 NA
ATOM      5  C   LIG    1        3.711  -0.962   0.634  0.00  0.00    +0.084 C 
ATOM      6  C   LIG    1        2.633  -2.022   0.694  0.00  0.00    +0.019 C 
ATOM      7  C   LIG    1        3.182  -0.303  -1.548  0.00  0.00    +0.084 C 
ATOM      8  C   LIG    1        2.144  -1.406  -1.505  0.00  0.00    +0.019 C 
ATOM      9  C   LIG    1        1.467  -1.408  -0.161  0.00  0.00    -0.001 C 
ENDBRANCH   1   2
BRANCH   1  10
ATOM     10  C   LIG    1       -1.186  -0.519   1.037  0.00  0.00    -0.008 A 
ATOM     11  C   LIG    1       -1.343  -0.705   2.409  0.00  0.00    +0.007 A 
ATOM     12  C   LIG    1       -2.147  -1.660   2.988  0.00  0.00    +0.000 A 
ATOM     13  C   LIG    1       -2.854  -2.503   2.172  0.00  0.00    +0.000 A 
ATOM     14  C   LIG    1       -2.721  -2.343   0.812  0.00  0.00    +0.004 A 
ATOM     15  C   LIG    1       -1.909  -1.375   0.233  0.00  0.00    -0.044 A 
ATOM     16  C   LIG    1       -1.832  -1.180  -1.215  0.00  0.00    +0.044 C 
ENDBRANCH   1  10
BRANCH   1  17
ATOM     17  C   LIG    1       -0.700   1.381  -0.568  0.00  0.00    -0.008 A 
ATOM     18  C   LIG    1       -1.715   2.287  -0.274  0.00  0.00    -0.044 A 
ATOM     19  C   LIG    1       -2.388   2.292   1.064  0.00  0.00    +0.044 C 
ATOM     20  C   LIG    1       -2.141   3.202  -1.220  0.00  0.00    +0.004 A 
ATOM     21  C   LIG    1       -1.620   3.299  -2.489  0.00  0.00    +0.000 A 
ATOM     22  C   LIG    1       -0.609   2.404  -2.797  0.00  0.00    +0.000 A 
ATOM     23  C   LIG    1       -0.194   1.499  -1.848  0.00  0.00    +0.007 A 
ENDBRANCH   1  17
BRANCH   1  24
ATOM     24  O   LIG    1       -0.144   1.373   1.598  0.00  0.00    -0.379 OA
ATOM     25  H   LIG    1        0.583   1.113   2.164  0.00  0.00    +0.211 HD
ENDBRANCH   1  24
TORSDOF 4
