REMARK  Name = molecules/OXFGTKPPFSCSMA-XVKPBYJWSA-N.pdb
REMARK                            x       y       z     vdW  Elec       q    Type
REMARK                         _______ _______ _______ _____ _____    ______ ____
ROOT
ATOM      1  C   LIG    1       -1.624  -1.474  -0.110  0.00  0.00    +0.010 A 
ATOM      2  C   LIG    1       -2.925  -1.377   0.294  0.00  0.00    +0.046 A 
ATOM      3  C   LIG    1       -3.550  -0.165   0.301  0.00  0.00    +0.117 A 
ATOM      4  C   LIG    1       -2.844   0.946  -0.105  0.00  0.00    +0.046 A 
ATOM      5  C   LIG    1       -1.523   0.838  -0.513  0.00  0.00    +0.010 A 
ATOM      6  C   LIG    1       -0.897  -0.375  -0.520  0.00  0.00    -0.017 A 
ENDROOT
BRANCH   3   7
ATOM      7  O   LIG    1       -4.886  -0.035   0.710  0.00  0.00    -0.507 OA
ATOM      8  H   LIG    1       -5.610  -0.121   0.035  0.00  0.00    +0.292 HD
ENDBRANCH   3   7
BRANCH   6   9
ATOM      9  C   LIG    1        0.506  -0.509  -0.950  0.00  0.00    +0.161 C 
BRANCH   9  10
ATOM     10  C   LIG    1        1.495  -0.209   0.154  0.00  0.00    +0.083 C 
ATOM     11  C   LIG    1        1.470   1.247   0.559  0.00  0.00    +0.027 C 
BRANCH  10  12
ATOM     12  N   LIG    1        2.810  -0.545  -0.307  0.00  0.00    -0.314 NA
ATOM     13  C   LIG    1        3.783  -0.261   0.748  0.00  0.00    +0.101 C 
ATOM     14  H   LIG    1        3.062  -0.104  -1.201  0.00  0.00    +0.122 HD
ENDBRANCH  10  12
ENDBRANCH   9  10
BRANCH   9  15
ATOM     15  O   LIG    1        0.746   0.199  -2.097  0.00  0.00    -0.386 OA
ATOM     16  H   LIG    1        0.484   1.129  -2.077  0.00  0.00    +0.210 HD
ENDBRANCH   9  15
ENDBRANCH   6   9
TORSDOF 5
