REMARK  Name = molecules/OXLZNBCNGJWPRV-SZPZYZBQSA-N.pdb
REMARK                            x       y       z     vdW  Elec       q    Type
REMARK                         _______ _______ _______ _____ _____    ______ ____
ROOT
ATOM      1  C   LIG    1        0.910   0.337  -1.564  0.00  0.00    +0.001 C 
ENDROOT
BRANCH   1   2
ATOM      2  C   LIG    1       -0.112  -0.260  -0.656  0.00  0.00    +0.001 C 
BRANCH   2   3
ATOM      3  C   LIG    1       -1.412  -0.345  -1.463  0.00  0.00    +0.015 C 
BRANCH   3   4
ATOM      4  C   LIG    1       -2.505  -0.944  -0.603  0.00  0.00    +0.081 C 
BRANCH   4   5
ATOM      5  N   LIG    1       -3.734  -1.048  -1.307  0.00  0.00    -0.313 NA
ATOM      6  H   LIG    1       -3.702  -1.701  -2.097  0.00  0.00    +0.122 HD
BRANCH   5   7
ATOM      7  C   LIG    1       -4.394   0.156  -1.661  0.00  0.00    +0.117 C 
BRANCH   7   8
ATOM      8  C   LIG    1       -4.973   0.968  -0.558  0.00  0.00    +0.158 C 
BRANCH   8   9
ATOM      9  C   LIG    1       -6.043   0.279   0.212  0.00  0.00    -0.014 A 
ATOM     10  C   LIG    1       -6.461   0.842   1.392  0.00  0.00    +0.010 A 
ATOM     11  C   LIG    1       -7.465   0.231   2.138  0.00  0.00    +0.049 A 
ATOM     12  C   LIG    1       -8.061  -0.942   1.721  0.00  0.00    +0.158 A 
ATOM     13  C   LIG    1       -7.646  -1.519   0.529  0.00  0.00    +0.159 A 
ATOM     14  C   LIG    1       -6.640  -0.891  -0.202  0.00  0.00    +0.055 A 
BRANCH  13  15
ATOM     15  O   LIG    1       -8.226  -2.707   0.071  0.00  0.00    -0.503 OA
ATOM     16  H   LIG    1       -7.885  -3.084  -0.803  0.00  0.00    +0.292 HD
ENDBRANCH  13  15
BRANCH  12  17
ATOM     17  O   LIG    1       -9.063  -1.548   2.469  0.00  0.00    -0.503 OA
ATOM     18  H   LIG    1       -9.497  -2.393   2.175  0.00  0.00    +0.292 HD
ENDBRANCH  12  17
ENDBRANCH   8   9
BRANCH   8  19
ATOM     19  O   LIG    1       -3.955   1.343   0.315  0.00  0.00    -0.386 OA
ATOM     20  H   LIG    1       -4.214   2.107   0.906  0.00  0.00    +0.210 HD
ENDBRANCH   8  19
ENDBRANCH   7   8
ENDBRANCH   5   7
ENDBRANCH   4   5
ENDBRANCH   3   4
ENDBRANCH   2   3
ENDBRANCH   1   2
BRANCH   1  21
ATOM     21  C   LIG    1        2.289   0.482  -0.926  0.00  0.00    +0.015 C 
BRANCH  21  22
ATOM     22  C   LIG    1        2.207   1.359   0.271  0.00  0.00    +0.081 C 
BRANCH  22  23
ATOM     23  N   LIG    1        3.331   1.620   1.031  0.00  0.00    -0.313 NA
ATOM     24  H   LIG    1        3.574   0.913   1.758  0.00  0.00    +0.122 HD
BRANCH  23  25
ATOM     25  C   LIG    1        4.423   2.382   0.684  0.00  0.00    +0.117 C 
BRANCH  25  26
ATOM     26  C   LIG    1        5.356   1.849  -0.375  0.00  0.00    +0.158 C 
BRANCH  26  27
ATOM     27  C   LIG    1        5.967   0.550   0.008  0.00  0.00    -0.014 A 
ATOM     28  C   LIG    1        6.882   0.441   1.033  0.00  0.00    +0.055 A 
ATOM     29  C   LIG    1        7.453  -0.765   1.379  0.00  0.00    +0.159 A 
ATOM     30  C   LIG    1        7.138  -1.929   0.714  0.00  0.00    +0.158 A 
ATOM     31  C   LIG    1        6.219  -1.825  -0.316  0.00  0.00    +0.049 A 
ATOM     32  C   LIG    1        5.648  -0.625  -0.662  0.00  0.00    +0.010 A 
BRANCH  30  33
ATOM     33  O   LIG    1        7.700  -3.138   1.048  0.00  0.00    -0.503 OA
ATOM     34  H   LIG    1        7.434  -3.967   0.527  0.00  0.00    +0.292 HD
ENDBRANCH  30  33
BRANCH  29  35
ATOM     35  O   LIG    1        8.367  -0.840   2.411  0.00  0.00    -0.503 OA
ATOM     36  H   LIG    1        8.617   0.003   2.920  0.00  0.00    +0.292 HD
ENDBRANCH  29  35
ENDBRANCH  26  27
BRANCH  26  37
ATOM     37  O   LIG    1        6.388   2.820  -0.491  0.00  0.00    -0.386 OA
ATOM     38  H   LIG    1        6.056   3.706  -0.198  0.00  0.00    +0.210 HD
ENDBRANCH  26  37
ENDBRANCH  25  26
ENDBRANCH  23  25
ENDBRANCH  22  23
ENDBRANCH  21  22
ENDBRANCH   1  21
TORSDOF 19
