REMARK  Name = molecules/OXNIZHLAWKMVMX-UHFFFAOYSA-N.pdb
REMARK                            x       y       z     vdW  Elec       q    Type
REMARK                         _______ _______ _______ _____ _____    ______ ____
ROOT
ATOM      1  C   LIG    1       -0.732  -1.116   0.192  0.00  0.00    +0.172 A 
ATOM      2  C   LIG    1        0.619  -1.353   0.108  0.00  0.00    +0.069 A 
ATOM      3  C   LIG    1        1.532  -0.335  -0.084  0.00  0.00    +0.131 A 
ATOM      4  C   LIG    1        1.085   0.956  -0.196  0.00  0.00    +0.069 A 
ATOM      5  C   LIG    1       -0.278   1.234  -0.116  0.00  0.00    +0.172 A 
ATOM      6  C   LIG    1       -1.155   0.203   0.074  0.00  0.00    +0.178 A 
ENDROOT
BRANCH   1   7
ATOM      7  N   LIG    1       -1.701  -2.120   0.387  0.00  0.00    +0.060 N 
ATOM      8  O   LIG    1       -2.750  -1.881   1.008  0.00  0.00    -0.126 OA
ATOM      9  O   LIG    1       -1.455  -3.370  -0.130  0.00  0.00    -0.126 OA
ENDBRANCH   1   7
BRANCH   3  10
ATOM     10  N   LIG    1        2.921  -0.620  -0.166  0.00  0.00    +0.057 N 
ATOM     11  O   LIG    1        3.349  -1.940  -0.048  0.00  0.00    -0.126 OA
ATOM     12  O   LIG    1        3.743   0.280  -0.338  0.00  0.00    -0.126 OA
ENDBRANCH   3  10
BRANCH   5  13
ATOM     13  N   LIG    1       -0.652   2.587  -0.244  0.00  0.00    +0.060 N 
ATOM     14  O   LIG    1       -1.779   3.065   0.351  0.00  0.00    -0.126 OA
ATOM     15  O   LIG    1        0.047   3.371  -0.912  0.00  0.00    -0.126 OA
ENDBRANCH   5  13
BRANCH   6  16
ATOM     16  O   LIG    1       -2.499   0.421   0.158  0.00  0.00    -0.503 OA
ATOM     17  H   LIG    1       -3.046   1.230   0.104  0.00  0.00    +0.292 HD
ENDBRANCH   6  16
TORSDOF 4
