REMARK  Name = molecules/OYCGKECKIVYHTN-UHFFFAOYSA-N.pdb
REMARK                            x       y       z     vdW  Elec       q    Type
REMARK                         _______ _______ _______ _____ _____    ______ ____
ROOT
ATOM      1  N   LIG    1       -1.037   0.131  -1.076  0.00  0.00    -0.284 N 
ATOM      2  C   LIG    1        0.317   0.072  -0.628  0.00  0.00    +0.231 C 
ATOM      3  O   LIG    1        0.477  -0.093   0.609  0.00  0.00    -0.274 OA
ATOM      4  H   LIG    1       -1.253   0.268  -2.108  0.00  0.00    +0.155 HD
ENDROOT
BRANCH   1   5
ATOM      5  C   LIG    1       -2.165   0.016  -0.232  0.00  0.00    +0.039 A 
ATOM      6  C   LIG    1       -2.694   1.171   0.340  0.00  0.00    -0.029 A 
ATOM      7  C   LIG    1       -3.797   1.031   1.154  0.00  0.00    +0.005 A 
ATOM      8  C   LIG    1       -4.383  -0.190   1.417  0.00  0.00    +0.001 A 
ATOM      9  C   LIG    1       -3.863  -1.340   0.854  0.00  0.00    +0.005 A 
ATOM     10  C   LIG    1       -2.085   2.492   0.074  0.00  0.00    +0.045 C 
ATOM     11  C   LIG    1       -2.759  -1.207   0.037  0.00  0.00    -0.029 A 
ATOM     12  C   LIG    1       -2.163  -2.403  -0.590  0.00  0.00    +0.045 C 
ENDBRANCH   1   5
BRANCH   2  13
ATOM     13  C   LIG    1        1.452   0.198  -1.553  0.00  0.00    +0.180 C 
BRANCH  13  14
ATOM     14  N   LIG    1        2.729   0.123  -0.965  0.00  0.00    -0.294 NA
ATOM     15  C   LIG    1        3.138   1.180  -0.111  0.00  0.00    +0.085 C 
ATOM     16  C   LIG    1        3.867   0.614   1.070  0.00  0.00    +0.017 C 
ATOM     17  C   LIG    1        4.129  -0.811   0.689  0.00  0.00    +0.017 C 
ATOM     18  C   LIG    1        3.175  -1.120  -0.461  0.00  0.00    +0.085 C 
ENDBRANCH  13  14
ENDBRANCH   2  13
TORSDOF 3
