REMARK  Name = molecules/OYHQOLUKZRVURQ-HZJYTTRNSA-N.pdb
REMARK                            x       y       z     vdW  Elec       q    Type
REMARK                         _______ _______ _______ _____ _____    ______ ____
ROOT
ATOM      1  C   LIG    1       -1.060  -0.144   2.013  0.00  0.00    +0.027 C 
ENDROOT
BRANCH   1   2
ATOM      2  C   LIG    1       -0.071   0.518   1.168  0.00  0.00    -0.031 C 
ATOM      3  C   LIG    1        1.153   0.891   1.491  0.00  0.00    -0.027 C 
BRANCH   3   4
ATOM      4  C   LIG    1        1.718   0.689   2.797  0.00  0.00    +0.053 C 
BRANCH   4   5
ATOM      5  C   LIG    1        2.872  -0.147   3.022  0.00  0.00    -0.027 C 
ATOM      6  C   LIG    1        3.535  -0.870   2.181  0.00  0.00    -0.031 C 
BRANCH   6   7
ATOM      7  C   LIG    1        3.290  -1.038   0.776  0.00  0.00    +0.027 C 
BRANCH   7   8
ATOM      8  C   LIG    1        4.537  -0.516   0.030  0.00  0.00    +0.004 C 
BRANCH   8   9
ATOM      9  C   LIG    1        4.326  -0.673  -1.465  0.00  0.00    +0.000 C 
BRANCH   9  10
ATOM     10  C   LIG    1        5.578  -0.147  -2.147  0.00  0.00    -0.003 C 
ATOM     11  C   LIG    1        5.815   1.305  -1.812  0.00  0.00    +0.004 C 
ENDBRANCH   9  10
ENDBRANCH   8   9
ENDBRANCH   7   8
ENDBRANCH   6   7
ENDBRANCH   4   5
ENDBRANCH   3   4
ENDBRANCH   1   2
BRANCH   1  12
ATOM     12  C   LIG    1       -1.407  -1.472   1.366  0.00  0.00    +0.004 C 
BRANCH  12  13
ATOM     13  C   LIG    1       -1.973  -1.349  -0.021  0.00  0.00    +0.000 C 
BRANCH  13  14
ATOM     14  C   LIG    1       -3.235  -0.534   0.037  0.00  0.00    +0.000 C 
BRANCH  14  15
ATOM     15  C   LIG    1       -3.860  -0.394  -1.359  0.00  0.00    +0.001 C 
BRANCH  15  16
ATOM     16  C   LIG    1       -5.111   0.434  -1.185  0.00  0.00    +0.011 C 
BRANCH  16  17
ATOM     17  C   LIG    1       -5.842   0.663  -2.466  0.00  0.00    +0.120 C 
BRANCH  17  18
ATOM     18  C   LIG    1       -7.044   1.478  -2.202  0.00  0.00    +0.305 C 
ATOM     19  O   LIG    1       -7.318   1.866  -1.048  0.00  0.00    -0.251 OA
BRANCH  18  20
ATOM     20  O   LIG    1       -7.884   1.821  -3.241  0.00  0.00    -0.481 OA
ATOM     21  H   LIG    1       -8.136   2.813  -3.314  0.00  0.00    +0.295 HD
ENDBRANCH  18  20
ENDBRANCH  17  18
ENDBRANCH  16  17
ENDBRANCH  15  16
ENDBRANCH  14  15
ENDBRANCH  13  14
ENDBRANCH  12  13
ENDBRANCH   1  12
TORSDOF 15
