REMARK  Name = molecules/OZFSWVOEXHGDES-INIZCTEOSA-N.pdb
REMARK                            x       y       z     vdW  Elec       q    Type
REMARK                         _______ _______ _______ _____ _____    ______ ____
ROOT
ATOM      1  C   LIG    1        1.707  -0.116  -1.059  0.00  0.00    +0.077 C 
ATOM      2  C   LIG    1        0.798   1.084  -0.923  0.00  0.00    +0.038 C 
ATOM      3  C   LIG    1       -0.466   0.944  -1.709  0.00  0.00    +0.086 C 
ATOM      4  N   LIG    1       -1.236  -0.229  -1.335  0.00  0.00    -0.300 NA
ATOM      5  C   LIG    1       -0.369  -1.350  -1.711  0.00  0.00    +0.086 C 
ATOM      6  C   LIG    1        0.916  -1.406  -0.985  0.00  0.00    +0.038 C 
ENDROOT
BRANCH   1   7
ATOM      7  N   LIG    1        2.611  -0.126   0.062  0.00  0.00    -0.310 N 
ATOM      8  C   LIG    1        2.167  -0.042   1.434  0.00  0.00    +0.131 C 
BRANCH   7   9
ATOM      9  C   LIG    1        4.039  -0.262  -0.116  0.00  0.00    +0.162 A 
ATOM     10  N   LIG    1        4.989   0.636  -0.205  0.00  0.00    -0.225 NA
ATOM     11  C   LIG    1        6.233   0.276  -0.365  0.00  0.00    +0.080 A 
ATOM     12  C   LIG    1        6.498  -1.066  -0.436  0.00  0.00    +0.041 A 
ATOM     13  C   LIG    1        7.799  -1.576  -0.606  0.00  0.00    +0.017 A 
ATOM     14  C   LIG    1        8.865  -0.714  -0.707  0.00  0.00    +0.001 A 
ATOM     15  C   LIG    1        8.584   0.628  -0.635  0.00  0.00    +0.002 A 
ATOM     16  C   LIG    1        7.337   1.146  -0.472  0.00  0.00    +0.029 A 
ATOM     17  S   LIG    1        4.935  -1.736  -0.266  0.00  0.00    -0.052 S 
ENDBRANCH   7   9
ENDBRANCH   1   7
BRANCH   4  18
ATOM     18  C   LIG    1       -1.586  -0.290   0.051  0.00  0.00    +0.119 C 
BRANCH  18  19
ATOM     19  C   LIG    1       -2.767   0.580   0.338  0.00  0.00    +0.166 C 
BRANCH  19  20
ATOM     20  O   LIG    1       -2.586   1.920   0.051  0.00  0.00    -0.387 OA
ATOM     21  H   LIG    1       -3.356   2.428   0.426  0.00  0.00    +0.210 HD
ENDBRANCH  19  20
BRANCH  19  22
ATOM     22  C   LIG    1       -3.284   0.380   1.738  0.00  0.00    +0.261 C 
BRANCH  22  23
ATOM     23  O   LIG    1       -4.553   0.819   2.009  0.00  0.00    -0.489 OA
BRANCH  23  24
ATOM     24  C   LIG    1       -5.767   0.395   1.549  0.00  0.00    +0.124 A 
ATOM     25  C   LIG    1       -6.961   1.014   1.936  0.00  0.00    +0.048 A 
ATOM     26  C   LIG    1       -8.186   0.615   1.495  0.00  0.00    +0.045 A 
ATOM     27  C   LIG    1       -8.284  -0.451   0.621  0.00  0.00    +0.159 A 
ATOM     28  C   LIG    1       -7.140  -1.099   0.206  0.00  0.00    +0.162 A 
ATOM     29  F   LIG    1       -7.267  -2.133  -0.647  0.00  0.00    -0.202 F 
ATOM     30  F   LIG    1       -9.510  -0.851   0.182  0.00  0.00    -0.202 F 
ATOM     31  C   LIG    1       -5.904  -0.660   0.681  0.00  0.00    +0.087 A 
ENDBRANCH  23  24
ENDBRANCH  22  23
ENDBRANCH  19  22
ENDBRANCH  18  19
ENDBRANCH   4  18
TORSDOF 8
