REMARK  Name = molecules/OZGNYLLQHRPOBR-DHZHZOJOSA-N.pdb
REMARK                            x       y       z     vdW  Elec       q    Type
REMARK                         _______ _______ _______ _____ _____    ______ ____
ROOT
ATOM      1  C   LIG    1       -1.568  -1.261  -0.105  0.00  0.00    +0.120 C 
ENDROOT
BRANCH   1   2
ATOM      2  C   LIG    1       -2.847  -0.820   0.387  0.00  0.00    -0.026 A 
ATOM      3  C   LIG    1       -3.610  -1.493   1.308  0.00  0.00    +0.005 A 
ATOM      4  C   LIG    1       -4.920  -1.106   1.589  0.00  0.00    +0.001 A 
ATOM      5  C   LIG    1       -5.476  -0.036   0.947  0.00  0.00    +0.008 A 
ATOM      6  C   LIG    1       -4.701   0.652   0.015  0.00  0.00    -0.018 A 
ATOM      7  C   LIG    1       -5.227   1.812  -0.581  0.00  0.00    +0.008 A 
ATOM      8  C   LIG    1       -4.457   2.554  -1.434  0.00  0.00    +0.001 A 
ATOM      9  C   LIG    1       -3.168   2.173  -1.713  0.00  0.00    +0.001 A 
ATOM     10  C   LIG    1       -2.649   1.010  -1.116  0.00  0.00    +0.009 A 
ATOM     11  C   LIG    1       -3.429   0.282  -0.266  0.00  0.00    -0.013 A 
ENDBRANCH   1   2
BRANCH   1  12
ATOM     12  N   LIG    1       -0.378  -0.835   0.611  0.00  0.00    -0.298 NA
ATOM     13  C   LIG    1       -0.415   0.366   1.271  0.00  0.00    +0.105 C 
BRANCH  12  14
ATOM     14  C   LIG    1        0.727  -1.312  -0.112  0.00  0.00    +0.111 C 
BRANCH  14  15
ATOM     15  C   LIG    1        1.976  -0.592  -0.242  0.00  0.00    -0.011 C 
ATOM     16  C   LIG    1        3.126  -1.094   0.108  0.00  0.00    +0.005 C 
BRANCH  16  17
ATOM     17  C   LIG    1        4.419  -0.462  -0.005  0.00  0.00    -0.025 A 
ATOM     18  C   LIG    1        5.544  -1.185   0.367  0.00  0.00    +0.008 A 
ATOM     19  C   LIG    1        6.829  -0.694   0.261  0.00  0.00    +0.001 A 
ATOM     20  C   LIG    1        7.031   0.577  -0.237  0.00  0.00    +0.000 A 
ATOM     21  C   LIG    1        5.939   1.286  -0.599  0.00  0.00    +0.001 A 
ATOM     22  C   LIG    1        4.664   0.796  -0.495  0.00  0.00    +0.008 A 
ENDBRANCH  16  17
ENDBRANCH  14  15
ENDBRANCH  12  14
ENDBRANCH   1  12
TORSDOF 5
