REMARK  Name = molecules/OZLPUNFFCJDMJD-UHFFFAOYSA-N.pdb
REMARK                            x       y       z     vdW  Elec       q    Type
REMARK                         _______ _______ _______ _____ _____    ______ ____
ROOT
ATOM      1  C   LIG    1       -0.116  -0.673  -0.720  0.00  0.00    +0.204 A 
ATOM      2  C   LIG    1        1.102  -0.765  -0.109  0.00  0.00    +0.165 A 
ATOM      3  C   LIG    1        1.303  -1.821   0.751  0.00  0.00    +0.049 A 
ATOM      4  C   LIG    1        0.291  -2.736   0.965  0.00  0.00    +0.007 A 
ATOM      5  C   LIG    1       -0.921  -2.632   0.348  0.00  0.00    +0.049 A 
ATOM      6  C   LIG    1       -1.198  -1.577  -0.543  0.00  0.00    +0.165 A 
ENDROOT
BRANCH   6   7
ATOM      7  O   LIG    1       -2.321  -1.416  -1.154  0.00  0.00    -0.490 OA
BRANCH   7   8
ATOM      8  C   LIG    1       -3.429  -1.258  -1.758  0.00  0.00    +0.211 C 
BRANCH   8   9
ATOM      9  C   LIG    1       -4.743  -1.014  -1.067  0.00  0.00    -0.034 C 
BRANCH   9  10
ATOM     10  N   LIG    1       -5.266  -1.971  -0.187  0.00  0.00    +0.382 N 
BRANCH  10  11
ATOM     11  C   LIG    1       -5.610  -3.213  -0.906  0.00  0.00    -0.078 C 
ATOM     12  C   LIG    1       -6.752  -3.060  -1.847  0.00  0.00    -0.016 C 
ENDBRANCH  10  11
BRANCH  10  13
ATOM     13  C   LIG    1       -6.503  -1.482   0.418  0.00  0.00    -0.078 C 
ATOM     14  C   LIG    1       -7.148  -0.359  -0.335  0.00  0.00    -0.016 C 
ENDBRANCH  10  13
BRANCH  10  15
ATOM     15  C   LIG    1       -4.391  -2.380   0.887  0.00  0.00    -0.078 C 
ATOM     16  C   LIG    1       -5.105  -2.632   2.196  0.00  0.00    -0.016 C 
ENDBRANCH  10  15
ENDBRANCH   9  10
ENDBRANCH   8   9
ENDBRANCH   7   8
ENDBRANCH   6   7
BRANCH   2  17
ATOM     17  O   LIG    1        2.111   0.130  -0.316  0.00  0.00    -0.490 OA
BRANCH  17  18
ATOM     18  C   LIG    1        3.412   0.199   0.145  0.00  0.00    +0.211 C 
BRANCH  18  19
ATOM     19  C   LIG    1        4.249  -0.890  -0.359  0.00  0.00    -0.034 C 
BRANCH  19  20
ATOM     20  N   LIG    1        5.642  -0.940   0.068  0.00  0.00    +0.382 N 
BRANCH  20  21
ATOM     21  C   LIG    1        6.408  -1.343  -1.068  0.00  0.00    -0.078 C 
ATOM     22  C   LIG    1        7.005  -2.697  -1.060  0.00  0.00    -0.016 C 
ENDBRANCH  20  21
BRANCH  20  23
ATOM     23  C   LIG    1        6.000   0.392   0.461  0.00  0.00    -0.078 C 
ATOM     24  C   LIG    1        7.339   0.518   1.134  0.00  0.00    -0.016 C 
ENDBRANCH  20  23
BRANCH  20  25
ATOM     25  C   LIG    1        5.586  -1.886   1.141  0.00  0.00    -0.078 C 
ATOM     26  C   LIG    1        6.774  -2.344   1.823  0.00  0.00    -0.016 C 
ENDBRANCH  20  25
ENDBRANCH  19  20
ENDBRANCH  18  19
ENDBRANCH  17  18
ENDBRANCH   2  17
BRANCH   1  27
ATOM     27  O   LIG    1       -0.359   0.358  -1.583  0.00  0.00    -0.487 OA
BRANCH  27  28
ATOM     28  C   LIG    1       -0.927   1.612  -1.308  0.00  0.00    +0.211 C 
BRANCH  28  29
ATOM     29  C   LIG    1       -0.126   2.387  -0.318  0.00  0.00    -0.034 C 
BRANCH  29  30
ATOM     30  N   LIG    1       -0.648   3.676   0.011  0.00  0.00    +0.382 N 
BRANCH  30  31
ATOM     31  C   LIG    1       -1.419   4.303  -1.030  0.00  0.00    -0.078 C 
ATOM     32  C   LIG    1       -0.668   4.975  -2.116  0.00  0.00    -0.016 C 
ENDBRANCH  30  31
BRANCH  30  33
ATOM     33  C   LIG    1        0.318   4.630   0.493  0.00  0.00    -0.078 C 
ATOM     34  C   LIG    1        1.740   4.310   0.136  0.00  0.00    -0.016 C 
ENDBRANCH  30  33
BRANCH  30  35
ATOM     35  C   LIG    1       -1.603   3.479   1.104  0.00  0.00    -0.078 C 
ATOM     36  C   LIG    1       -0.922   2.909   2.296  0.00  0.00    -0.016 C 
ENDBRANCH  30  35
ENDBRANCH  29  30
ENDBRANCH  28  29
ENDBRANCH  27  28
ENDBRANCH   1  27
TORSDOF 21
