REMARK  Name = molecules/PAEBIVWUMLRPSK-IDTAVKCVSA-N.pdb
REMARK                            x       y       z     vdW  Elec       q    Type
REMARK                         _______ _______ _______ _____ _____    ______ ____
ROOT
ATOM      1  C   LIG    1        0.413  -0.456   0.301  0.00  0.00    +0.253 C 
ATOM      2  O   LIG    1        1.622   0.116   0.688  0.00  0.00    -0.346 OA
ATOM      3  C   LIG    1        2.497  -0.882   0.215  0.00  0.00    +0.178 C 
ATOM      4  C   LIG    1        2.051  -1.127  -1.228  0.00  0.00    +0.178 C 
ATOM      5  C   LIG    1        0.613  -0.590  -1.197  0.00  0.00    +0.195 C 
ENDROOT
BRANCH   1  13
ATOM      6  N   LIG    1       -2.534  -1.009  -0.421  0.00  0.00    -0.202 NA
ATOM      7  C   LIG    1       -1.982   0.000   0.293  0.00  0.00    +0.169 A 
ATOM      8  C   LIG    1       -2.865   0.952   0.790  0.00  0.00    +0.148 A 
ATOM      9  N   LIG    1       -2.103   1.833   1.450  0.00  0.00    -0.231 NA
ATOM     10  C   LIG    1       -0.817   1.453   1.368  0.00  0.00    +0.203 A 
ATOM     11  C   LIG    1       -4.240   0.865   0.563  0.00  0.00    +0.151 A 
ATOM     12  N   LIG    1       -4.658  -0.171  -0.151  0.00  0.00    -0.205 NA
ATOM     13  N   LIG    1       -0.726   0.320   0.654  0.00  0.00    -0.285 N 
ATOM     14  C   LIG    1       -3.852  -1.121  -0.657  0.00  0.00    +0.192 A 
BRANCH  11  15
ATOM     15  N   LIG    1       -5.124   1.847   1.077  0.00  0.00    -0.326 N 
ATOM     16  H   LIG    1       -4.800   2.650   1.628  0.00  0.00    +0.148 HD
BRANCH  15  17
ATOM     17  C   LIG    1       -6.537   1.703   0.810  0.00  0.00    +0.113 C 
BRANCH  17  18
ATOM     18  C   LIG    1       -7.351   2.817   1.399  0.00  0.00    +0.087 C 
BRANCH  18  19
ATOM     19  S   LIG    1       -6.853   4.426   0.730  0.00  0.00    -0.163 S 
ATOM     20  C   LIG    1       -7.290   4.420  -1.046  0.00  0.00    +0.084 C 
ENDBRANCH  18  19
ENDBRANCH  17  18
ENDBRANCH  15  17
ENDBRANCH  11  15
BRANCH  14  21
ATOM     21  S   LIG    1       -4.538  -2.469  -1.609  0.00  0.00    -0.086 S 
BRANCH  21  22
ATOM     22  C   LIG    1       -4.921  -3.829  -0.470  0.00  0.00    +0.086 C 
BRANCH  22  23
ATOM     23  C   LIG    1       -6.046  -3.374   0.464  0.00  0.00    +0.124 C 
BRANCH  23  24
ATOM     24  C   LIG    1       -7.227  -3.042  -0.407  0.00  0.00    +0.391 C 
ATOM     25  F   LIG    1       -8.306  -2.591   0.289  0.00  0.00    -0.171 F 
ATOM     26  F   LIG    1       -7.558  -4.205  -1.093  0.00  0.00    -0.171 F 
ATOM     27  F   LIG    1       -6.815  -2.136  -1.363  0.00  0.00    -0.171 F 
ENDBRANCH  23  24
ENDBRANCH  22  23
ENDBRANCH  21  22
ENDBRANCH  14  21
ENDBRANCH   1  13
BRANCH   5  28
ATOM     28  O   LIG    1       -0.226  -1.519  -1.760  0.00  0.00    -0.385 OA
ATOM     29  H   LIG    1       -0.406  -1.248  -2.700  0.00  0.00    +0.210 HD
ENDBRANCH   5  28
BRANCH   4  30
ATOM     30  O   LIG    1        2.001  -2.493  -1.513  0.00  0.00    -0.386 OA
ATOM     31  H   LIG    1        2.509  -3.035  -0.880  0.00  0.00    +0.210 HD
ENDBRANCH   4  30
BRANCH   3  32
ATOM     32  C   LIG    1        3.925  -0.458   0.258  0.00  0.00    +0.206 C 
BRANCH  32  33
ATOM     33  O   LIG    1        4.118   0.670  -0.530  0.00  0.00    -0.284 OA
BRANCH  33  34
ATOM     34  P   LIG    1        5.740   1.143  -0.478  0.00  0.00    +0.482 P 
ATOM     35  O   LIG    1        5.809   2.607  -0.087  0.00  0.00    -0.227 OA
BRANCH  34  36
ATOM     36  O   LIG    1        6.448   0.873  -1.982  0.00  0.00    -0.302 OA
ATOM     37  H   LIG    1        5.895   0.310  -2.558  0.00  0.00    +0.222 HD
ENDBRANCH  34  36
BRANCH  34  38
ATOM     38  O   LIG    1        6.570   0.269   0.679  0.00  0.00    -0.206 OA
BRANCH  38  39
ATOM     39  P   LIG    1        7.616  -0.854   0.008  0.00  0.00    +0.386 P 
ATOM     40  O   LIG    1        7.801  -2.011   0.980  0.00  0.00    -0.254 OA
BRANCH  39  41
ATOM     41  C   LIG    1        9.217  -0.076  -0.324  0.00  0.00    +0.318 C 
ATOM     42 CL   LIG    1       10.504  -1.105   0.364  0.00  0.00    -0.075 Cl
ATOM     43 CL   LIG    1        9.469  -0.015  -2.082  0.00  0.00    -0.075 Cl
BRANCH  41  44
ATOM     44  P   LIG    1        9.317   1.588   0.351  0.00  0.00    +0.375 P 
ATOM     45  O   LIG    1        8.956   2.626  -0.703  0.00  0.00    -0.255 OA
BRANCH  44  46
ATOM     46  O   LIG    1        8.305   1.756   1.692  0.00  0.00    -0.322 OA
ATOM     47  H   LIG    1        8.274   2.689   1.990  0.00  0.00    +0.220 HD
ENDBRANCH  44  46
BRANCH  44  48
ATOM     48  O   LIG    1       10.916   1.917   0.823  0.00  0.00    -0.322 OA
ATOM     49  H   LIG    1       11.511   1.417   0.208  0.00  0.00    +0.220 HD
ENDBRANCH  44  48
ENDBRANCH  41  44
ENDBRANCH  39  41
BRANCH  39  50
ATOM     50  O   LIG    1        6.991  -1.520  -1.418  0.00  0.00    -0.321 OA
ATOM     51  H   LIG    1        6.469  -2.360  -1.240  0.00  0.00    +0.220 HD
ENDBRANCH  39  50
ENDBRANCH  38  39
ENDBRANCH  34  38
ENDBRANCH  33  34
ENDBRANCH  32  33
ENDBRANCH   3  32
TORSDOF 22
