REMARK  Name = molecules/PAJBBDCZSMDSFL-MRXNPFEDSA-N.pdb
REMARK                            x       y       z     vdW  Elec       q    Type
REMARK                         _______ _______ _______ _____ _____    ______ ____
ROOT
ATOM      1  N   LIG    1        0.671   0.344  -0.200  0.00  0.00    -0.224 N 
ATOM      2  C   LIG    1       -0.563   0.061   0.443  0.00  0.00    +0.256 C 
ATOM      3  O   LIG    1       -0.604  -0.350   1.655  0.00  0.00    -0.272 OA
ATOM      4  C   LIG    1       -1.718   0.307  -0.470  0.00  0.00    +0.164 C 
ATOM      5  N   LIG    1       -1.057   0.604  -1.722  0.00  0.00    -0.278 N 
ATOM      6  H   LIG    1       -1.468   0.768  -2.689  0.00  0.00    +0.152 HD
ATOM      7  C   LIG    1        0.365   0.680  -1.541  0.00  0.00    +0.310 C 
ATOM      8  O   LIG    1        1.227   0.997  -2.430  0.00  0.00    -0.252 OA
ENDROOT
BRANCH   4   9
ATOM      9  C   LIG    1       -2.529   1.451   0.010  0.00  0.00    -0.011 A 
ATOM     10  C   LIG    1       -2.269   2.105   1.192  0.00  0.00    +0.006 A 
ATOM     11  C   LIG    1       -3.034   3.169   1.621  0.00  0.00    +0.000 A 
ATOM     12  C   LIG    1       -4.090   3.610   0.868  0.00  0.00    +0.000 A 
ATOM     13  C   LIG    1       -4.354   2.957  -0.320  0.00  0.00    +0.000 A 
ATOM     14  C   LIG    1       -3.588   1.891  -0.748  0.00  0.00    +0.006 A 
ENDBRANCH   4   9
BRANCH   4  15
ATOM     15  C   LIG    1       -2.535  -0.914  -0.645  0.00  0.00    -0.011 A 
ATOM     16  C   LIG    1       -2.964  -1.650   0.466  0.00  0.00    +0.006 A 
ATOM     17  C   LIG    1       -3.728  -2.789   0.357  0.00  0.00    +0.000 A 
ATOM     18  C   LIG    1       -4.075  -3.204  -0.911  0.00  0.00    +0.000 A 
ATOM     19  C   LIG    1       -3.683  -2.522  -2.031  0.00  0.00    +0.000 A 
ATOM     20  C   LIG    1       -2.909  -1.372  -1.887  0.00  0.00    +0.006 A 
ENDBRANCH   4  15
BRANCH   1  21
ATOM     21  C   LIG    1        2.014   0.300   0.409  0.00  0.00    +0.118 C 
BRANCH  21  22
ATOM     22  C   LIG    1        2.599  -1.053   0.251  0.00  0.00    +0.022 C 
BRANCH  22  23
ATOM     23  C   LIG    1        3.940  -1.212   0.871  0.00  0.00    +0.031 C 
BRANCH  23  24
ATOM     24  CA  LIG    1        5.033  -0.323   0.363  0.00  0.00    +0.161 C 
BRANCH  24  25
ATOM     25  N   LIG    1        4.801   1.085   0.540  0.00  0.00    -0.318 NA
ATOM     26  H1  LIG    1        5.177   1.386   1.479  0.00  0.00    +0.119 HD
ATOM     27  H2  LIG    1        5.269   1.666  -0.188  0.00  0.00    +0.119 HD
ENDBRANCH  24  25
BRANCH  24  28
ATOM     28  C   LIG    1        6.359  -0.701   0.927  0.00  0.00    +0.322 C 
ATOM     29  OXT LIG    1        7.062   0.178   1.450  0.00  0.00    -0.249 OA
BRANCH  28  30
ATOM     30  O   LIG    1        6.823  -2.003   0.881  0.00  0.00    -0.480 OA
ATOM     31  H   LIG    1        7.258  -2.389   0.048  0.00  0.00    +0.295 HD
ENDBRANCH  28  30
ENDBRANCH  24  28
ENDBRANCH  23  24
ENDBRANCH  22  23
ENDBRANCH  21  22
ENDBRANCH   1  21
TORSDOF 9
