REMARK  Name = molecules/PAJMKGZZBBTTOY-ZFORQUDYSA-N.pdb
REMARK                            x       y       z     vdW  Elec       q    Type
REMARK                         _______ _______ _______ _____ _____    ______ ____
ROOT
ATOM      1  C   LIG    1        0.205   0.690  -0.080  0.00  0.00    +0.021 C 
ATOM      2  C   LIG    1        0.375   1.520   1.167  0.00  0.00    +0.118 C 
ATOM      3  C   LIG    1        1.840   1.278   1.475  0.00  0.00    +0.035 C 
ATOM      4  C   LIG    1        1.929  -0.220   1.271  0.00  0.00    -0.000 C 
ATOM      5  C   LIG    1        3.340  -0.699   1.112  0.00  0.00    +0.043 C 
ATOM      6  C   LIG    1        3.907  -0.447  -0.204  0.00  0.00    -0.002 A 
ATOM      7  C   LIG    1        5.239  -0.118  -0.329  0.00  0.00    +0.125 A 
ATOM      8  C   LIG    1        5.772   0.124  -1.580  0.00  0.00    +0.046 A 
ATOM      9  C   LIG    1        4.957   0.033  -2.717  0.00  0.00    +0.004 A 
ATOM     10  C   LIG    1        3.626  -0.297  -2.587  0.00  0.00    +0.004 A 
ATOM     11  C   LIG    1        3.101  -0.539  -1.309  0.00  0.00    -0.040 A 
ATOM     12  C   LIG    1        1.698  -0.894  -1.152  0.00  0.00    +0.039 C 
ATOM     13  C   LIG    1        1.035  -0.556   0.122  0.00  0.00    +0.002 C 
ENDROOT
BRANCH   2  14
ATOM     14  O   LIG    1        0.105   2.865   0.943  0.00  0.00    -0.391 OA
ATOM     15  H   LIG    1        0.185   3.328   1.810  0.00  0.00    +0.210 HD
ENDBRANCH   2  14
BRANCH   1  16
ATOM     16  C   LIG    1       -1.229   0.439  -0.429  0.00  0.00    +0.009 C 
BRANCH  16  17
ATOM     17  C   LIG    1       -2.001  -0.321   0.583  0.00  0.00    +0.032 C 
BRANCH  17  18
ATOM     18  C   LIG    1       -3.445  -0.527   0.120  0.00  0.00    +0.115 C 
BRANCH  18  19
ATOM     19  O   LIG    1       -4.063  -1.221   1.170  0.00  0.00    -0.392 OA
ATOM     20  H   LIG    1       -3.908  -2.196   1.114  0.00  0.00    +0.210 HD
ENDBRANCH  18  19
BRANCH  18  21
ATOM     21  C   LIG    1       -4.167   0.747  -0.107  0.00  0.00    +0.031 C 
BRANCH  21  22
ATOM     22  C   LIG    1       -5.578   0.586  -0.576  0.00  0.00    +0.002 C 
BRANCH  22  23
ATOM     23  C   LIG    1       -6.505  -0.150   0.323  0.00  0.00    -0.000 C 
BRANCH  23  24
ATOM     24  C   LIG    1       -7.901  -0.171  -0.335  0.00  0.00    -0.003 C 
ATOM     25  C   LIG    1       -8.842  -0.925   0.589  0.00  0.00    +0.004 C 
ENDBRANCH  23  24
ENDBRANCH  22  23
ENDBRANCH  21  22
ENDBRANCH  18  21
ENDBRANCH  17  18
ENDBRANCH  16  17
ENDBRANCH   1  16
BRANCH   7  26
ATOM     26  O   LIG    1        5.984  -0.043   0.829  0.00  0.00    -0.481 OA
BRANCH  26  27
ATOM     27  C   LIG    1        7.353   0.269   0.775  0.00  0.00    +0.349 C 
BRANCH  27  28
ATOM     28  C   LIG    1        8.135  -0.750   0.036  0.00  0.00    +0.343 C 
ATOM     29  O   LIG    1        7.572  -1.793  -0.392  0.00  0.00    -0.247 OA
BRANCH  28  30
ATOM     30  O   LIG    1        9.488  -0.622  -0.220  0.00  0.00    -0.478 OA
ATOM     31  H   LIG    1        9.903   0.062  -0.822  0.00  0.00    +0.295 HD
ENDBRANCH  28  30
ENDBRANCH  27  28
ENDBRANCH  26  27
ENDBRANCH   7  26
TORSDOF 13
