REMARK  Name = molecules/PAQZZCOZHPGCFW-UUELBBOTSA-N.pdb
REMARK                            x       y       z     vdW  Elec       q    Type
REMARK                         _______ _______ _______ _____ _____    ______ ____
ROOT
ATOM      1  C   LIG    1       -1.067   1.703   1.240  0.00  0.00    +0.117 C 
ENDROOT
BRANCH   1   2
ATOM      2  N   LIG    1       -0.738   2.047  -0.123  0.00  0.00    -0.311 NA
ATOM      3  H   LIG    1       -1.225   2.945  -0.344  0.00  0.00    +0.122 HD
BRANCH   2   4
ATOM      4  C   LIG    1        0.655   2.244  -0.349  0.00  0.00    +0.051 C 
ATOM      5  C   LIG    1        0.828   2.631  -1.815  0.00  0.00    +0.024 C 
BRANCH   4   6
ATOM      6  C   LIG    1        1.509   1.033  -0.111  0.00  0.00    +0.023 C 
BRANCH   6   7
ATOM      7  C   LIG    1        2.939   1.436  -0.399  0.00  0.00    +0.036 C 
BRANCH   7   8
ATOM      8  C   LIG    1        3.914   0.349  -0.211  0.00  0.00    -0.047 A 
ATOM      9  C   LIG    1        4.498   0.175   1.028  0.00  0.00    +0.007 A 
ATOM     10  C   LIG    1        5.424  -0.829   1.267  0.00  0.00    +0.046 A 
ATOM     11  C   LIG    1        5.801  -1.701   0.268  0.00  0.00    +0.120 A 
ATOM     12  C   LIG    1        5.208  -1.519  -0.975  0.00  0.00    +0.046 A 
ATOM     13  C   LIG    1        4.288  -0.521  -1.213  0.00  0.00    +0.007 A 
BRANCH  11  14
ATOM     14  O   LIG    1        6.717  -2.673   0.552  0.00  0.00    -0.495 OA
ATOM     15  C   LIG    1        7.222  -3.639  -0.308  0.00  0.00    +0.277 C 
ENDBRANCH  11  14
ENDBRANCH   7   8
ENDBRANCH   6   7
ENDBRANCH   4   6
ENDBRANCH   2   4
ENDBRANCH   1   2
BRANCH   1  16
ATOM     16  C   LIG    1       -2.530   1.515   1.438  0.00  0.00    +0.158 C 
BRANCH  16  17
ATOM     17  C   LIG    1       -3.145   0.442   0.667  0.00  0.00    -0.017 A 
ATOM     18  C   LIG    1       -4.524   0.387   0.578  0.00  0.00    +0.026 A 
ATOM     19  C   LIG    1       -5.169  -0.604  -0.135  0.00  0.00    +0.068 A 
ATOM     20  C   LIG    1       -4.393  -1.552  -0.766  0.00  0.00    +0.132 A 
ATOM     21  C   LIG    1       -3.007  -1.538  -0.706  0.00  0.00    +0.047 A 
ATOM     22  C   LIG    1       -2.394  -0.517   0.027  0.00  0.00    +0.010 A 
BRANCH  19  23
ATOM     23  S   LIG    1       -6.925  -0.727  -0.286  0.00  0.00    -0.011 S 
ATOM     24  C   LIG    1       -7.504  -1.726   1.104  0.00  0.00    +0.112 C 
ATOM     25  O   LIG    1       -7.517   0.679  -0.123  0.00  0.00    -0.157 OA
ENDBRANCH  19  23
BRANCH  20  26
ATOM     26  O   LIG    1       -5.003  -2.563  -1.493  0.00  0.00    -0.506 OA
ATOM     27  H   LIG    1       -6.017  -2.617  -1.567  0.00  0.00    +0.292 HD
ENDBRANCH  20  26
ENDBRANCH  16  17
BRANCH  16  28
ATOM     28  O   LIG    1       -3.165   2.725   1.108  0.00  0.00    -0.386 OA
ATOM     29  H   LIG    1       -3.164   3.330   1.892  0.00  0.00    +0.210 HD
ENDBRANCH  16  28
ENDBRANCH   1  16
TORSDOF 11
