REMARK  Name = molecules/PAZQYDJGLKSCSI-UHFFFAOYSA-N.pdb
REMARK                            x       y       z     vdW  Elec       q    Type
REMARK                         _______ _______ _______ _____ _____    ______ ____
ROOT
ATOM      1  C   LIG    1        0.991  -0.439   0.024  0.00  0.00    +0.144 C 
ATOM      2  C   LIG    1        1.356  -1.598   0.841  0.00  0.00    +0.240 C 
ATOM      3  O   LIG    1        0.652  -2.348   1.538  0.00  0.00    -0.274 OA
ATOM      4  N   LIG    1        2.780  -1.914   0.821  0.00  0.00    -0.239 N 
ATOM      5  H   LIG    1        3.171  -2.320   1.709  0.00  0.00    +0.159 HD
ATOM      6  C   LIG    1        3.568  -1.688  -0.345  0.00  0.00    +0.312 C 
ATOM      7  O   LIG    1        4.788  -1.964  -0.353  0.00  0.00    -0.252 OA
ATOM      8  N   LIG    1        2.868  -1.139  -1.460  0.00  0.00    -0.239 N 
ATOM      9  H   LIG    1        3.407  -0.966  -2.364  0.00  0.00    +0.159 HD
ATOM     10  C   LIG    1        1.473  -0.849  -1.367  0.00  0.00    +0.240 C 
ATOM     11  O   LIG    1        0.738  -0.932  -2.351  0.00  0.00    -0.274 OA
ENDROOT
BRANCH   1  12
ATOM     12  C   LIG    1       -0.375   0.046   0.037  0.00  0.00    -0.050 C 
ATOM     13  C   LIG    1       -1.183  -0.299   1.020  0.00  0.00    -0.026 C 
ATOM     14  C   LIG    1       -2.631   0.026   1.322  0.00  0.00    +0.027 C 
ATOM     15  C   LIG    1       -3.228   0.899   0.262  0.00  0.00    +0.004 C 
ATOM     16  C   LIG    1       -3.119   0.123  -1.051  0.00  0.00    +0.001 C 
ATOM     17  C   LIG    1       -1.936   0.608  -1.859  0.00  0.00    +0.004 C 
ATOM     18  C   LIG    1       -0.746   0.990  -1.053  0.00  0.00    +0.032 C 
ENDBRANCH   1  12
BRANCH   1  19
ATOM     19  C   LIG    1        1.883   0.777   0.330  0.00  0.00    +0.026 C 
ATOM     20  C   LIG    1        1.763   1.182   1.774  0.00  0.00    +0.005 C 
ENDBRANCH   1  19
TORSDOF 2
