REMARK  Name = molecules/PBCZLFBEBARBBI-UHFFFAOYSA-N.pdb
REMARK                            x       y       z     vdW  Elec       q    Type
REMARK                         _______ _______ _______ _____ _____    ______ ____
ROOT
ATOM      1  S   LIG    1        0.671   1.601   0.695  0.00  0.00    +0.075 S 
ATOM      2  O   LIG    1        0.703   1.940   2.176  0.00  0.00    -0.150 OA
ATOM      3  O   LIG    1        0.556   2.913  -0.043  0.00  0.00    -0.150 OA
ENDROOT
BRANCH   1   4
ATOM      4  C   LIG    1        2.190   0.827   0.307  0.00  0.00    +0.109 A 
ATOM      5  C   LIG    1        2.872   0.173   1.291  0.00  0.00    +0.030 A 
ATOM      6  C   LIG    1        4.082  -0.480   1.034  0.00  0.00    +0.024 A 
ATOM      7  C   LIG    1        4.623  -0.477  -0.237  0.00  0.00    +0.025 A 
ATOM      8  C   LIG    1        3.901   0.200  -1.215  0.00  0.00    +0.024 A 
ATOM      9  C   LIG    1        2.718   0.838  -0.963  0.00  0.00    +0.030 A 
BRANCH   7  10
ATOM     10  N   LIG    1        5.847  -1.135  -0.524  0.00  0.00    -0.358 N 
ATOM     11  H   LIG    1        6.194  -1.853   0.142  0.00  0.00    +0.142 HD
ATOM     12  H   LIG    1        6.415  -0.935  -1.370  0.00  0.00    +0.142 HD
ENDBRANCH   7  10
ENDBRANCH   1   4
BRANCH   1  13
ATOM     13  N   LIG    1       -0.654   0.560   0.428  0.00  0.00    -0.181 N 
ATOM     14  C   LIG    1       -1.966   1.077   0.420  0.00  0.00    +0.263 C 
ATOM     15  O   LIG    1       -2.181   2.309   0.613  0.00  0.00    -0.269 OA
ATOM     16  H   LIG    1       -0.500  -0.449   0.273  0.00  0.00    +0.177 HD
BRANCH  14  17
ATOM     17  C   LIG    1       -3.113   0.203   0.188  0.00  0.00    +0.038 A 
ATOM     18  C   LIG    1       -4.403   0.722   0.289  0.00  0.00    +0.013 A 
ATOM     19  C   LIG    1       -5.523  -0.025   0.088  0.00  0.00    +0.001 A 
ATOM     20  C   LIG    1       -5.429  -1.361  -0.233  0.00  0.00    +0.000 A 
ATOM     21  C   LIG    1       -4.170  -1.907  -0.342  0.00  0.00    +0.001 A 
ATOM     22  C   LIG    1       -3.027  -1.123  -0.131  0.00  0.00    +0.013 A 
ENDBRANCH  14  17
ENDBRANCH   1  13
TORSDOF 4
