REMARK  Name = molecules/PBJUNZJWGZTSKL-MRXNPFEDSA-N.pdb
REMARK                            x       y       z     vdW  Elec       q    Type
REMARK                         _______ _______ _______ _____ _____    ______ ____
ROOT
ATOM      1  C   LIG    1       -2.209  -0.457   0.138  0.00  0.00    -0.001 C 
ATOM      2  C   LIG    1       -1.207  -0.772  -0.585  0.00  0.00    -0.016 C 
ENDROOT
BRANCH   1   3
ATOM      3  C   LIG    1       -2.328   0.816   0.891  0.00  0.00    +0.023 A 
ATOM      4  S   LIG    1       -2.986   0.818   2.515  0.00  0.00    -0.096 S 
ATOM      5  C   LIG    1       -2.703   2.444   2.912  0.00  0.00    +0.046 A 
ATOM      6  C   LIG    1       -2.115   2.941   1.787  0.00  0.00    +0.011 A 
ATOM      7  C   LIG    1       -1.932   2.081   0.750  0.00  0.00    -0.036 A 
ATOM      8  C   LIG    1       -1.417   2.634  -0.585  0.00  0.00    +0.045 C 
ENDBRANCH   1   3
BRANCH   1   9
ATOM      9  C   LIG    1       -3.495  -1.218   0.150  0.00  0.00    +0.023 A 
ATOM     10  S   LIG    1       -4.800  -0.893   1.252  0.00  0.00    -0.096 S 
ATOM     11  C   LIG    1       -5.884  -2.107   0.768  0.00  0.00    +0.046 A 
ATOM     12  C   LIG    1       -5.200  -2.731  -0.238  0.00  0.00    +0.011 A 
ATOM     13  C   LIG    1       -3.963  -2.264  -0.553  0.00  0.00    -0.036 A 
ATOM     14  C   LIG    1       -3.174  -2.917  -1.687  0.00  0.00    +0.045 C 
ENDBRANCH   1   9
BRANCH   2  15
ATOM     15  C   LIG    1        0.079   0.024  -0.539  0.00  0.00    +0.043 C 
BRANCH  15  16
ATOM     16  C   LIG    1        1.145  -1.073  -0.277  0.00  0.00    +0.088 C 
BRANCH  16  17
ATOM     17  N   LIG    1        2.419  -0.453  -0.231  0.00  0.00    -0.301 NA
ATOM     18  C   LIG    1        2.666   0.404   0.900  0.00  0.00    +0.099 C 
ATOM     19  C   LIG    1        3.813   1.337   0.489  0.00  0.00    +0.112 C 
ATOM     20  C   LIG    1        5.045   0.436   0.407  0.00  0.00    +0.017 C 
ATOM     21  C   LIG    1        4.793  -0.711  -0.545  0.00  0.00    +0.016 C 
ATOM     22  C   LIG    1        3.506  -1.425  -0.249  0.00  0.00    +0.084 C 
BRANCH  19  23
ATOM     23  C   LIG    1        3.475   1.908  -0.816  0.00  0.00    +0.309 C 
ATOM     24  O   LIG    1        4.162   1.754  -1.858  0.00  0.00    -0.251 OA
BRANCH  23  25
ATOM     25  O   LIG    1        2.331   2.672  -0.937  0.00  0.00    -0.480 OA
ATOM     26  H   LIG    1        1.696   2.579  -1.740  0.00  0.00    +0.295 HD
ENDBRANCH  23  25
ENDBRANCH  19  23
ENDBRANCH  16  17
ENDBRANCH  15  16
ENDBRANCH   2  15
TORSDOF 7
