REMARK  Name = molecules/PBKZPPIHUVSDNM-WNHSNXHDSA-N.pdb
REMARK                            x       y       z     vdW  Elec       q    Type
REMARK                         _______ _______ _______ _____ _____    ______ ____
ROOT
ATOM      1  C   LIG    1        1.468  -1.337   1.688  0.00  0.00    +0.014 C 
ATOM      2  C   LIG    1        1.407  -0.297   0.628  0.00  0.00    +0.000 C 
ATOM      3  C   LIG    1        0.746   0.988   1.002  0.00  0.00    +0.010 C 
ATOM      4  C   LIG    1       -0.737   0.741   1.237  0.00  0.00    +0.005 C 
ATOM      5  C   LIG    1       -1.385   0.137   0.003  0.00  0.00    +0.006 C 
ATOM      6  C   LIG    1       -2.860   0.052   0.093  0.00  0.00    -0.003 C 
ATOM      7  C   LIG    1       -3.444  -0.197   1.444  0.00  0.00    +0.016 C 
ATOM      8  C   LIG    1       -3.444   1.370  -0.426  0.00  0.00    +0.019 C 
ATOM      9  C   LIG    1       -4.946   1.411  -0.239  0.00  0.00    +0.080 C 
ATOM     10  C   LIG    1       -5.553   0.066  -0.374  0.00  0.00    +0.156 C 
ATOM     11  O   LIG    1       -6.692  -0.157   0.032  0.00  0.00    -0.293 OA
ATOM     12  C   LIG    1       -4.721  -0.965  -1.012  0.00  0.00    +0.050 C 
ATOM     13  C   LIG    1       -3.418  -1.008  -0.813  0.00  0.00    -0.038 C 
ATOM     14  C   LIG    1       -2.589  -2.014  -1.445  0.00  0.00    +0.000 C 
ATOM     15  C   LIG    1       -1.300  -2.090  -1.171  0.00  0.00    -0.023 C 
ATOM     16  C   LIG    1       -0.680  -1.173  -0.232  0.00  0.00    +0.019 C 
ATOM     17  C   LIG    1        2.807  -0.107   0.084  0.00  0.00    +0.072 C 
ATOM     18  C   LIG    1        3.002  -1.285  -0.824  0.00  0.00    +0.035 C 
ATOM     19  C   LIG    1        1.604  -1.863  -1.101  0.00  0.00    +0.007 C 
ATOM     20  C   LIG    1        0.719  -0.789  -0.639  0.00  0.00    +0.005 C 
ENDROOT
BRANCH  17  21
ATOM     21  O   LIG    1        3.668  -0.192   1.186  0.00  0.00    -0.388 OA
ATOM     22  H   LIG    1        3.255   0.393   1.900  0.00  0.00    +0.210 HD
ENDBRANCH  17  21
BRANCH  17  23
ATOM     23  C   LIG    1        3.028   1.197  -0.597  0.00  0.00    +0.046 C 
BRANCH  23  24
ATOM     24  C   LIG    1        4.461   1.259  -1.088  0.00  0.00    +0.123 C 
BRANCH  24  25
ATOM     25  C   LIG    1        5.434   1.139   0.020  0.00  0.00    +0.305 C 
ATOM     26  O   LIG    1        5.292   1.920   1.004  0.00  0.00    -0.251 OA
BRANCH  25  27
ATOM     27  O   LIG    1        6.486   0.238   0.061  0.00  0.00    -0.481 OA
ATOM     28  H   LIG    1        6.800  -0.210   0.920  0.00  0.00    +0.295 HD
ENDBRANCH  25  27
ENDBRANCH  24  25
ENDBRANCH  23  24
ENDBRANCH  17  23
TORSDOF 5
