REMARK  Name = molecules/PBVFROWIWWGIFK-KWCOIAHCSA-N.pdb
REMARK                            x       y       z     vdW  Elec       q    Type
REMARK                         _______ _______ _______ _____ _____    ______ ____
ROOT
ATOM      1  N   LIG    1       -0.523   0.236  -0.081  0.00  0.00    +0.397 N 
ATOM      2  C   LIG    1       -1.037  -0.296   1.154  0.00  0.00    -0.088 C 
ATOM      3  C   LIG    1       -1.058   1.588  -0.211  0.00  0.00    -0.088 C 
ENDROOT
BRANCH   1   5
ATOM      4  F   LIG    1        0.102  -1.007  -1.969  0.00  0.00    -0.269 F 
ATOM      5  C   LIG    1       -0.980  -0.550  -1.225  0.00  0.00    +0.143 C 
ENDBRANCH   1   5
BRANCH   1   6
ATOM      6  C   LIG    1        0.915   0.347  -0.095  0.00  0.00    -0.044 C 
BRANCH   6   7
ATOM      7  C   LIG    1        1.595  -0.861   0.505  0.00  0.00    +0.138 C 
BRANCH   7   8
ATOM      8  O   LIG    1        2.977  -0.616   0.424  0.00  0.00    -0.397 OA
ATOM      9  H   LIG    1        3.350  -1.171  -0.308  0.00  0.00    +0.209 HD
ENDBRANCH   7   8
ENDBRANCH   6   7
ENDBRANCH   1   6
TORSDOF 4
