REMARK  Name = molecules/PCLITLDOTJTVDJ-UHFFFAOYSA-N.pdb
REMARK                            x       y       z     vdW  Elec       q    Type
REMARK                         _______ _______ _______ _____ _____    ______ ____
ROOT
ATOM      1  C   LIG    1       -1.283  -1.432  -0.342  0.00  0.00    +0.066 C 
ATOM      2  C   LIG    1       -1.154   0.048  -0.033  0.00  0.00    +0.049 A 
ATOM      3  N   LIG    1       -2.183   0.721   0.385  0.00  0.00    -0.252 NA
ATOM      4  C   LIG    1       -2.077   1.998   0.644  0.00  0.00    +0.156 A 
ATOM      5  S   LIG    1       -0.439   2.317   0.291  0.00  0.00    -0.080 S 
ATOM      6  C   LIG    1        0.029   0.723  -0.188  0.00  0.00    +0.013 A 
ENDROOT
BRANCH   6   7
ATOM      7  C   LIG    1        1.368   0.259  -0.635  0.00  0.00    +0.060 C 
BRANCH   7   8
ATOM      8  C   LIG    1        2.032  -0.489   0.514  0.00  0.00    +0.114 C 
ATOM      9 CL   LIG    1        3.642  -1.036  -0.032  0.00  0.00    -0.125 Cl
ENDBRANCH   7   8
ENDBRANCH   6   7
TORSDOF 2
