REMARK  Name = molecules/PCSWXVJAIHCTMO-UHFFFAOYSA-P.pdb
REMARK                            x       y       z     vdW  Elec       q    Type
REMARK                         _______ _______ _______ _____ _____    ______ ____
ROOT
ATOM      1  C   LIG    1       -0.622  -0.058  -1.241  0.00  0.00    +0.000 C 
ENDROOT
BRANCH   1   2
ATOM      2  C   LIG    1       -1.115   1.060  -2.049  0.00  0.00    +0.000 C 
BRANCH   2   3
ATOM      3  C   LIG    1       -2.073   2.056  -1.554  0.00  0.00    +0.002 C 
BRANCH   3   4
ATOM      4  C   LIG    1       -3.401   1.624  -1.147  0.00  0.00    +0.022 C 
BRANCH   4   5
ATOM      5  C   LIG    1       -3.436   0.739   0.056  0.00  0.00    +0.122 C 
BRANCH   5   6
ATOM      6  N   LIG    1       -4.797   0.373   0.417  0.00  0.00    -0.344 N 
ATOM      7  C   LIG    1       -5.373   1.191   1.341  0.00  0.00    +0.018 A 
ATOM      8  C   LIG    1       -4.678   2.348   1.908  0.00  0.00    +0.063 C 
ATOM      9  C   LIG    1       -6.658   0.862   1.720  0.00  0.00    +0.044 A 
ATOM     10  C   LIG    1       -7.325  -0.218   1.208  0.00  0.00    +0.032 A 
ATOM     11  C   LIG    1       -6.664  -0.992   0.277  0.00  0.00    +0.004 A 
ATOM     12  C   LIG    1       -7.289  -2.098  -0.282  0.00  0.00    +0.057 C 
ATOM     13  C   LIG    1       -6.629  -2.859  -1.210  0.00  0.00    -0.018 C 
ATOM     14  C   LIG    1       -5.346  -2.565  -1.616  0.00  0.00    -0.002 C 
ATOM     15  C   LIG    1       -4.728  -1.478  -1.069  0.00  0.00    +0.026 C 
ATOM     16  C   LIG    1       -5.359  -0.691  -0.135  0.00  0.00    +0.048 A 
BRANCH  10  17
ATOM     17  N   LIG    1       -8.662  -0.562   1.602  0.00  0.00    -0.358 N 
ATOM     18  H   LIG    1       -8.974  -0.606   2.581  0.00  0.00    +0.142 HD
ATOM     19  H   LIG    1       -9.370  -0.783   0.858  0.00  0.00    +0.142 HD
ENDBRANCH  10  17
ENDBRANCH   5   6
ENDBRANCH   4   5
ENDBRANCH   3   4
ENDBRANCH   2   3
ENDBRANCH   1   2
BRANCH   1  20
ATOM     20  C   LIG    1        0.053   0.310   0.063  0.00  0.00    +0.000 C 
BRANCH  20  21
ATOM     21  C   LIG    1        0.515  -0.903   0.819  0.00  0.00    +0.000 C 
BRANCH  21  22
ATOM     22  C   LIG    1        1.498  -1.755   0.095  0.00  0.00    +0.002 C 
BRANCH  22  23
ATOM     23  C   LIG    1        2.788  -1.080  -0.269  0.00  0.00    +0.019 C 
BRANCH  23  24
ATOM     24  C   LIG    1        3.542  -0.579   0.935  0.00  0.00    +0.110 C 
BRANCH  24  25
ATOM     25  N   LIG    1        4.806   0.049   0.594  0.00  0.00    -0.307 N 
ATOM     26  C   LIG    1        5.948  -0.685   0.487  0.00  0.00    +0.020 C 
ATOM     27  C   LIG    1        5.928  -2.053   0.677  0.00  0.00    +0.068 C 
ATOM     28  C   LIG    1        7.071  -2.842   0.574  0.00  0.00    -0.020 C 
ATOM     29  C   LIG    1        8.270  -2.251   0.272  0.00  0.00    -0.022 C 
ATOM     30  C   LIG    1        8.336  -0.892   0.074  0.00  0.00    +0.052 C 
ATOM     31  C   LIG    1        7.175  -0.142   0.186  0.00  0.00    -0.018 C 
ATOM     32  C   LIG    1        7.281   1.229  -0.026  0.00  0.00    +0.086 C 
ATOM     33  C   LIG    1        6.128   1.965   0.082  0.00  0.00    +0.020 C 
ATOM     34  C   LIG    1        4.912   1.384   0.387  0.00  0.00    +0.006 C 
ATOM     35  C   LIG    1        3.695   2.248   0.486  0.00  0.00    +0.060 C 
BRANCH  32  36
ATOM     36  N   LIG    1        8.543   1.790  -0.336  0.00  0.00    -0.316 NA
ATOM     37  H   LIG    1        9.334   1.612   0.316  0.00  0.00    +0.119 HD
ATOM     38  H   LIG    1        8.629   2.357  -1.202  0.00  0.00    +0.119 HD
ENDBRANCH  32  36
ENDBRANCH  24  25
ENDBRANCH  23  24
ENDBRANCH  22  23
ENDBRANCH  21  22
ENDBRANCH  20  21
ENDBRANCH   1  20
TORSDOF 13
