REMARK  Name = molecules/PDSVTRQOBUIQBQ-OAHLLOKOSA-N.pdb
REMARK                            x       y       z     vdW  Elec       q    Type
REMARK                         _______ _______ _______ _____ _____    ______ ____
ROOT
ATOM      1  N   LIG    1       -1.514   0.039  -0.461  0.00  0.00    -0.300 N 
ATOM      2  C   LIG    1       -2.249  -1.163  -0.267  0.00  0.00    +0.048 A 
ATOM      3  C   LIG    1       -3.553  -1.228   0.128  0.00  0.00    +0.034 A 
ATOM      4  S   LIG    1       -4.469   0.273   0.464  0.00  0.00    -0.086 S 
ATOM      5  C   LIG    1       -3.310   1.594   0.120  0.00  0.00    +0.034 C 
ATOM      6  C   LIG    1       -3.814   2.848   0.299  0.00  0.00    +0.013 C 
ATOM      7  C   LIG    1       -3.017   3.940   0.079  0.00  0.00    -0.017 C 
ATOM      8  C   LIG    1       -1.722   3.767  -0.317  0.00  0.00    +0.047 C 
ATOM      9  C   LIG    1       -1.241   2.473  -0.489  0.00  0.00    +0.006 C 
ATOM     10  C   LIG    1       -4.210  -2.397   0.274  0.00  0.00    +0.017 A 
ATOM     11  C   LIG    1       -3.602  -3.599   0.033  0.00  0.00    +0.001 A 
ATOM     12  C   LIG    1       -2.293  -3.602  -0.367  0.00  0.00    +0.002 A 
ATOM     13  C   LIG    1       -1.617  -2.397  -0.518  0.00  0.00    +0.024 A 
ATOM     14  C   LIG    1       -2.042   1.338  -0.270  0.00  0.00    +0.044 C 
ENDROOT
BRANCH   1  15
ATOM     15  C   LIG    1       -0.101  -0.035  -0.845  0.00  0.00    +0.096 C 
BRANCH  15  16
ATOM     16  C   LIG    1        0.839   0.006   0.325  0.00  0.00    -0.051 C 
ATOM     17  C   LIG    1        0.476  -1.008   1.355  0.00  0.00    -0.011 C 
BRANCH  16  18
ATOM     18  N   LIG    1        2.228  -0.102  -0.102  0.00  0.00    +0.381 N 
ATOM     19  C   LIG    1        2.628  -1.494  -0.220  0.00  0.00    -0.092 C 
ATOM     20  C   LIG    1        2.377   0.553  -1.366  0.00  0.00    -0.092 C 
BRANCH  18  21
ATOM     21  C   LIG    1        3.075   0.514   0.871  0.00  0.00    -0.047 C 
BRANCH  21  22
ATOM     22  C   LIG    1        4.400   0.984   0.373  0.00  0.00    +0.138 C 
BRANCH  22  23
ATOM     23  O   LIG    1        5.134  -0.055  -0.136  0.00  0.00    -0.397 OA
ATOM     24  H   LIG    1        6.080   0.059   0.074  0.00  0.00    +0.209 HD
ENDBRANCH  22  23
ENDBRANCH  21  22
ENDBRANCH  18  21
ENDBRANCH  16  18
ENDBRANCH  15  16
ENDBRANCH   1  15
TORSDOF 6
