REMARK  Name = molecules/PDWUPXJEEYOOTR-JRGAVVOBSA-N.pdb
REMARK                            x       y       z     vdW  Elec       q    Type
REMARK                         _______ _______ _______ _____ _____    ______ ____
ROOT
ATOM      1  C   LIG    1        0.639   0.451  -0.436  0.00  0.00    +0.231 C 
ENDROOT
BRANCH   1   2
ATOM      2  C   LIG    1       -0.781   0.200  -0.216  0.00  0.00    -0.013 A 
ATOM      3  C   LIG    1       -1.295  -0.647   0.722  0.00  0.00    +0.021 A 
ATOM      4  C   LIG    1       -2.666  -0.818   0.853  0.00  0.00    +0.014 A 
ATOM      5  I   LIG    1       -3.441  -2.118   2.292  0.00  0.00    -0.044 I 
ATOM      6  C   LIG    1       -3.515  -0.112   0.013  0.00  0.00    +0.014 A 
ATOM      7  C   LIG    1       -3.024   0.749  -0.941  0.00  0.00    +0.001 A 
ATOM      8  C   LIG    1       -1.667   0.892  -1.041  0.00  0.00    +0.007 A 
ENDBRANCH   1   2
BRANCH   1   9
ATOM      9  N   LIG    1        1.547  -0.250   0.401  0.00  0.00    -0.272 N 
ATOM     10  H   LIG    1        1.347  -0.922   1.155  0.00  0.00    +0.258 HD
BRANCH   9  11
ATOM     11  C   LIG    1        2.950   0.009   0.171  0.00  0.00    +0.376 C 
ATOM     12  N   LIG    1        3.859  -1.057   0.001  0.00  0.00    -0.289 N 
ATOM     13  H   LIG    1        4.631  -1.214   0.669  0.00  0.00    +0.255 HD
ATOM     14  H   LIG    1        3.753  -1.695  -0.804  0.00  0.00    +0.255 HD
BRANCH  11  15
ATOM     15  N   LIG    1        3.419   1.210   0.114  0.00  0.00    -0.130 NA
ATOM     16  H   LIG    1        2.738   1.991   0.241  0.00  0.00    +0.306 HD
ENDBRANCH  11  15
ENDBRANCH   9  11
ENDBRANCH   1   9
TORSDOF 4
