REMARK  Name = molecules/PEASPLKKXBYDKL-FXEVSJAOSA-N.pdb
REMARK                            x       y       z     vdW  Elec       q    Type
REMARK                         _______ _______ _______ _____ _____    ______ ____
ROOT
ATOM      1  C   LIG    1       90.392  49.450   0.000  0.00  0.00    +0.163 C 
ENDROOT
BRANCH   1   4
ATOM      2  C   LIG    1       92.933  49.990   0.000  0.00  0.00    +0.054 C 
ATOM      3  C   LIG    1       94.359  49.527   0.000  0.00  0.00    +0.067 C 
ATOM      4  N   LIG    1       91.818  48.987   0.000  0.00  0.00    -0.277 NA
ENDBRANCH   1   4
BRANCH   1   5
ATOM      5  C   LIG    1       89.928  48.024   0.000  0.00  0.00    +0.084 C 
ATOM      6  N   LIG    1       88.461  47.712   0.000  0.00  0.00    -0.277 NA
BRANCH   6   7
ATOM      7  C   LIG    1       87.997  46.285   0.000  0.00  0.00    +0.151 C 
ATOM      8  C   LIG    1       86.571  46.749   0.000  0.00  0.00    +0.023 C 
BRANCH   7   9
ATOM      9  C   LIG    1       89.424  45.822   0.000  0.00  0.00    +0.158 C 
ATOM     10  C   LIG    1       90.850  45.358   0.000  0.00  0.00    +0.050 C 
ATOM     11  O   LIG    1       88.960  44.395   0.000  0.00  0.00    -0.222 OA
ENDBRANCH   7   9
ENDBRANCH   6   7
ENDBRANCH   1   5
BRANCH   1  12
ATOM     12  C   LIG    1       90.855  50.877   0.000  0.00  0.00    +0.057 C 
BRANCH  12  13
ATOM     13  C   LIG    1       91.319  52.303   0.000  0.00  0.00    -0.035 C 
ATOM     14  C   LIG    1       90.315  53.418   0.000  0.00  0.00    -0.012 C 
ATOM     15  C   LIG    1       90.778  54.845   0.000  0.00  0.00    +0.096 C 
ATOM     16  C   LIG    1       92.246  55.157   0.000  0.00  0.00    +0.163 C 
ATOM     17  O   LIG    1       92.709  56.583   0.000  0.00  0.00    -0.292 OA
ATOM     18  C   LIG    1       93.249  54.042   0.000  0.00  0.00    +0.055 C 
ATOM     19  C   LIG    1       92.786  52.615   0.000  0.00  0.00    +0.167 C 
BRANCH  19  20
ATOM     20  O   LIG    1       92.621  51.458   0.000  0.00  0.00    -0.383 OA
ATOM     21  H   LIG    1       92.352  50.772   0.000  0.00  0.00    +0.211 HD
ENDBRANCH  19  20
ENDBRANCH  12  13
ENDBRANCH   1  12
TORSDOF 7
REMARK  Name = molecules/PEASPLKKXBYDKL-FXEVSJAOSA-N.pdb
REMARK                            x       y       z     vdW  Elec       q    Type
REMARK                         _______ _______ _______ _____ _____    ______ ____
ROOT
ATOM      1  N   GLY A  1       85.456  45.745   0.000  0.00  0.00    -0.134 NA
ATOM      2  CA  GLY A  1       84.029  46.209   0.000  0.00  0.00    +0.160 C 
ATOM      3  C   GLY A  1       84.493  47.635   0.000  0.00  0.00    +0.269 C 
ATOM      4  O   GLY A  1       84.957  49.062   0.000  0.00  0.00    -0.295 OA
ENDROOT
TORSDOF 0
REMARK  Name = molecules/PEASPLKKXBYDKL-FXEVSJAOSA-N.pdb
REMARK                            x       y       z     vdW  Elec       q    Type
REMARK                         _______ _______ _______ _____ _____    ______ ____
ROOT
ATOM      1  N   LIG    1       82.099  44.470   0.000  0.00  0.00    -0.163 NA
ATOM      2  H   LIG    1       82.461  43.727   0.000  0.00  0.00    +0.163 HD
ENDROOT
TORSDOF 0
REMARK  Name = molecules/PEASPLKKXBYDKL-FXEVSJAOSA-N.pdb
REMARK                            x       y       z     vdW  Elec       q    Type
REMARK                         _______ _______ _______ _____ _____    ______ ____
ROOT
ATOM      1  N   LIG    1       79.094  42.503   0.000  0.00  0.00    -0.273 NA
ATOM      2  H   LIG    1       79.522  41.245   0.000  0.00  0.00    +0.137 HD
ATOM      3  H   LIG    1       80.350  42.107   0.000  0.00  0.00    +0.137 HD
ENDROOT
TORSDOF 0
REMARK  Name = molecules/PEASPLKKXBYDKL-FXEVSJAOSA-N.pdb
REMARK                            x       y       z     vdW  Elec       q    Type
REMARK                         _______ _______ _______ _____ _____    ______ ____
ROOT
ATOM      1  N   LIG    1       75.737  41.228   0.000  0.00  0.00    -0.129 NA
ATOM      2  C   LIG    1       75.273  39.802   0.000  0.00  0.00    +0.168 C 
ENDROOT
BRANCH   2   3
ATOM      3  C   ACE A  0       73.846  40.265   0.000  0.00  0.00    +0.083 C 
ATOM      4  N   LIG    1       72.732  39.262   0.000  0.00  0.00    -0.278 NA
BRANCH   4   5
ATOM      5  CA  LIG    1       71.305  39.725   0.000  0.00  0.00    +0.148 C 
ATOM      6  CB  LIG    1       70.842  38.299   0.000  0.00  0.00    +0.022 C 
BRANCH   5   7
ATOM      7  C   LIG    1       71.769  41.152   0.000  0.00  0.00    +0.215 C 
ATOM      8  O   LIG    1       72.232  42.578   0.000  0.00  0.00    -0.226 OA
ENDBRANCH   5   7
ENDBRANCH   4   5
ENDBRANCH   2   3
BRANCH   2   9
ATOM      9  C   LIG    1       76.700  39.338   0.000  0.00  0.00    +0.028 C 
ATOM     10  C   LIG    1       78.126  38.875   0.000  0.00  0.00    +0.076 C 
BRANCH  10  11
ATOM     11  N   LIG    1       78.590  37.448   0.000  0.00  0.00    -0.200 NA
BRANCH  11  12
ATOM     12  C   LIG    1       80.090  37.448   0.000  0.00  0.00    +0.232 C 
ATOM     13  N   LIG    1       80.553  38.875   0.000  0.00  0.00    -0.139 NA
ENDBRANCH  11  12
ENDBRANCH  10  11
ENDBRANCH   2   9
TORSDOF 6
REMARK  Name = molecules/PEASPLKKXBYDKL-FXEVSJAOSA-N.pdb
REMARK                            x       y       z     vdW  Elec       q    Type
REMARK                         _______ _______ _______ _____ _____    ______ ____
ROOT
ATOM      1  C   LIG    1       64.943  36.483   0.000  0.00  0.00    +0.011 C 
ATOM      2  C   LIG    1       64.479  35.057   0.000  0.00  0.00    +0.085 C 
ENDROOT
BRANCH   2   3
ATOM      3  N   LIG    1       63.012  34.745   0.000  0.00  0.00    -0.258 NA
ATOM      4  C   LIG    1       62.549  33.319   0.000  0.00  0.00    +0.089 C 
BRANCH   4   5
ATOM      5  C   LIG    1       63.975  32.855   0.000  0.00  0.00    +0.050 C 
BRANCH   5   6
ATOM      6  C   LIG    1       65.402  32.391   0.000  0.00  0.00    +0.134 C 
BRANCH   6   7
ATOM      7  C   LIG    1       66.828  31.928   0.000  0.00  0.00    +0.357 C 
ATOM      8  O   LIG    1       67.140  30.461   0.000  0.00  0.00    -0.246 OA
ATOM      9  O   LIG    1       67.943  32.932   0.000  0.00  0.00    -0.246 OA
ENDBRANCH   6   7
ENDBRANCH   5   6
ENDBRANCH   4   5
ENDBRANCH   2   3
BRANCH   1  10
ATOM     10  C   LIG    1       65.406  37.910   0.000  0.00  0.00    +0.047 C 
BRANCH  10  12
ATOM     11  C   LIG    1       67.484  37.024   0.000  0.00  0.00    -0.005 C 
ATOM     12  C   LIG    1       66.833  37.447   0.000  0.00  0.00    -0.021 C 
BRANCH  11  13
ATOM     13  C   LIG    1       68.260  36.983   0.000  0.00  0.00    +0.078 C 
ATOM     14  C   LIG    1       68.911  36.560   0.000  0.00  0.00    +0.028 C 
BRANCH  13  15
ATOM     15  N   LIG    1       69.374  37.987   0.000  0.00  0.00    -0.243 NA
ATOM     16  H   LIG    1       69.737  37.244   0.000  0.00  0.00    +0.142 HD
ENDBRANCH  13  15
ENDBRANCH  11  13
ENDBRANCH  10  12
ENDBRANCH   1  10
TORSDOF 8
REMARK  Name = molecules/PEASPLKKXBYDKL-FXEVSJAOSA-N.pdb
REMARK                            x       y       z     vdW  Elec       q    Type
REMARK                         _______ _______ _______ _____ _____    ______ ____
ROOT
ATOM      1  N   LIG    1       66.370  36.020   0.000  0.00  0.00    -0.163 NA
ATOM      2  H   LIG    1       67.626  35.624   0.000  0.00  0.00    +0.163 HD
ENDROOT
TORSDOF 0
REMARK  Name = molecules/PEASPLKKXBYDKL-FXEVSJAOSA-N.pdb
REMARK                            x       y       z     vdW  Elec       q    Type
REMARK                         _______ _______ _______ _____ _____    ______ ____
ROOT
ATOM      1  C   LIG    1       59.508  36.095   0.000  0.00  0.00    +0.153 C 
ENDROOT
BRANCH   1   4
ATOM      2  N   LIG    1       60.007  32.778   0.000  0.00  0.00    -0.138 NA
ATOM      3  C   LIG    1       58.581  33.242   0.000  0.00  0.00    +0.114 C 
ATOM      4  C   LIG    1       59.044  34.668   0.000  0.00  0.00    +0.003 C 
ENDBRANCH   1   4
BRANCH   1   5
ATOM      5  C   LIG    1       59.971  37.522   0.000  0.00  0.00    +0.360 C 
ATOM      6  O   LIG    1       61.439  37.834   0.000  0.00  0.00    -0.246 OA
ATOM      7  O   LIG    1       58.968  38.636   0.000  0.00  0.00    -0.246 OA
ENDBRANCH   1   5
TORSDOF 2
REMARK  Name = molecules/PEASPLKKXBYDKL-FXEVSJAOSA-N.pdb
REMARK                            x       y       z     vdW  Elec       q    Type
REMARK                         _______ _______ _______ _____ _____    ______ ____
ROOT
ATOM      1  C   LIG    1       52.219  30.000   0.000  0.00  0.00    +0.159 C 
ENDROOT
BRANCH   1   3
ATOM      2  C   LIG    1       54.760  30.540   0.000  0.00  0.00    +0.082 C 
ATOM      3  N   LIG    1       53.645  29.537   0.000  0.00  0.00    -0.275 NA
BRANCH   2   5
ATOM      4  N   LIG    1       56.650  31.503   0.000  0.00  0.00    -0.130 NA
ATOM      5  CA  LIG    1       56.187  30.077   0.000  0.00  0.00    +0.177 C 
BRANCH   5   6
ATOM      6  C   LIG    1       57.613  29.613   0.000  0.00  0.00    +0.216 C 
ATOM      7  O   LIG    1       59.040  29.150   0.000  0.00  0.00    -0.226 OA
ENDBRANCH   5   6
ENDBRANCH   2   5
ENDBRANCH   1   3
BRANCH   1   8
ATOM      8  C   LIG    1       51.755  28.574   0.000  0.00  0.00    +0.084 C 
ATOM      9  N   LIG    1       50.288  28.262   0.000  0.00  0.00    -0.276 NA
BRANCH   9  10
ATOM     10  C   LIG    1       49.824  26.835   0.000  0.00  0.00    +0.138 C 
ATOM     11  C   LIG    1       48.398  27.299   0.000  0.00  0.00    +0.024 C 
BRANCH  10  12
ATOM     12  C   LIG    1       51.251  26.372   0.000  0.00  0.00    +0.028 C 
ATOM     13  C   LIG    1       52.678  25.908   0.000  0.00  0.00    +0.095 C 
ATOM     14  N   LIG    1       52.989  24.441   0.000  0.00  0.00    -0.128 NA
ENDBRANCH  10  12
ENDBRANCH   9  10
ENDBRANCH   1   8
BRANCH   1  15
ATOM     15  C   LIG    1       52.682  31.427   0.000  0.00  0.00    +0.034 C 
BRANCH  15  16
ATOM     16  C   LIG    1       53.146  32.853   0.000  0.00  0.00    +0.105 C 
BRANCH  16  17
ATOM     17  C   LIG    1       53.609  34.280   0.000  0.00  0.00    +0.252 C 
ATOM     18  O   LIG    1       52.605  35.395   0.000  0.00  0.00    -0.272 OA
ATOM     19  N   LIG    1       55.076  34.592   0.000  0.00  0.00    -0.088 NA
ENDBRANCH  16  17
ENDBRANCH  15  16
ENDBRANCH   1  15
TORSDOF 9
REMARK  Name = molecules/PEASPLKKXBYDKL-FXEVSJAOSA-N.pdb
REMARK                            x       y       z     vdW  Elec       q    Type
REMARK                         _______ _______ _______ _____ _____    ______ ____
ROOT
ATOM      1  C   LIG    1       46.783  29.612   0.000  0.00  0.00    +0.127 C 
ENDROOT
BRANCH   1   4
ATOM      2  N   LIG    1       47.283  26.295   0.000  0.00  0.00    -0.138 NA
ATOM      3  C   LIG    1       45.856  26.759   0.000  0.00  0.00    +0.114 C 
ATOM      4  C   LIG    1       46.320  28.185   0.000  0.00  0.00    +0.001 C 
ENDBRANCH   1   4
BRANCH   1   5
ATOM      5  C   LIG    1       47.247  31.038   0.000  0.00  0.00    +0.256 C 
ATOM      6  N   LIG    1       48.714  31.350   0.000  0.00  0.00    -0.088 NA
ATOM      7  O   LIG    1       46.243  32.153   0.000  0.00  0.00    -0.272 OA
ENDBRANCH   1   5
TORSDOF 2
REMARK  Name = molecules/PEASPLKKXBYDKL-FXEVSJAOSA-N.pdb
REMARK                            x       y       z     vdW  Elec       q    Type
REMARK                         _______ _______ _______ _____ _____    ______ ____
ROOT
ATOM      1  C   LIG    1       44.889  23.130   0.000  0.00  0.00    +0.022 C 
ENDROOT
BRANCH   1   2
ATOM      2  C   LIG    1       43.462  23.593   0.000  0.00  0.00    +0.086 C 
ATOM      3  C   LIG    1       42.036  24.057   0.000  0.00  0.00    +0.013 C 
BRANCH   2   4
ATOM      4  N   LIG    1       43.926  25.020   0.000  0.00  0.00    -0.223 NA
ATOM      5  C   LIG    1       45.393  25.332   0.000  0.00  0.00    +0.107 C 
ENDBRANCH   2   4
ENDBRANCH   1   2
BRANCH   1   6
ATOM      6  C   LIG    1       46.315  22.666   0.000  0.00  0.00    +0.104 C 
BRANCH   6   7
ATOM      7  C   LIG    1       47.742  22.203   0.000  0.00  0.00    +0.252 C 
ATOM      8  O   LIG    1       48.857  23.207   0.000  0.00  0.00    -0.272 OA
ATOM      9  N   LIG    1       48.054  20.736   0.000  0.00  0.00    -0.088 NA
ENDBRANCH   6   7
ENDBRANCH   1   6
TORSDOF 4
REMARK  Name = molecules/PEASPLKKXBYDKL-FXEVSJAOSA-N.pdb
REMARK                            x       y       z     vdW  Elec       q    Type
REMARK                         _______ _______ _______ _____ _____    ______ ____
ROOT
ATOM      1  C   LIG    1       40.421  26.370   0.000  0.00  0.00    +0.153 C 
ENDROOT
BRANCH   1   4
ATOM      2  N   LIG    1       40.921  23.053   0.000  0.00  0.00    -0.138 NA
ATOM      3  C   LIG    1       39.494  23.517   0.000  0.00  0.00    +0.114 C 
ATOM      4  C   LIG    1       39.958  24.943   0.000  0.00  0.00    +0.003 C 
ENDBRANCH   1   4
BRANCH   1   5
ATOM      5  C   LIG    1       40.885  27.797   0.000  0.00  0.00    +0.360 C 
ATOM      6  O   LIG    1       39.881  28.911   0.000  0.00  0.00    -0.246 OA
ATOM      7  O   LIG    1       42.352  28.108   0.000  0.00  0.00    -0.246 OA
ENDBRANCH   1   5
TORSDOF 2
REMARK  Name = molecules/PEASPLKKXBYDKL-FXEVSJAOSA-N.pdb
REMARK                            x       y       z     vdW  Elec       q    Type
REMARK                         _______ _______ _______ _____ _____    ______ ____
ROOT
ATOM      1  C   LIG    1       37.100  20.352   0.000  0.00  0.00    +0.088 C 
ATOM      2  C   LIG    1       38.527  19.888   0.000  0.00  0.00    -0.010 C 
ENDROOT
BRANCH   1   3
ATOM      3  N   LIG    1       37.564  21.778   0.000  0.00  0.00    -0.245 NA
ATOM      4  C   LIG    1       39.031  22.090   0.000  0.00  0.00    +0.135 C 
ENDBRANCH   1   3
BRANCH   2   5
ATOM      5  C   LIG    1       39.953  19.425   0.000  0.00  0.00    +0.030 C 
BRANCH   5   6
ATOM      6  C   LIG    1       41.380  18.961   0.000  0.00  0.00    +0.022 C 
BRANCH   6   7
ATOM      7  C   LIG    1       42.806  18.498   0.000  0.00  0.00    +0.124 C 
ATOM      8  N   LIG    1       44.233  18.034   0.000  0.00  0.00    -0.143 NA
ENDBRANCH   6   7
ENDBRANCH   5   6
ENDBRANCH   2   5
TORSDOF 4
REMARK  Name = molecules/PEASPLKKXBYDKL-FXEVSJAOSA-N.pdb
REMARK                            x       y       z     vdW  Elec       q    Type
REMARK                         _______ _______ _______ _____ _____    ______ ____
ROOT
ATOM      1  C   LIG    1       33.596  21.702   0.000  0.00  0.00    +0.109 C 
ENDROOT
BRANCH   1   2
ATOM      2  C   LIG    1       34.059  23.128   0.000  0.00  0.00    +0.235 C 
ATOM      3  O   LIG    1       33.056  24.243   0.000  0.00  0.00    -0.274 OA
ATOM      4  N   LIG    1       35.526  23.440   0.000  0.00  0.00    -0.234 NA
ATOM      5  H   LIG    1       36.431  22.762   0.000  0.00  0.00    +0.173 HD
ENDBRANCH   1   2
BRANCH   1   6
ATOM      6  C   LIG    1       33.132  20.275   0.000  0.00  0.00    +0.095 C 
ATOM      7  C   LIG    1       32.669  18.849   0.000  0.00  0.00    +0.013 C 
BRANCH   6   8
ATOM      8  N   LIG    1       34.559  19.812   0.000  0.00  0.00    -0.223 NA
ATOM      9  C   LIG    1       35.673  20.815   0.000  0.00  0.00    +0.107 C 
ENDBRANCH   6   8
ENDBRANCH   1   6
TORSDOF 3
REMARK  Name = molecules/PEASPLKKXBYDKL-FXEVSJAOSA-N.pdb
REMARK                            x       y       z     vdW  Elec       q    Type
REMARK                         _______ _______ _______ _____ _____    ______ ____
ROOT
ATOM      1  C   LIG    1       33.591  16.183   0.000  0.00  0.00    +0.153 C 
ENDROOT
BRANCH   1   4
ATOM      2  N   LIG    1       31.201  18.537   0.000  0.00  0.00    -0.138 NA
ATOM      3  C   LIG    1       30.738  17.110   0.000  0.00  0.00    +0.114 C 
ATOM      4  C   LIG    1       32.164  16.646   0.000  0.00  0.00    +0.003 C 
ENDBRANCH   1   4
BRANCH   1   5
ATOM      5  C   LIG    1       35.018  15.720   0.000  0.00  0.00    +0.360 C 
ATOM      6  O   LIG    1       36.132  16.723   0.000  0.00  0.00    -0.246 OA
ATOM      7  O   LIG    1       35.330  14.252   0.000  0.00  0.00    -0.246 OA
ENDBRANCH   1   5
TORSDOF 2
REMARK  Name = molecules/PEASPLKKXBYDKL-FXEVSJAOSA-N.pdb
REMARK                            x       y       z     vdW  Elec       q    Type
REMARK                         _______ _______ _______ _____ _____    ______ ____
ROOT
ATOM      1  C   LIG    1       26.306  15.607   0.000  0.00  0.00    +0.084 C 
ATOM      2  N   LIG    1       24.839  15.295   0.000  0.00  0.00    -0.257 NA
ENDROOT
BRANCH   1   4
ATOM      3  N   LIG    1       28.197  16.570   0.000  0.00  0.00    -0.133 NA
ATOM      4  C   LIG    1       26.770  17.033   0.000  0.00  0.00    +0.147 C 
BRANCH   4   5
ATOM      5  C   LIG    1       27.233  18.460   0.000  0.00  0.00    +0.029 C 
BRANCH   5   6
ATOM      6  C   LIG    1       27.697  19.887   0.000  0.00  0.00    +0.105 C 
BRANCH   6   7
ATOM      7  C   LIG    1       28.161  21.313   0.000  0.00  0.00    +0.252 C 
ATOM      8  O   LIG    1       29.628  21.625   0.000  0.00  0.00    -0.272 OA
ATOM      9  N   LIG    1       27.157  22.428   0.000  0.00  0.00    -0.088 NA
ENDBRANCH   6   7
ENDBRANCH   5   6
ENDBRANCH   4   5
ENDBRANCH   1   4
BRANCH   2  10
ATOM     10  C   LIG    1       24.376  13.868   0.000  0.00  0.00    +0.107 C 
ATOM     11  C   LIG    1       25.802  13.405   0.000  0.00  0.00    +0.004 C 
BRANCH  11  12
ATOM     12  C   LIG    1       27.229  12.941   0.000  0.00  0.00    +0.153 C 
BRANCH  12  13
ATOM     13  C   LIG    1       28.655  12.478   0.000  0.00  0.00    +0.360 C 
ATOM     14  O   LIG    1       28.967  11.011   0.000  0.00  0.00    -0.246 OA
ATOM     15  O   LIG    1       29.770  13.482   0.000  0.00  0.00    -0.246 OA
ENDBRANCH  12  13
ENDBRANCH  11  12
ENDBRANCH   2  10
TORSDOF 7
REMARK  Name = molecules/PEASPLKKXBYDKL-FXEVSJAOSA-N.pdb
REMARK                            x       y       z     vdW  Elec       q    Type
REMARK                         _______ _______ _______ _____ _____    ______ ____
ROOT
ATOM      1  N   LIG    1       21.834  13.328   0.000  0.00  0.00    -0.138 NA
ATOM      2  C   LIG    1       20.408  13.792   0.000  0.00  0.00    +0.114 C 
ATOM      3  C   LIG    1       20.871  15.218   0.000  0.00  0.00    -0.005 C 
ENDROOT
BRANCH   3   4
ATOM      4  C   LIG    1       21.335  16.645   0.000  0.00  0.00    +0.007 C 
ATOM      5  C   LIG    1       19.908  17.108   0.000  0.00  0.00    +0.011 C 
ATOM      6  C   LIG    1       21.798  18.072   0.000  0.00  0.00    +0.011 C 
ENDBRANCH   3   4
TORSDOF 1
REMARK  Name = molecules/PEASPLKKXBYDKL-FXEVSJAOSA-N.pdb
REMARK                            x       y       z     vdW  Elec       q    Type
REMARK                         _______ _______ _______ _____ _____    ______ ____
ROOT
ATOM      1  C   LIG    1       16.587  11.090   0.000  0.00  0.00    +0.136 C 
ENDROOT
BRANCH   1   2
ATOM      2  N   LIG    1       15.472  10.086   0.000  0.00  0.00    -0.282 NA
ATOM      3  C   LIG    1       14.046  10.550   0.000  0.00  0.00    +0.083 C 
BRANCH   3   4
ATOM      4  C   LIG    1       14.509  11.977   0.000  0.00  0.00    +0.049 C 
BRANCH   4   5
ATOM      5  C   LIG    1       14.973  13.403   0.000  0.00  0.00    +0.134 C 
BRANCH   5   6
ATOM      6  C   LIG    1       15.436  14.830   0.000  0.00  0.00    +0.357 C 
ATOM      7  O   LIG    1       14.432  15.944   0.000  0.00  0.00    -0.246 OA
ATOM      8  O   LIG    1       16.904  15.142   0.000  0.00  0.00    -0.246 OA
ENDBRANCH   5   6
ENDBRANCH   4   5
ENDBRANCH   3   4
ENDBRANCH   1   2
BRANCH   1   9
ATOM      9  C   LIG    1       18.014  10.627   0.000  0.00  0.00    +0.110 C 
BRANCH   9  10
ATOM     10  N   LIG    1       18.477  12.053   0.000  0.00  0.00    -0.222 NA
ATOM     11  C   LIG    1       19.944  12.365   0.000  0.00  0.00    +0.107 C 
ENDBRANCH   9  10
BRANCH   9  12
ATOM     12  C   LIG    1       19.440  10.163   0.000  0.00  0.00    +0.018 C 
BRANCH  12  13
ATOM     13  C   LIG    1       20.867   9.700   0.000  0.00  0.00    -0.012 C 
ATOM     14  C   LIG    1       22.293   9.236   0.000  0.00  0.00    +0.007 C 
ATOM     15  C   LIG    1       20.403   8.273   0.000  0.00  0.00    +0.007 C 
ENDBRANCH  12  13
ENDBRANCH   9  12
ENDBRANCH   1   9
TORSDOF 8
REMARK  Name = molecules/PEASPLKKXBYDKL-FXEVSJAOSA-N.pdb
REMARK                            x       y       z     vdW  Elec       q    Type
REMARK                         _______ _______ _______ _____ _____    ______ ____
ROOT
ATOM      1  C   LIG    1       10.225   7.848   0.000  0.00  0.00    +0.078 C 
ATOM      2  N   LIG    1        9.110   6.845   0.000  0.00  0.00    -0.275 NA
ENDROOT
BRANCH   1   3
ATOM      3  C   LIG    1       11.651   7.385   0.000  0.00  0.00    +0.127 C 
BRANCH   3   4
ATOM      4  N   LIG    1       12.115   8.812   0.000  0.00  0.00    -0.218 NA
ATOM      5  C   LIG    1       13.582   9.123   0.000  0.00  0.00    +0.107 C 
ENDBRANCH   3   4
BRANCH   3   6
ATOM      6  C   LIG    1       13.078   6.921   0.000  0.00  0.00    +0.021 C 
BRANCH   6   7
ATOM      7  C   LIG    1       14.505   6.458   0.000  0.00  0.00    -0.012 C 
ATOM      8  C   LIG    1       14.041   5.031   0.000  0.00  0.00    +0.007 C 
ATOM      9  C   LIG    1       15.931   5.994   0.000  0.00  0.00    +0.007 C 
ENDBRANCH   6   7
ENDBRANCH   3   6
ENDBRANCH   1   3
BRANCH   2  10
ATOM     10  C   LIG    1        7.684   7.308   0.000  0.00  0.00    +0.157 C 
BRANCH  10  11
ATOM     11  C   LIG    1        8.147   8.735   0.000  0.00  0.00    +0.056 C 
ATOM     12  C   LIG    1        8.611  10.162   0.000  0.00  0.00    +0.223 C 
ATOM     13  O   LIG    1        7.607  11.276   0.000  0.00  0.00    -0.284 OA
ENDBRANCH  10  11
BRANCH  10  14
ATOM     14  C   LIG    1        7.220   5.882   0.000  0.00  0.00    +0.106 C 
BRANCH  14  15
ATOM     15  N   LIG    1        5.753   5.570   0.000  0.00  0.00    -0.243 NA
ATOM     16  H   LIG    1        4.987   6.656   0.000  0.00  0.00    +0.141 HD
ENDBRANCH  14  15
ENDBRANCH  10  14
ENDBRANCH   2  10
TORSDOF 8
REMARK  Name = molecules/PEASPLKKXBYDKL-FXEVSJAOSA-N.pdb
REMARK                            x       y       z     vdW  Elec       q    Type
REMARK                         _______ _______ _______ _____ _____    ______ ____
ROOT
ATOM      1  N   LIG    1        1.861   1.525   0.000  0.00  0.00    -0.260 NA
ATOM      2  C   LIG    1        1.409   0.307   0.000  0.00  0.00    +0.090 C 
ENDROOT
BRANCH   1   3
ATOM      3  C   LIG    1        2.212   2.777   0.000  0.00  0.00    +0.173 C 
BRANCH   3   4
ATOM      4  N   LIG    1        2.748   3.603   0.000  0.00  0.00    -0.235 NA
ATOM      5  H   LIG    1        2.264   4.277   0.000  0.00  0.00    +0.142 HD
ENDBRANCH   3   4
ENDBRANCH   1   3
BRANCH   1   6
ATOM      6  C   LIG    1        1.097   1.774   0.000  0.00  0.00    +0.109 C 
BRANCH   6   7
ATOM      7  C   LIG    1        0.858   2.640   0.000  0.00  0.00    +0.199 C 
ATOM      8  O   LIG    1        0.020   2.352   0.000  0.00  0.00    -0.219 OA
ENDBRANCH   6   7
ENDBRANCH   1   6
TORSDOF 4
REMARK  Name = molecules/PEASPLKKXBYDKL-FXEVSJAOSA-N.pdb
REMARK                            x       y       z     vdW  Elec       q    Type
REMARK                         _______ _______ _______ _____ _____    ______ ____
ROOT
ATOM      1  N   LIG    1       -1.143  -0.441   0.000  0.00  0.00    -0.140 NA
ATOM      2  N   LIG    1       -0.099  -0.781   0.000  0.00  0.00    -0.024 NA
ATOM      3  H   LIG    1       -1.088   0.290   0.000  0.00  0.00    +0.165 HD
ENDROOT
TORSDOF 0
REMARK  Name = molecules/PEASPLKKXBYDKL-FXEVSJAOSA-N.pdb
REMARK                            x       y       z     vdW  Elec       q    Type
REMARK                         _______ _______ _______ _____ _____    ______ ____
ROOT
ATOM      1  N   LIG    1       -2.030  -2.519   0.000  0.00  0.00    -0.300 NA
ATOM      2  C   LIG    1       -2.640  -1.321   0.000  0.00  0.00    +0.080 C 
ATOM      3  C   LIG    1       -1.214  -1.784   0.000  0.00  0.00    +0.097 C 
ATOM      4  H   LIG    1       -2.926  -2.793   0.000  0.00  0.00    +0.123 HD
ENDROOT
TORSDOF 0
REMARK  Name = molecules/PEASPLKKXBYDKL-FXEVSJAOSA-N.pdb
REMARK                            x       y       z     vdW  Elec       q    Type
REMARK                         _______ _______ _______ _____ _____    ______ ____
ROOT
ATOM      1  CG  TRP A  1       -7.388  -6.875   0.000  0.00  0.00    -0.018 A 
ATOM      2  CD2 TRP A  1       -8.815  -7.339   0.000  0.00  0.00    +0.005 A 
ATOM      3  CE3 TRP A  1      -10.114  -6.589   0.000  0.00  0.00    +0.010 A 
ATOM      4  CZ3 TRP A  1      -11.413  -7.339   0.000  0.00  0.00    +0.001 A 
ATOM      5  CH2 TRP A  1      -11.413  -8.839   0.000  0.00  0.00    +0.002 A 
ATOM      6  CZ2 TRP A  1      -10.114  -9.589   0.000  0.00  0.00    +0.028 A 
ATOM      7  CE2 TRP A  1       -8.815  -8.839   0.000  0.00  0.00    +0.071 A 
ATOM      8  NE1 TRP A  1       -7.388  -9.303   0.000  0.00  0.00    -0.255 NA
ATOM      9  CD1 TRP A  1       -6.506  -8.089   0.000  0.00  0.00    +0.115 A 
ENDROOT
BRANCH   1  10
ATOM     10  CB  TRP A  1       -6.925  -5.449   0.000  0.00  0.00    +0.062 C 
BRANCH  10  12
ATOM     11  N   TRP A  1       -5.035  -4.486   0.000  0.00  0.00    -0.136 NA
ATOM     12  CA  TRP A  1       -6.461  -4.022   0.000  0.00  0.00    +0.139 C 
BRANCH  12  13
ATOM     13  C   TRP A  1       -5.998  -2.596   0.000  0.00  0.00    +0.195 C 
ATOM     14  O   TRP A  1       -7.130  -1.612   0.000  0.00  0.00    -0.219 OA
ENDBRANCH  12  13
ENDBRANCH  10  12
ENDBRANCH   1  10
TORSDOF 3
REMARK  Name = molecules/PEASPLKKXBYDKL-FXEVSJAOSA-N.pdb
REMARK                            x       y       z     vdW  Elec       q    Type
REMARK                         _______ _______ _______ _____ _____    ______ ____
ROOT
ATOM      1  N   LIG    1       -4.530  -2.284   0.000  0.00  0.00    -0.130 NA
ATOM      2  C   LIG    1       -3.920  -3.482   0.000  0.00  0.00    +0.130 C 
ENDROOT
TORSDOF 0
REMARK  Name = molecules/PEASPLKKXBYDKL-FXEVSJAOSA-N.pdb
REMARK                            x       y       z     vdW  Elec       q    Type
REMARK                         _______ _______ _______ _____ _____    ______ ____
ROOT
ATOM      1  N   LIG    1       -5.805   1.073   0.000  0.00  0.00    -0.204 NA
ATOM      2  C   LIG    1       -5.493  -0.394   0.000  0.00  0.00    +0.242 C 
ATOM      3  O   LIG    1       -6.722  -1.254   0.000  0.00  0.00    -0.273 OA
ATOM      4  C   LIG    1       -4.067  -0.857   0.000  0.00  0.00    +0.096 C 
ATOM      5  C   LIG    1       -4.691   2.077   0.000  0.00  0.00    +0.138 C 
ENDROOT
TORSDOF 0
REMARK  Name = molecules/PEASPLKKXBYDKL-FXEVSJAOSA-N.pdb
REMARK                            x       y       z     vdW  Elec       q    Type
REMARK                         _______ _______ _______ _____ _____    ______ ____
ROOT
ATOM      1  N   LIG    1       -2.220   1.274   0.000  0.00  0.00    -0.142 NA
ATOM      2  C   LIG    1       -2.570   0.022   0.000  0.00  0.00    +0.142 C 
ENDROOT
TORSDOF 0
REMARK  Name = molecules/PEASPLKKXBYDKL-FXEVSJAOSA-N.pdb
REMARK                            x       y       z     vdW  Elec       q    Type
REMARK                         _______ _______ _______ _____ _____    ______ ____
ROOT
ATOM      1  N   LIG    1       -3.495   4.632   0.000  0.00  0.00    -0.163 NA
ATOM      2  H   LIG    1       -4.580   4.196   0.000  0.00  0.00    +0.163 HD
ENDROOT
TORSDOF 0
REMARK  Name = molecules/PEASPLKKXBYDKL-FXEVSJAOSA-N.pdb
REMARK                            x       y       z     vdW  Elec       q    Type
REMARK                         _______ _______ _______ _____ _____    ______ ____
ROOT
ATOM      1  O   HOH    1       91.060  47.040   0.000  0.00  0.00    -0.410 OA
ATOM      2  H   HOH    0       90.219  47.094   0.000  0.00  0.00    +0.205 HD
ATOM      3  H   HOH    0       92.130  47.520   0.000  0.00  0.00    +0.205 HD
ENDROOT
TORSDOF 0
REMARK  Name = molecules/PEASPLKKXBYDKL-FXEVSJAOSA-N.pdb
REMARK                            x       y       z     vdW  Elec       q    Type
REMARK                         _______ _______ _______ _____ _____    ______ ____
ROOT
ATOM      1  O   HOH    1       86.259  48.216   0.000  0.00  0.00    -0.410 OA
ATOM      2  H   HOH    0       86.424  49.374   0.000  0.00  0.00    +0.205 HD
ATOM      3  H   HOH    0       85.989  47.531   0.000  0.00  0.00    +0.205 HD
ENDROOT
TORSDOF 0
REMARK  Name = molecules/PEASPLKKXBYDKL-FXEVSJAOSA-N.pdb
REMARK                            x       y       z     vdW  Elec       q    Type
REMARK                         _______ _______ _______ _____ _____    ______ ____
ROOT
ATOM      1  C   LIG    1       83.566  44.782   0.000  0.00  0.00    +0.000 C 
ENDROOT
TORSDOF 0
REMARK  Name = molecules/PEASPLKKXBYDKL-FXEVSJAOSA-N.pdb
REMARK                            x       y       z     vdW  Elec       q    Type
REMARK                         _______ _______ _______ _____ _____    ______ ____
ROOT
ATOM      1  O   HOH    1       84.698  43.798   0.000  0.00  0.00    -0.410 OA
ATOM      2  H   HOH    0       83.857  43.852   0.000  0.00  0.00    +0.205 HD
ATOM      3  H   HOH    0       85.768  44.278   0.000  0.00  0.00    +0.205 HD
ENDROOT
TORSDOF 0
REMARK  Name = molecules/PEASPLKKXBYDKL-FXEVSJAOSA-N.pdb
REMARK                            x       y       z     vdW  Elec       q    Type
REMARK                         _______ _______ _______ _____ _____    ______ ____
ROOT
ATOM      1  C   LIG    1       79.557  43.930   0.000  0.00  0.00    +0.022 C 
ENDROOT
BRANCH   1   2
ATOM      2  C   LIG    1       80.209  43.507   0.000  0.00  0.00    -0.019 C 
ATOM      3  C   LIG    1       80.984  43.466   0.000  0.00  0.00    -0.044 C 
ATOM      4  C   LIG    1       81.635  43.044   0.000  0.00  0.00    +0.035 C 
ENDBRANCH   1   2
BRANCH   1   5
ATOM      5  C   LIG    1       78.131  44.394   0.000  0.00  0.00    +0.000 C 
ATOM      6  C   LIG    1       77.667  42.967   0.000  0.00  0.00    +0.000 C 
ATOM      7  C   LIG    1       78.594  45.820   0.000  0.00  0.00    +0.005 C 
ENDBRANCH   1   5
TORSDOF 2
REMARK  Name = molecules/PEASPLKKXBYDKL-FXEVSJAOSA-N.pdb
REMARK                            x       y       z     vdW  Elec       q    Type
REMARK                         _______ _______ _______ _____ _____    ______ ____
ROOT
ATOM      1  C   LIG    1       85.915  41.653   0.000  0.00  0.00    +0.007 C 
ATOM      2  C   LIG    1       84.488  42.117   0.000  0.00  0.00    -0.014 C 
ATOM      3  C   LIG    1       84.025  40.690   0.000  0.00  0.00    +0.007 C 
ATOM      4  C   LIG    1       83.062  42.580   0.000  0.00  0.00    -0.001 C 
ENDROOT
TORSDOF 0
REMARK  Name = molecules/PEASPLKKXBYDKL-FXEVSJAOSA-N.pdb
REMARK                            x       y       z     vdW  Elec       q    Type
REMARK                         _______ _______ _______ _____ _____    ______ ____
ROOT
ATOM      1  O   HOH    1       80.261  45.006   0.000  0.00  0.00    -0.410 OA
ATOM      2  H   HOH    0       80.905  44.964   0.000  0.00  0.00    +0.205 HD
ATOM      3  H   HOH    0       80.091  45.715   0.000  0.00  0.00    +0.205 HD
ENDROOT
TORSDOF 0
REMARK  Name = molecules/PEASPLKKXBYDKL-FXEVSJAOSA-N.pdb
REMARK                            x       y       z     vdW  Elec       q    Type
REMARK                         _______ _______ _______ _____ _____    ______ ____
ROOT
ATOM      1  C   LIG    1       77.204  41.540   0.000  0.00  0.00    +0.000 C 
ENDROOT
TORSDOF 0
REMARK  Name = molecules/PEASPLKKXBYDKL-FXEVSJAOSA-N.pdb
REMARK                            x       y       z     vdW  Elec       q    Type
REMARK                         _______ _______ _______ _____ _____    ______ ____
ROOT
ATOM      1  O   LIG    1       78.207  40.426   0.000  0.00  0.00    -0.386 OA
ATOM      2  C   LIG    1       79.340  39.757   0.000  0.00  0.00    +0.176 C 
ATOM      3  H   LIG    1       77.495  40.610   0.000  0.00  0.00    +0.210 HD
ENDROOT
TORSDOF 0
REMARK  Name = molecules/PEASPLKKXBYDKL-FXEVSJAOSA-N.pdb
REMARK                            x       y       z     vdW  Elec       q    Type
REMARK                         _______ _______ _______ _____ _____    ______ ____
ROOT
ATOM      1  O   HOH    1       73.534  41.733   0.000  0.00  0.00    -0.410 OA
ATOM      2  H   HOH    0       73.265  41.047   0.000  0.00  0.00    +0.205 HD
ATOM      3  H   HOH    0       73.699  42.890   0.000  0.00  0.00    +0.205 HD
ENDROOT
TORSDOF 0
REMARK  Name = molecules/PEASPLKKXBYDKL-FXEVSJAOSA-N.pdb
REMARK                            x       y       z     vdW  Elec       q    Type
REMARK                         _______ _______ _______ _____ _____    ______ ____
ROOT
ATOM      1  O   HOH    1       71.974  37.315   0.000  0.00  0.00    -0.410 OA
ATOM      2  H   HOH    0       73.044  37.794   0.000  0.00  0.00    +0.205 HD
ATOM      3  H   HOH    0       71.132  37.369   0.000  0.00  0.00    +0.205 HD
ENDROOT
TORSDOF 0
REMARK  Name = molecules/PEASPLKKXBYDKL-FXEVSJAOSA-N.pdb
REMARK                            x       y       z     vdW  Elec       q    Type
REMARK                         _______ _______ _______ _____ _____    ______ ____
ROOT
ATOM      1  C   LIG    1       73.191  35.170   0.000  0.00  0.00    +0.007 C 
ATOM      2  C   LIG    1       71.764  35.633   0.000  0.00  0.00    -0.015 C 
ATOM      3  C   LIG    1       71.300  34.206   0.000  0.00  0.00    +0.007 C 
ENDROOT
TORSDOF 0
REMARK  Name = molecules/PEASPLKKXBYDKL-FXEVSJAOSA-N.pdb
REMARK                            x       y       z     vdW  Elec       q    Type
REMARK                         _______ _______ _______ _____ _____    ______ ____
ROOT
ATOM      1  C   LIG    1       70.337  36.097   0.000  0.00  0.00    +0.000 C 
ENDROOT
TORSDOF 0
REMARK  Name = molecules/PEASPLKKXBYDKL-FXEVSJAOSA-N.pdb
REMARK                            x       y       z     vdW  Elec       q    Type
REMARK                         _______ _______ _______ _____ _____    ______ ____
ROOT
ATOM      1  O   HOH    1       67.537  38.523   0.000  0.00  0.00    -0.410 OA
ATOM      2  H   HOH    0       68.181  38.481   0.000  0.00  0.00    +0.205 HD
ATOM      3  H   HOH    0       67.366  39.232   0.000  0.00  0.00    +0.205 HD
ENDROOT
TORSDOF 0
REMARK  Name = molecules/PEASPLKKXBYDKL-FXEVSJAOSA-N.pdb
REMARK                            x       y       z     vdW  Elec       q    Type
REMARK                         _______ _______ _______ _____ _____    ______ ____
ROOT
ATOM      1  C   LIG    1       65.870  39.337   0.000  0.00  0.00    -0.000 C 
ENDROOT
TORSDOF 0
REMARK  Name = molecules/PEASPLKKXBYDKL-FXEVSJAOSA-N.pdb
REMARK                            x       y       z     vdW  Elec       q    Type
REMARK                         _______ _______ _______ _____ _____    ______ ____
ROOT
ATOM      1  O   HOH    1       65.612  34.073   0.000  0.00  0.00    -0.410 OA
ATOM      2  H   HOH    0       66.681  34.553   0.000  0.00  0.00    +0.205 HD
ATOM      3  H   HOH    0       64.770  34.127   0.000  0.00  0.00    +0.205 HD
ENDROOT
TORSDOF 0
REMARK  Name = molecules/PEASPLKKXBYDKL-FXEVSJAOSA-N.pdb
REMARK                            x       y       z     vdW  Elec       q    Type
REMARK                         _______ _______ _______ _____ _____    ______ ____
ROOT
ATOM      1  C   LIG    1       61.122  33.782   0.000  0.00  0.00    +0.000 C 
ENDROOT
TORSDOF 0
REMARK  Name = molecules/PEASPLKKXBYDKL-FXEVSJAOSA-N.pdb
REMARK                            x       y       z     vdW  Elec       q    Type
REMARK                         _______ _______ _______ _____ _____    ______ ____
ROOT
ATOM      1  O   HOH    1       60.991  35.276   0.000  0.00  0.00    -0.410 OA
ATOM      2  H   HOH    0       62.008  35.860   0.000  0.00  0.00    +0.205 HD
ATOM      3  H   HOH    0       60.541  34.564   0.000  0.00  0.00    +0.205 HD
ENDROOT
TORSDOF 0
REMARK  Name = molecules/PEASPLKKXBYDKL-FXEVSJAOSA-N.pdb
REMARK                            x       y       z     vdW  Elec       q    Type
REMARK                         _______ _______ _______ _____ _____    ______ ____
ROOT
ATOM      1  C   LIG    1       58.117  31.815   0.000  0.00  0.00    +0.000 C 
ENDROOT
TORSDOF 0
REMARK  Name = molecules/PEASPLKKXBYDKL-FXEVSJAOSA-N.pdb
REMARK                            x       y       z     vdW  Elec       q    Type
REMARK                         _______ _______ _______ _____ _____    ______ ____
ROOT
ATOM      1  O   HOH    1       59.121  30.701   0.000  0.00  0.00    -0.410 OA
ATOM      2  H   HOH    0       60.319  31.311   0.000  0.00  0.00    +0.205 HD
ATOM      3  H   HOH    0       58.408  30.885   0.000  0.00  0.00    +0.205 HD
ENDROOT
TORSDOF 0
REMARK  Name = molecules/PEASPLKKXBYDKL-FXEVSJAOSA-N.pdb
REMARK                            x       y       z     vdW  Elec       q    Type
REMARK                         _______ _______ _______ _____ _____    ______ ____
ROOT
ATOM      1  O   HOH    1       54.629  32.035   0.000  0.00  0.00    -0.410 OA
ATOM      2  H   HOH    0       55.646  32.618   0.000  0.00  0.00    +0.205 HD
ATOM      3  H   HOH    0       54.178  31.322   0.000  0.00  0.00    +0.205 HD
ENDROOT
TORSDOF 0
REMARK  Name = molecules/PEASPLKKXBYDKL-FXEVSJAOSA-N.pdb
REMARK                            x       y       z     vdW  Elec       q    Type
REMARK                         _______ _______ _______ _____ _____    ______ ____
ROOT
ATOM      1  O   LIG    1       52.759  27.459   0.000  0.00  0.00    -0.253 OA
ATOM      2  H   LIG    1       52.046  27.644   0.000  0.00  0.00    +0.253 HD
ENDROOT
BRANCH   1   3
ATOM      3  O   LIG    1       53.792  26.912   0.000  0.00  0.00    -0.253 OA
ATOM      4  H   LIG    1       53.957  28.069   0.000  0.00  0.00    +0.253 HD
ENDBRANCH   1   3
TORSDOF 1
REMARK  Name = molecules/PEASPLKKXBYDKL-FXEVSJAOSA-N.pdb
REMARK                            x       y       z     vdW  Elec       q    Type
REMARK                         _______ _______ _______ _____ _____    ______ ____
ROOT
ATOM      1  O   HOH    1       48.267  28.793   0.000  0.00  0.00    -0.410 OA
ATOM      2  H   HOH    0       49.284  29.376   0.000  0.00  0.00    +0.205 HD
ATOM      3  H   HOH    0       47.816  28.081   0.000  0.00  0.00    +0.205 HD
ENDROOT
TORSDOF 0
REMARK  Name = molecules/PEASPLKKXBYDKL-FXEVSJAOSA-N.pdb
REMARK                            x       y       z     vdW  Elec       q    Type
REMARK                         _______ _______ _______ _____ _____    ______ ____
ROOT
ATOM      1  O   HOH    1       46.525  24.348   0.000  0.00  0.00    -0.410 OA
ATOM      2  H   HOH    0       47.595  24.828   0.000  0.00  0.00    +0.205 HD
ATOM      3  H   HOH    0       45.684  24.402   0.000  0.00  0.00    +0.205 HD
ENDROOT
TORSDOF 0
REMARK  Name = molecules/PEASPLKKXBYDKL-FXEVSJAOSA-N.pdb
REMARK                            x       y       z     vdW  Elec       q    Type
REMARK                         _______ _______ _______ _____ _____    ______ ____
ROOT
ATOM      1  O   HOH    1       41.905  25.551   0.000  0.00  0.00    -0.410 OA
ATOM      2  H   HOH    0       41.454  24.839   0.000  0.00  0.00    +0.205 HD
ATOM      3  H   HOH    0       42.922  26.135   0.000  0.00  0.00    +0.205 HD
ENDROOT
TORSDOF 0
REMARK  Name = molecules/PEASPLKKXBYDKL-FXEVSJAOSA-N.pdb
REMARK                            x       y       z     vdW  Elec       q    Type
REMARK                         _______ _______ _______ _____ _____    ______ ____
ROOT
ATOM      1  O   HOH    1       40.163  21.106   0.000  0.00  0.00    -0.410 OA
ATOM      2  H   HOH    0       39.322  21.160   0.000  0.00  0.00    +0.205 HD
ATOM      3  H   HOH    0       41.233  21.586   0.000  0.00  0.00    +0.205 HD
ENDROOT
TORSDOF 0
REMARK  Name = molecules/PEASPLKKXBYDKL-FXEVSJAOSA-N.pdb
REMARK                            x       y       z     vdW  Elec       q    Type
REMARK                         _______ _______ _______ _____ _____    ______ ____
ROOT
ATOM      1  O   HOH    1       35.362  22.282   0.000  0.00  0.00    -0.410 OA
ATOM      2  H   HOH    0       36.387  22.211   0.000  0.00  0.00    +0.205 HD
ATOM      3  H   HOH    0       35.092  21.597   0.000  0.00  0.00    +0.205 HD
ENDROOT
TORSDOF 0
REMARK  Name = molecules/PEASPLKKXBYDKL-FXEVSJAOSA-N.pdb
REMARK                            x       y       z     vdW  Elec       q    Type
REMARK                         _______ _______ _______ _____ _____    ______ ____
ROOT
ATOM      1  O   HOH    1       33.801  17.864   0.000  0.00  0.00    -0.410 OA
ATOM      2  H   HOH    0       32.959  17.919   0.000  0.00  0.00    +0.205 HD
ATOM      3  H   HOH    0       34.871  18.344   0.000  0.00  0.00    +0.205 HD
ENDROOT
TORSDOF 0
REMARK  Name = molecules/PEASPLKKXBYDKL-FXEVSJAOSA-N.pdb
REMARK                            x       y       z     vdW  Elec       q    Type
REMARK                         _______ _______ _______ _____ _____    ______ ____
ROOT
ATOM      1  C   LIG    1       29.311  17.574   0.000  0.00  0.00    +0.000 C 
ENDROOT
TORSDOF 0
REMARK  Name = molecules/PEASPLKKXBYDKL-FXEVSJAOSA-N.pdb
REMARK                            x       y       z     vdW  Elec       q    Type
REMARK                         _______ _______ _______ _____ _____    ______ ____
ROOT
ATOM      1  O   HOH    1       29.181  19.068   0.000  0.00  0.00    -0.410 OA
ATOM      2  H   HOH    0       28.730  18.355   0.000  0.00  0.00    +0.205 HD
ATOM      3  H   HOH    0       30.198  19.651   0.000  0.00  0.00    +0.205 HD
ENDROOT
TORSDOF 0
REMARK  Name = molecules/PEASPLKKXBYDKL-FXEVSJAOSA-N.pdb
REMARK                            x       y       z     vdW  Elec       q    Type
REMARK                         _______ _______ _______ _____ _____    ______ ____
ROOT
ATOM      1  O   HOH    1       27.439  14.623   0.000  0.00  0.00    -0.410 OA
ATOM      2  H   HOH    0       26.597  14.677   0.000  0.00  0.00    +0.205 HD
ATOM      3  H   HOH    0       28.508  15.103   0.000  0.00  0.00    +0.205 HD
ENDROOT
TORSDOF 0
REMARK  Name = molecules/PEASPLKKXBYDKL-FXEVSJAOSA-N.pdb
REMARK                            x       y       z     vdW  Elec       q    Type
REMARK                         _______ _______ _______ _____ _____    ______ ____
ROOT
ATOM      1  C   LIG    1       22.949  14.332   0.000  0.00  0.00    +0.000 C 
ENDROOT
TORSDOF 0
REMARK  Name = molecules/PEASPLKKXBYDKL-FXEVSJAOSA-N.pdb
REMARK                            x       y       z     vdW  Elec       q    Type
REMARK                         _______ _______ _______ _____ _____    ______ ____
ROOT
ATOM      1  O   HOH    1       22.818  15.826   0.000  0.00  0.00    -0.410 OA
ATOM      2  H   HOH    0       22.368  15.114   0.000  0.00  0.00    +0.205 HD
ATOM      3  H   HOH    0       23.835  16.410   0.000  0.00  0.00    +0.205 HD
ENDROOT
TORSDOF 0
REMARK  Name = molecules/PEASPLKKXBYDKL-FXEVSJAOSA-N.pdb
REMARK                            x       y       z     vdW  Elec       q    Type
REMARK                         _______ _______ _______ _____ _____    ______ ____
ROOT
ATOM      1  O   HOH    1       21.076  11.381   0.000  0.00  0.00    -0.410 OA
ATOM      2  H   HOH    0       20.235  11.435   0.000  0.00  0.00    +0.205 HD
ATOM      3  H   HOH    0       22.146  11.861   0.000  0.00  0.00    +0.205 HD
ENDROOT
TORSDOF 0
REMARK  Name = molecules/PEASPLKKXBYDKL-FXEVSJAOSA-N.pdb
REMARK                            x       y       z     vdW  Elec       q    Type
REMARK                         _______ _______ _______ _____ _____    ______ ____
ROOT
ATOM      1  O   HOH    1       16.456  12.585   0.000  0.00  0.00    -0.410 OA
ATOM      2  H   HOH    0       16.006  11.872   0.000  0.00  0.00    +0.205 HD
ATOM      3  H   HOH    0       17.473  13.168   0.000  0.00  0.00    +0.205 HD
ENDROOT
TORSDOF 0
REMARK  Name = molecules/PEASPLKKXBYDKL-FXEVSJAOSA-N.pdb
REMARK                            x       y       z     vdW  Elec       q    Type
REMARK                         _______ _______ _______ _____ _____    ______ ____
ROOT
ATOM      1  O   HOH    1       14.714   8.139   0.000  0.00  0.00    -0.410 OA
ATOM      2  H   HOH    0       13.873   8.194   0.000  0.00  0.00    +0.205 HD
ATOM      3  H   HOH    0       15.784   8.619   0.000  0.00  0.00    +0.205 HD
ENDROOT
TORSDOF 0
REMARK  Name = molecules/PEASPLKKXBYDKL-FXEVSJAOSA-N.pdb
REMARK                            x       y       z     vdW  Elec       q    Type
REMARK                         _______ _______ _______ _____ _____    ______ ____
ROOT
ATOM      1  O   LIG    1        9.913   9.316   0.000  0.00  0.00    -0.253 OA
ATOM      2  H   LIG    1        9.643   8.630   0.000  0.00  0.00    +0.253 HD
ENDROOT
BRANCH   1   3
ATOM      3  O   LIG    1       10.078  10.473   0.000  0.00  0.00    -0.253 OA
ATOM      4  H   LIG    1       11.111   9.926   0.000  0.00  0.00    +0.253 HD
ENDBRANCH   1   3
TORSDOF 1
REMARK  Name = molecules/PEASPLKKXBYDKL-FXEVSJAOSA-N.pdb
REMARK                            x       y       z     vdW  Elec       q    Type
REMARK                         _______ _______ _______ _____ _____    ______ ____
ROOT
ATOM      1  O   HOH    1        8.352   4.898   0.000  0.00  0.00    -0.410 OA
ATOM      2  H   HOH    0        7.511   4.952   0.000  0.00  0.00    +0.205 HD
ATOM      3  H   HOH    0        9.422   5.378   0.000  0.00  0.00    +0.205 HD
ENDROOT
TORSDOF 0
REMARK  Name = molecules/PEASPLKKXBYDKL-FXEVSJAOSA-N.pdb
REMARK                            x       y       z     vdW  Elec       q    Type
REMARK                         _______ _______ _______ _____ _____    ______ ____
ROOT
ATOM      1  C   LIG    1        3.863   4.607   0.000  0.00  0.00    +0.000 C 
ENDROOT
TORSDOF 0
REMARK  Name = molecules/PEASPLKKXBYDKL-FXEVSJAOSA-N.pdb
REMARK                            x       y       z     vdW  Elec       q    Type
REMARK                         _______ _______ _______ _____ _____    ______ ____
ROOT
ATOM      1  C   LIG    1        9.569   2.753   0.000  0.00  0.00    +0.019 C 
ENDROOT
BRANCH   1   2
ATOM      2  C   LIG    1       10.996   2.289   0.000  0.00  0.00    +0.124 C 
ATOM      3  N   LIG    1       12.422   1.826   0.000  0.00  0.00    -0.143 NA
ENDBRANCH   1   2
BRANCH   1   4
ATOM      4  C   LIG    1        8.142   3.216   0.000  0.00  0.00    +0.005 C 
ATOM      5  C   LIG    1        6.716   3.680   0.000  0.00  0.00    -0.004 C 
ENDBRANCH   1   4
TORSDOF 2
REMARK  Name = molecules/PEASPLKKXBYDKL-FXEVSJAOSA-N.pdb
REMARK                            x       y       z     vdW  Elec       q    Type
REMARK                         _______ _______ _______ _____ _____    ______ ____
ROOT
ATOM      1  C   LIG    1        5.289   4.143   0.000  0.00  0.00    +0.000 C 
ENDROOT
TORSDOF 0
REMARK  Name = molecules/PEASPLKKXBYDKL-FXEVSJAOSA-N.pdb
REMARK                            x       y       z     vdW  Elec       q    Type
REMARK                         _______ _______ _______ _____ _____    ______ ____
ROOT
ATOM      1  O   LIG    1        3.551   6.074   0.000  0.00  0.00    -0.386 OA
ATOM      2  C   LIG    1        3.675   7.383   0.000  0.00  0.00    +0.176 C 
ATOM      3  H   LIG    1        3.281   5.389   0.000  0.00  0.00    +0.210 HD
ENDROOT
TORSDOF 0
REMARK  Name = molecules/PEASPLKKXBYDKL-FXEVSJAOSA-N.pdb
REMARK                            x       y       z     vdW  Elec       q    Type
REMARK                         _______ _______ _______ _____ _____    ______ ____
ROOT
ATOM      1  C   LIG    1        1.785   5.493   0.000  0.00  0.00    +0.000 C 
ENDROOT
TORSDOF 0
REMARK  Name = molecules/PEASPLKKXBYDKL-FXEVSJAOSA-N.pdb
REMARK                            x       y       z     vdW  Elec       q    Type
REMARK                         _______ _______ _______ _____ _____    ______ ____
ROOT
ATOM      1  C   LIG    1        2.248   6.920   0.000  0.00  0.00    +0.032 C 
ATOM      2  C   LIG    1        1.367   8.133   0.000  0.00  0.00    -0.014 A 
ATOM      3  C   LIG    1       -0.125   8.290   0.000  0.00  0.00    +0.006 A 
ATOM      4  C   LIG    1       -0.735   9.661   0.000  0.00  0.00    +0.000 A 
ATOM      5  C   LIG    1        0.146  10.874   0.000  0.00  0.00    +0.002 A 
ATOM      6  C   LIG    1        1.638  10.717   0.000  0.00  0.00    +0.027 A 
ATOM      7  C   LIG    1        2.248   9.347   0.000  0.00  0.00    +0.076 A 
ATOM      8  N   LIG    1        3.675   8.883   0.000  0.00  0.00    -0.129 NA
ENDROOT
TORSDOF 0
REMARK  Name = molecules/PEASPLKKXBYDKL-FXEVSJAOSA-N.pdb
REMARK                            x       y       z     vdW  Elec       q    Type
REMARK                         _______ _______ _______ _____ _____    ______ ____
ROOT
ATOM      1  C   LIG    1        1.321   4.067   0.000  0.00  0.00    +0.000 C 
ENDROOT
TORSDOF 0
REMARK  Name = molecules/PEASPLKKXBYDKL-FXEVSJAOSA-N.pdb
REMARK                            x       y       z     vdW  Elec       q    Type
REMARK                         _______ _______ _______ _____ _____    ______ ____
ROOT
ATOM      1  C   LIG    1       -0.029   0.562   0.000  0.00  0.00    +0.000 C 
ENDROOT
TORSDOF 0
REMARK  Name = molecules/PEASPLKKXBYDKL-FXEVSJAOSA-N.pdb
REMARK                            x       y       z     vdW  Elec       q    Type
REMARK                         _______ _______ _______ _____ _____    ______ ____
ROOT
ATOM      1  C   LIG    1        2.825  -0.365   0.000  0.00  0.00    +0.000 C 
ENDROOT
TORSDOF 0
REMARK  Name = molecules/PEASPLKKXBYDKL-FXEVSJAOSA-N.pdb
REMARK                            x       y       z     vdW  Elec       q    Type
REMARK                         _______ _______ _______ _____ _____    ______ ____
ROOT
ATOM      1  C   LIG    1        1.398   0.099   0.000  0.00  0.00    +0.000 C 
ATOM      2  C   LIG    1        2.836  -0.157   0.000  0.00  0.00    +0.000 C 
ENDROOT
TORSDOF 0
REMARK  Name = molecules/PEASPLKKXBYDKL-FXEVSJAOSA-N.pdb
REMARK                            x       y       z     vdW  Elec       q    Type
REMARK                         _______ _______ _______ _____ _____    ______ ____
ROOT
ATOM      1  O   LIG    1       -0.106   1.445   0.000  0.00  0.00    -0.379 OA
ATOM      2  C   LIG    1       -0.330   2.237   0.000  0.00  0.00    +0.169 C 
ATOM      3  H   LIG    1       -0.046   0.718   0.000  0.00  0.00    +0.211 HD
ENDROOT
TORSDOF 0
REMARK  Name = molecules/PEASPLKKXBYDKL-FXEVSJAOSA-N.pdb
REMARK                            x       y       z     vdW  Elec       q    Type
REMARK                         _______ _______ _______ _____ _____    ______ ____
ROOT
ATOM      1  C   LIG    1       -3.033  -1.404   0.000  0.00  0.00    +0.000 C 
ENDROOT
TORSDOF 0
REMARK  Name = molecules/PEASPLKKXBYDKL-FXEVSJAOSA-N.pdb
REMARK                            x       y       z     vdW  Elec       q    Type
REMARK                         _______ _______ _______ _____ _____    ______ ____
ROOT
ATOM      1  C   LIG    1       -2.106   1.449   0.000  0.00  0.00    +0.000 C 
ATOM      2  C   LIG    1       -1.756   2.701   0.000  0.00  0.00    +0.000 C 
ENDROOT
TORSDOF 0
REMARK  Name = molecules/PEASPLKKXBYDKL-FXEVSJAOSA-N.pdb
REMARK                            x       y       z     vdW  Elec       q    Type
REMARK                         _______ _______ _______ _____ _____    ______ ____
ROOT
ATOM      1  O   HOH    1       -1.643   2.875   0.000  0.00  0.00    -0.253 OA
ATOM      2  H   HOH    0       -1.293   4.127   0.000  0.00  0.00    +0.253 HD
ENDROOT
TORSDOF 0
REMARK  Name = molecules/PEASPLKKXBYDKL-FXEVSJAOSA-N.pdb
REMARK                            x       y       z     vdW  Elec       q    Type
REMARK                         _______ _______ _______ _____ _____    ______ ____
ROOT
ATOM      1  O   LIG    1       -4.515  -1.170   0.000  0.00  0.00    +0.000 OA
ATOM      2  O   LIG    1       -4.051  -1.988   0.000  0.00  0.00    +0.000 OA
ATOM      3  O   LIG    1       -3.792  -0.534   0.000  0.00  0.00    +0.000 OA
ENDROOT
TORSDOF 0
REMARK  Name = molecules/PEASPLKKXBYDKL-FXEVSJAOSA-N.pdb
REMARK                            x       y       z     vdW  Elec       q    Type
REMARK                         _______ _______ _______ _____ _____    ______ ____
ROOT
ATOM      1  C   LIG    1        1.786  -5.336   0.000  0.00  0.00    +0.007 C 
ATOM      2  C   LIG    1        0.360  -4.873   0.000  0.00  0.00    -0.015 C 
ATOM      3  C   LIG    1       -0.104  -6.299   0.000  0.00  0.00    +0.007 C 
ENDROOT
TORSDOF 0
REMARK  Name = molecules/PEASPLKKXBYDKL-FXEVSJAOSA-N.pdb
REMARK                            x       y       z     vdW  Elec       q    Type
REMARK                         _______ _______ _______ _____ _____    ______ ____
ROOT
ATOM      1  C   LIG    1       -1.067  -4.409   0.000  0.00  0.00    +0.169 C 
ATOM      2  O   LIG    1       -0.725  -3.203   0.000  0.00  0.00    -0.379 OA
ATOM      3  H   LIG    1       -0.531  -2.572   0.000  0.00  0.00    +0.211 HD
ENDROOT
TORSDOF 0
REMARK  Name = molecules/PEASPLKKXBYDKL-FXEVSJAOSA-N.pdb
REMARK                            x       y       z     vdW  Elec       q    Type
REMARK                         _______ _______ _______ _____ _____    ______ ____
ROOT
ATOM      1  C   LIG    1       -2.493  -3.946   0.000  0.00  0.00    +0.000 C 
ENDROOT
TORSDOF 0
REMARK  Name = molecules/PEASPLKKXBYDKL-FXEVSJAOSA-N.pdb
REMARK                            x       y       z     vdW  Elec       q    Type
REMARK                         _______ _______ _______ _____ _____    ______ ____
ROOT
ATOM      1  C   LIG    1       -3.687   0.962   0.000  0.00  0.00    -0.000 C 
ENDROOT
TORSDOF 0
REMARK  Name = molecules/PEASPLKKXBYDKL-FXEVSJAOSA-N.pdb
REMARK                            x       y       z     vdW  Elec       q    Type
REMARK                         _______ _______ _______ _____ _____    ______ ____
ROOT
ATOM      1  C   LIG    1       -6.698   4.306   0.000  0.00  0.00    +0.021 A 
ATOM      2  C   LIG    1       -8.190   4.150   0.000  0.00  0.00    +0.008 A 
ATOM      3  C   LIG    1       -9.071   2.936   0.000  0.00  0.00    +0.010 A 
ATOM      4  C   LIG    1      -10.563   3.093   0.000  0.00  0.00    +0.001 A 
ATOM      5  C   LIG    1      -11.173   4.463   0.000  0.00  0.00    +0.002 A 
ATOM      6  C   LIG    1      -10.292   5.677   0.000  0.00  0.00    +0.028 A 
ATOM      7  C   LIG    1       -8.800   5.520   0.000  0.00  0.00    +0.071 A 
ATOM      8  N   LIG    1       -7.685   6.524   0.000  0.00  0.00    -0.255 NA
ATOM      9  C   LIG    1       -6.386   5.774   0.000  0.00  0.00    +0.118 A 
ENDROOT
BRANCH   1  10
ATOM     10  C   LIG    1       -5.694   3.192   0.000  0.00  0.00    +0.209 C 
ATOM     11  O   LIG    1       -4.583   2.627   0.000  0.00  0.00    -0.215 OA
ENDBRANCH   1  10
TORSDOF 1
REMARK  Name = molecules/PEASPLKKXBYDKL-FXEVSJAOSA-N.pdb
REMARK                            x       y       z     vdW  Elec       q    Type
REMARK                         _______ _______ _______ _____ _____    ______ ____
ROOT
ATOM      1  C   LIG    1       -3.183   3.164   0.000  0.00  0.00    +0.000 C 
ENDROOT
TORSDOF 0
REMARK  Name = molecules/PEASPLKKXBYDKL-FXEVSJAOSA-N.pdb
REMARK                            x       y       z     vdW  Elec       q    Type
REMARK                         _______ _______ _______ _____ _____    ______ ____
ROOT
ATOM      1  C   LIG    1        3.638   2.314   0.000  0.00  0.00    +0.000 C 
ENDROOT
TORSDOF 0
REMARK  Name = molecules/PEASPLKKXBYDKL-FXEVSJAOSA-N.pdb
REMARK                            x       y       z     vdW  Elec       q    Type
REMARK                         _______ _______ _______ _____ _____    ______ ____
ROOT
ATOM      1  C   LIG    1        3.950   0.847   0.000  0.00  0.00    -0.000 C 
ENDROOT
TORSDOF 0
REMARK  Name = molecules/PEASPLKKXBYDKL-FXEVSJAOSA-N.pdb
REMARK                            x       y       z     vdW  Elec       q    Type
REMARK                         _______ _______ _______ _____ _____    ______ ____
ROOT
ATOM      1  H   UNK    1       87.457  48.827   0.000  0.00  0.00    +0.000 HD
ENDROOT
TORSDOF 0
REMARK  Name = molecules/PEASPLKKXBYDKL-FXEVSJAOSA-N.pdb
REMARK                            x       y       z     vdW  Elec       q    Type
REMARK                         _______ _______ _______ _____ _____    ______ ____
ROOT
ATOM      1  H   UNK    1       81.238  45.699   0.000  0.00  0.00    +0.000 HD
ENDROOT
TORSDOF 0
REMARK  Name = molecules/PEASPLKKXBYDKL-FXEVSJAOSA-N.pdb
REMARK                            x       y       z     vdW  Elec       q    Type
REMARK                         _______ _______ _______ _____ _____    ______ ____
ROOT
ATOM      1  H   UNK    1       74.733  42.343   0.000  0.00  0.00    +0.000 HD
ENDROOT
TORSDOF 0
REMARK  Name = molecules/PEASPLKKXBYDKL-FXEVSJAOSA-N.pdb
REMARK                            x       y       z     vdW  Elec       q    Type
REMARK                         _______ _______ _______ _____ _____    ______ ____
ROOT
ATOM      1  H   UNK    1       68.514  39.215   0.000  0.00  0.00    +0.000 HD
ENDROOT
TORSDOF 0
REMARK  Name = molecules/PEASPLKKXBYDKL-FXEVSJAOSA-N.pdb
REMARK                            x       y       z     vdW  Elec       q    Type
REMARK                         _______ _______ _______ _____ _____    ______ ____
ROOT
ATOM      1  H   UNK    1       -4.546  -5.904   0.000  0.00  0.00    +0.000 HD
ENDROOT
TORSDOF 0
REMARK  Name = molecules/PEASPLKKXBYDKL-FXEVSJAOSA-N.pdb
REMARK                            x       y       z     vdW  Elec       q    Type
REMARK                         _______ _______ _______ _____ _____    ______ ____
ROOT
ATOM      1  H   UNK    1       -7.278   1.360   0.000  0.00  0.00    +0.000 HD
ENDROOT
TORSDOF 0
REMARK  Name = molecules/PEASPLKKXBYDKL-FXEVSJAOSA-N.pdb
REMARK                            x       y       z     vdW  Elec       q    Type
REMARK                         _______ _______ _______ _____ _____    ______ ____
ROOT
ATOM      1  H   UNK    1       -4.921   5.095   0.000  0.00  0.00    +0.000 HD
ENDROOT
TORSDOF 0
REMARK  Name = molecules/PEASPLKKXBYDKL-FXEVSJAOSA-N.pdb
REMARK                            x       y       z     vdW  Elec       q    Type
REMARK                         _______ _______ _______ _____ _____    ______ ____
ROOT
ATOM      1  H   UNK    1       -2.380   5.635   0.000  0.00  0.00    +0.000 HD
ENDROOT
TORSDOF 0
REMARK  Name = molecules/PEASPLKKXBYDKL-FXEVSJAOSA-N.pdb
REMARK                            x       y       z     vdW  Elec       q    Type
REMARK                         _______ _______ _______ _____ _____    ______ ____
ROOT
ATOM      1  H   UNK    1       91.706  57.698   0.000  0.00  0.00    +0.000 HD
ENDROOT
TORSDOF 0
REMARK  Name = molecules/PEASPLKKXBYDKL-FXEVSJAOSA-N.pdb
REMARK                            x       y       z     vdW  Elec       q    Type
REMARK                         _______ _______ _______ _____ _____    ______ ____
ROOT
ATOM      1  H   UNK    1       89.821  43.166   0.000  0.00  0.00    +0.000 HD
ENDROOT
TORSDOF 0
REMARK  Name = molecules/PEASPLKKXBYDKL-FXEVSJAOSA-N.pdb
REMARK                            x       y       z     vdW  Elec       q    Type
REMARK                         _______ _______ _______ _____ _____    ______ ____
ROOT
ATOM      1  H   UNK    1       81.980  39.338   0.000  0.00  0.00    +0.000 HD
ENDROOT
TORSDOF 0
REMARK  Name = molecules/PEASPLKKXBYDKL-FXEVSJAOSA-N.pdb
REMARK                            x       y       z     vdW  Elec       q    Type
REMARK                         _______ _______ _______ _____ _____    ______ ____
ROOT
ATOM      1  H   UNK    1       69.703  34.737   0.000  0.00  0.00    +0.000 HD
ENDROOT
TORSDOF 0
REMARK  Name = molecules/PEASPLKKXBYDKL-FXEVSJAOSA-N.pdb
REMARK                            x       y       z     vdW  Elec       q    Type
REMARK                         _______ _______ _______ _____ _____    ______ ____
ROOT
ATOM      1  H   UNK    1       69.370  32.468   0.000  0.00  0.00    +0.000 HD
ENDROOT
TORSDOF 0
REMARK  Name = molecules/PEASPLKKXBYDKL-FXEVSJAOSA-N.pdb
REMARK                            x       y       z     vdW  Elec       q    Type
REMARK                         _______ _______ _______ _____ _____    ______ ____
ROOT
ATOM      1  H   UNK    1       59.431  40.063   0.000  0.00  0.00    +0.000 HD
ENDROOT
TORSDOF 0
REMARK  Name = molecules/PEASPLKKXBYDKL-FXEVSJAOSA-N.pdb
REMARK                            x       y       z     vdW  Elec       q    Type
REMARK                         _______ _______ _______ _____ _____    ______ ____
ROOT
ATOM      1  H   UNK    1       59.352  27.683   0.000  0.00  0.00    +0.000 HD
ENDROOT
TORSDOF 0
REMARK  Name = molecules/PEASPLKKXBYDKL-FXEVSJAOSA-N.pdb
REMARK                            x       y       z     vdW  Elec       q    Type
REMARK                         _______ _______ _______ _____ _____    ______ ____
ROOT
ATOM      1  H   UNK    1       55.540  36.018   0.000  0.00  0.00    +0.000 HD
ENDROOT
TORSDOF 0
REMARK  Name = molecules/PEASPLKKXBYDKL-FXEVSJAOSA-N.pdb
REMARK                            x       y       z     vdW  Elec       q    Type
REMARK                         _______ _______ _______ _____ _____    ______ ____
ROOT
ATOM      1  H   UNK    1       56.080  33.477   0.000  0.00  0.00    +0.000 HD
ENDROOT
TORSDOF 0
REMARK  Name = molecules/PEASPLKKXBYDKL-FXEVSJAOSA-N.pdb
REMARK                            x       y       z     vdW  Elec       q    Type
REMARK                         _______ _______ _______ _____ _____    ______ ____
ROOT
ATOM      1  H   UNK    1       54.416  23.977   0.000  0.00  0.00    +0.000 HD
ENDROOT
TORSDOF 0
REMARK  Name = molecules/PEASPLKKXBYDKL-FXEVSJAOSA-N.pdb
REMARK                            x       y       z     vdW  Elec       q    Type
REMARK                         _______ _______ _______ _____ _____    ______ ____
ROOT
ATOM      1  H   UNK    1       51.875  23.437   0.000  0.00  0.00    +0.000 HD
ENDROOT
TORSDOF 0
REMARK  Name = molecules/PEASPLKKXBYDKL-FXEVSJAOSA-N.pdb
REMARK                            x       y       z     vdW  Elec       q    Type
REMARK                         _______ _______ _______ _____ _____    ______ ____
ROOT
ATOM      1  H   UNK    1       49.178  32.777   0.000  0.00  0.00    +0.000 HD
ENDROOT
TORSDOF 0
REMARK  Name = molecules/PEASPLKKXBYDKL-FXEVSJAOSA-N.pdb
REMARK                            x       y       z     vdW  Elec       q    Type
REMARK                         _______ _______ _______ _____ _____    ______ ____
ROOT
ATOM      1  H   UNK    1       49.718  30.235   0.000  0.00  0.00    +0.000 HD
ENDROOT
TORSDOF 0
REMARK  Name = molecules/PEASPLKKXBYDKL-FXEVSJAOSA-N.pdb
REMARK                            x       y       z     vdW  Elec       q    Type
REMARK                         _______ _______ _______ _____ _____    ______ ____
ROOT
ATOM      1  H   UNK    1       49.480  20.272   0.000  0.00  0.00    +0.000 HD
ENDROOT
TORSDOF 0
REMARK  Name = molecules/PEASPLKKXBYDKL-FXEVSJAOSA-N.pdb
REMARK                            x       y       z     vdW  Elec       q    Type
REMARK                         _______ _______ _______ _____ _____    ______ ____
ROOT
ATOM      1  H   UNK    1       46.939  19.732   0.000  0.00  0.00    +0.000 HD
ENDROOT
TORSDOF 0
REMARK  Name = molecules/PEASPLKKXBYDKL-FXEVSJAOSA-N.pdb
REMARK                            x       y       z     vdW  Elec       q    Type
REMARK                         _______ _______ _______ _____ _____    ______ ____
ROOT
ATOM      1  H   UNK    1       42.816  29.535   0.000  0.00  0.00    +0.000 HD
ENDROOT
TORSDOF 0
REMARK  Name = molecules/PEASPLKKXBYDKL-FXEVSJAOSA-N.pdb
REMARK                            x       y       z     vdW  Elec       q    Type
REMARK                         _______ _______ _______ _____ _____    ______ ____
ROOT
ATOM      1  H   UNK    1       44.545  16.567   0.000  0.00  0.00    +0.000 HD
ENDROOT
TORSDOF 0
REMARK  Name = molecules/PEASPLKKXBYDKL-FXEVSJAOSA-N.pdb
REMARK                            x       y       z     vdW  Elec       q    Type
REMARK                         _______ _______ _______ _____ _____    ______ ____
ROOT
ATOM      1  H   UNK    1       45.348  19.038   0.000  0.00  0.00    +0.000 HD
ENDROOT
TORSDOF 0
REMARK  Name = molecules/PEASPLKKXBYDKL-FXEVSJAOSA-N.pdb
REMARK                            x       y       z     vdW  Elec       q    Type
REMARK                         _______ _______ _______ _____ _____    ______ ____
ROOT
ATOM      1  H   UNK    1       35.990  24.867   0.000  0.00  0.00    +0.000 HD
ENDROOT
TORSDOF 0
REMARK  Name = molecules/PEASPLKKXBYDKL-FXEVSJAOSA-N.pdb
REMARK                            x       y       z     vdW  Elec       q    Type
REMARK                         _______ _______ _______ _____ _____    ______ ____
ROOT
ATOM      1  H   UNK    1       37.559  16.260   0.000  0.00  0.00    +0.000 HD
ENDROOT
TORSDOF 0
REMARK  Name = molecules/PEASPLKKXBYDKL-FXEVSJAOSA-N.pdb
REMARK                            x       y       z     vdW  Elec       q    Type
REMARK                         _______ _______ _______ _____ _____    ______ ____
ROOT
ATOM      1  H   UNK    1       27.620  23.855   0.000  0.00  0.00    +0.000 HD
ENDROOT
TORSDOF 0
REMARK  Name = molecules/PEASPLKKXBYDKL-FXEVSJAOSA-N.pdb
REMARK                            x       y       z     vdW  Elec       q    Type
REMARK                         _______ _______ _______ _____ _____    ______ ____
ROOT
ATOM      1  H   UNK    1       25.690  22.116   0.000  0.00  0.00    +0.000 HD
ENDROOT
TORSDOF 0
REMARK  Name = molecules/PEASPLKKXBYDKL-FXEVSJAOSA-N.pdb
REMARK                            x       y       z     vdW  Elec       q    Type
REMARK                         _______ _______ _______ _____ _____    ______ ____
ROOT
ATOM      1  H   UNK    1       31.197  13.018   0.000  0.00  0.00    +0.000 HD
ENDROOT
TORSDOF 0
REMARK  Name = molecules/PEASPLKKXBYDKL-FXEVSJAOSA-N.pdb
REMARK                            x       y       z     vdW  Elec       q    Type
REMARK                         _______ _______ _______ _____ _____    ______ ____
ROOT
ATOM      1  H   UNK    1       17.367  16.568   0.000  0.00  0.00    +0.000 HD
ENDROOT
TORSDOF 0
REMARK  Name = molecules/PEASPLKKXBYDKL-FXEVSJAOSA-N.pdb
REMARK                            x       y       z     vdW  Elec       q    Type
REMARK                         _______ _______ _______ _____ _____    ______ ____
ROOT
ATOM      1  H   UNK    1       10.541  11.900   0.000  0.00  0.00    +0.000 HD
ENDROOT
TORSDOF 0
REMARK  Name = molecules/PEASPLKKXBYDKL-FXEVSJAOSA-N.pdb
REMARK                            x       y       z     vdW  Elec       q    Type
REMARK                         _______ _______ _______ _____ _____    ______ ____
ROOT
ATOM      1  H   UNK    1       12.734   0.358   0.000  0.00  0.00    +0.000 HD
ENDROOT
TORSDOF 0
REMARK  Name = molecules/PEASPLKKXBYDKL-FXEVSJAOSA-N.pdb
REMARK                            x       y       z     vdW  Elec       q    Type
REMARK                         _______ _______ _______ _____ _____    ______ ____
ROOT
ATOM      1  H   UNK    1       13.651   2.686   0.000  0.00  0.00    +0.000 HD
ENDROOT
TORSDOF 0
REMARK  Name = molecules/PEASPLKKXBYDKL-FXEVSJAOSA-N.pdb
REMARK                            x       y       z     vdW  Elec       q    Type
REMARK                         _______ _______ _______ _____ _____    ______ ____
ROOT
ATOM      1  H   UNK    1        0.358   5.957   0.000  0.00  0.00    +0.000 HD
ENDROOT
TORSDOF 0
REMARK  Name = molecules/PEASPLKKXBYDKL-FXEVSJAOSA-N.pdb
REMARK                            x       y       z     vdW  Elec       q    Type
REMARK                         _______ _______ _______ _____ _____    ______ ____
ROOT
ATOM      1  H   UNK    1        4.888   9.765   0.000  0.00  0.00    +0.000 HD
ENDROOT
TORSDOF 0
REMARK  Name = molecules/PEASPLKKXBYDKL-FXEVSJAOSA-N.pdb
REMARK                            x       y       z     vdW  Elec       q    Type
REMARK                         _______ _______ _______ _____ _____    ______ ____
ROOT
ATOM      1  H   UNK    1       -0.038   4.701   0.000  0.00  0.00    +0.000 HD
ENDROOT
TORSDOF 0
REMARK  Name = molecules/PEASPLKKXBYDKL-FXEVSJAOSA-N.pdb
REMARK                            x       y       z     vdW  Elec       q    Type
REMARK                         _______ _______ _______ _____ _____    ______ ____
ROOT
ATOM      1  H   UNK    1        1.293  -1.397   0.000  0.00  0.00    +0.000 HD
ENDROOT
TORSDOF 0
REMARK  Name = molecules/PEASPLKKXBYDKL-FXEVSJAOSA-N.pdb
REMARK                            x       y       z     vdW  Elec       q    Type
REMARK                         _______ _______ _______ _____ _____    ______ ____
ROOT
ATOM      1  H   UNK    1       -0.610   1.344   0.000  0.00  0.00    +0.000 HD
ENDROOT
TORSDOF 0
REMARK  Name = molecules/PEASPLKKXBYDKL-FXEVSJAOSA-N.pdb
REMARK                            x       y       z     vdW  Elec       q    Type
REMARK                         _______ _______ _______ _____ _____    ______ ____
ROOT
ATOM      1  H   UNK    1       -0.225   3.364   0.000  0.00  0.00    +0.000 HD
ENDROOT
TORSDOF 0
REMARK  Name = molecules/PEASPLKKXBYDKL-FXEVSJAOSA-N.pdb
REMARK                            x       y       z     vdW  Elec       q    Type
REMARK                         _______ _______ _______ _____ _____    ______ ____
ROOT
ATOM      1  H   UNK    1       -1.701  -5.769   0.000  0.00  0.00    +0.000 HD
ENDROOT
TORSDOF 0
REMARK  Name = molecules/PEASPLKKXBYDKL-FXEVSJAOSA-N.pdb
REMARK                            x       y       z     vdW  Elec       q    Type
REMARK                         _______ _______ _______ _____ _____    ______ ____
ROOT
ATOM      1  H   UNK    1       -0.272  -3.137   0.000  0.00  0.00    +0.000 HD
ENDROOT
TORSDOF 0
REMARK  Name = molecules/PEASPLKKXBYDKL-FXEVSJAOSA-N.pdb
REMARK                            x       y       z     vdW  Elec       q    Type
REMARK                         _______ _______ _______ _____ _____    ______ ____
ROOT
ATOM      1  H   UNK    1       -2.957  -5.372   0.000  0.00  0.00    +0.000 HD
ENDROOT
TORSDOF 0
REMARK  Name = molecules/PEASPLKKXBYDKL-FXEVSJAOSA-N.pdb
REMARK                            x       y       z     vdW  Elec       q    Type
REMARK                         _______ _______ _______ _____ _____    ______ ____
ROOT
ATOM      1  H   UNK    1       -6.925 -10.729   0.000  0.00  0.00    +0.000 HD
ENDROOT
TORSDOF 0
REMARK  Name = molecules/PEASPLKKXBYDKL-FXEVSJAOSA-N.pdb
REMARK                            x       y       z     vdW  Elec       q    Type
REMARK                         _______ _______ _______ _____ _____    ______ ____
ROOT
ATOM      1  H   UNK    1        1.260  -1.415   0.000  0.00  0.00    +0.000 HD
ENDROOT
TORSDOF 0
REMARK  Name = molecules/PEASPLKKXBYDKL-FXEVSJAOSA-N.pdb
REMARK                            x       y       z     vdW  Elec       q    Type
REMARK                         _______ _______ _______ _____ _____    ______ ____
ROOT
ATOM      1  H   UNK    1       -6.923   2.332   0.000  0.00  0.00    +0.000 HD
ENDROOT
TORSDOF 0
REMARK  Name = molecules/PEASPLKKXBYDKL-FXEVSJAOSA-N.pdb
REMARK                            x       y       z     vdW  Elec       q    Type
REMARK                         _______ _______ _______ _____ _____    ______ ____
ROOT
ATOM      1  H   UNK    1       -7.842   8.016   0.000  0.00  0.00    +0.000 HD
ENDROOT
TORSDOF 0
REMARK  Name = molecules/PEASPLKKXBYDKL-FXEVSJAOSA-N.pdb
REMARK                            x       y       z     vdW  Elec       q    Type
REMARK                         _______ _______ _______ _____ _____    ______ ____
ROOT
ATOM      1  H   UNK    1       -0.616   0.765   0.000  0.00  0.00    +0.000 HD
ENDROOT
TORSDOF 0
