REMARK  Name = molecules/PEDCQBHIVMGVHV-UHFFFAOYSA-N.pdb
REMARK                            x       y       z     vdW  Elec       q    Type
REMARK                         _______ _______ _______ _____ _____    ______ ____
ROOT
ATOM      1  C   LIG    1       -0.131  -0.616  -0.511  0.00  0.00    +0.165 C 
ENDROOT
BRANCH   1   2
ATOM      2  O   LIG    1       -0.302  -1.565   0.511  0.00  0.00    -0.387 OA
ATOM      3  H   LIG    1       -0.373  -2.480   0.144  0.00  0.00    +0.210 HD
ENDBRANCH   1   2
BRANCH   1   4
ATOM      4  C   LIG    1       -1.188   0.426  -0.349  0.00  0.00    +0.189 C 
BRANCH   4   5
ATOM      5  O   LIG    1       -1.076   1.052   0.903  0.00  0.00    -0.392 OA
ATOM      6  H   LIG    1       -1.834   1.677   1.033  0.00  0.00    +0.210 HD
ENDBRANCH   4   5
ENDBRANCH   1   4
BRANCH   1   7
ATOM      7  C   LIG    1        1.269  -0.075  -0.369  0.00  0.00    +0.189 C 
BRANCH   7   8
ATOM      8  O   LIG    1        1.595   0.876  -1.307  0.00  0.00    -0.392 OA
ATOM      9  H   LIG    1        2.313   1.442  -0.917  0.00  0.00    +0.210 HD
ENDBRANCH   7   8
ENDBRANCH   1   7
TORSDOF 5
