REMARK  Name = molecules/PEZPMAYDXJQYRV-UHFFFAOYSA-N.pdb
REMARK                            x       y       z     vdW  Elec       q    Type
REMARK                         _______ _______ _______ _____ _____    ______ ____
ROOT
ATOM      1  C   LIG    1       -1.251   0.758   0.438  0.00  0.00    +0.039 A 
ATOM      2  C   LIG    1       -0.270   1.748   0.607  0.00  0.00    +0.025 A 
ATOM      3  C   LIG    1        1.059   1.561   0.486  0.00  0.00    +0.025 A 
ATOM      4  C   LIG    1        1.540   0.285   0.164  0.00  0.00    +0.039 A 
ATOM      5  C   LIG    1        0.619  -0.734  -0.015  0.00  0.00    +0.056 A 
ATOM      6  C   LIG    1        1.103  -2.067  -0.350  0.00  0.00    +0.198 C 
ATOM      7  O   LIG    1        2.324  -2.334  -0.484  0.00  0.00    -0.286 OA
ATOM      8  C   LIG    1        0.135  -3.159  -0.544  0.00  0.00    +0.051 A 
ATOM      9  C   LIG    1       -1.209  -2.950  -0.416  0.00  0.00    +0.036 A 
ATOM     10  C   LIG    1       -1.674  -1.589  -0.076  0.00  0.00    +0.196 C 
ATOM     11  O   LIG    1       -2.904  -1.457   0.027  0.00  0.00    -0.287 OA
ATOM     12  C   LIG    1       -2.080  -4.002  -0.606  0.00  0.00    +0.032 A 
ATOM     13  C   LIG    1       -1.599  -5.262  -0.924  0.00  0.00    +0.111 A 
ATOM     14  N   LIG    1       -0.272  -5.420  -1.039  0.00  0.00    -0.263 NA
ATOM     15  C   LIG    1        0.611  -4.425  -0.863  0.00  0.00    +0.123 A 
ATOM     16  C   LIG    1       -0.754  -0.483   0.124  0.00  0.00    +0.056 A 
ENDROOT
BRANCH   1  17
ATOM     17  N   LIG    1       -2.608   1.088   0.594  0.00  0.00    -0.342 N 
ATOM     18  H   LIG    1       -3.377   0.448   0.493  0.00  0.00    +0.146 HD
BRANCH  17  19
ATOM     19  C   LIG    1       -2.957   2.463   0.931  0.00  0.00    +0.116 C 
BRANCH  19  20
ATOM     20  C   LIG    1       -4.435   2.667   1.065  0.00  0.00    +0.096 C 
BRANCH  20  21
ATOM     21  N   LIG    1       -5.155   2.357  -0.152  0.00  0.00    -0.329 NA
ATOM     22  H   LIG    1       -6.138   2.154   0.059  0.00  0.00    +0.118 HD
ATOM     23  H   LIG    1       -4.675   1.659  -0.746  0.00  0.00    +0.118 HD
ENDBRANCH  20  21
ENDBRANCH  19  20
ENDBRANCH  17  19
ENDBRANCH   1  17
BRANCH   4  24
ATOM     24  N   LIG    1        2.932   0.166   0.054  0.00  0.00    -0.342 N 
ATOM     25  H   LIG    1        3.412  -0.702  -0.173  0.00  0.00    +0.146 HD
BRANCH  24  26
ATOM     26  C   LIG    1        3.775   1.341   0.274  0.00  0.00    +0.116 C 
BRANCH  26  27
ATOM     27  C   LIG    1        5.231   1.024   0.115  0.00  0.00    +0.096 C 
BRANCH  27  28
ATOM     28  N   LIG    1        5.975   2.245   0.352  0.00  0.00    -0.329 NA
ATOM     29  H   LIG    1        5.545   2.730   1.149  0.00  0.00    +0.118 HD
ATOM     30  H   LIG    1        6.050   2.796  -0.519  0.00  0.00    +0.118 HD
ENDBRANCH  27  28
ENDBRANCH  26  27
ENDBRANCH  24  26
ENDBRANCH   4  24
TORSDOF 8
