REMARK  Name = molecules/PFGWGEPQIUAZME-NXSMLHPHSA-N.pdb
REMARK                            x       y       z     vdW  Elec       q    Type
REMARK                         _______ _______ _______ _____ _____    ______ ____
ROOT
ATOM      1  CA  TYR A  3       -1.048   0.633  -1.488  0.00  0.00    +0.163 C 
ENDROOT
BRANCH   1   2
ATOM      2  C   TYR A  3        0.158  -0.192  -1.485  0.00  0.00    +0.234 C 
ATOM      3  N   VAL A  4        1.504   0.216  -1.480  0.00  0.00    -0.302 N 
ATOM      4  H   VAL A  4        1.742   1.223  -1.495  0.00  0.00    +0.150 HD
ATOM      5  O   TYR A  3       -0.024  -1.465  -1.484  0.00  0.00    -0.274 OA
BRANCH   3   6
ATOM      6  CA  VAL A  4        2.596  -0.742  -1.451  0.00  0.00    +0.161 C 
BRANCH   6   7
ATOM      7  C   VAL A  4        3.551  -0.316  -0.398  0.00  0.00    +0.234 C 
ATOM      8  N   HIS A  5        4.517  -1.255   0.130  0.00  0.00    -0.302 N 
ATOM      9  H   HIS A  5        4.495  -2.212  -0.227  0.00  0.00    +0.150 HD
ATOM     10  O   VAL A  4        3.579   0.842   0.081  0.00  0.00    -0.274 OA
BRANCH   8  11
ATOM     11  CA  HIS A  5        5.483  -0.873   1.139  0.00  0.00    +0.165 C 
BRANCH  11  12
ATOM     12  C   HIS A  5        6.641  -1.779   1.204  0.00  0.00    +0.237 C 
ATOM     13  N   PRO A  6        7.972  -1.373   1.370  0.00  0.00    -0.288 N 
ATOM     14  CD  PRO A  6        9.127  -2.209   1.529  0.00  0.00    +0.109 C 
ATOM     15  CG  PRO A  6        9.962  -1.450   2.541  0.00  0.00    +0.021 C 
ATOM     16  CB  PRO A  6        9.530   0.006   2.421  0.00  0.00    +0.033 C 
ATOM     17  CA  PRO A  6        8.449   0.010   1.356  0.00  0.00    +0.162 C 
ATOM     18  O   HIS A  5        6.407  -3.025   1.102  0.00  0.00    -0.274 OA
BRANCH  17  19
ATOM     19  C   PRO A  6        8.994   0.300   0.017  0.00  0.00    +0.234 C 
ATOM     20  N   ALA A  7        9.415   1.590  -0.395  0.00  0.00    -0.301 N 
ATOM     21  H   ALA A  7        9.349   2.417   0.250  0.00  0.00    +0.150 HD
ATOM     22  O   PRO A  6        9.101  -0.619  -0.825  0.00  0.00    -0.274 OA
BRANCH  20  23
ATOM     23  CA  ALA A  7        9.950   1.818  -1.720  0.00  0.00    +0.179 C 
ATOM     24  CB  ALA A  7        8.865   2.470  -2.582  0.00  0.00    +0.040 C 
BRANCH  23  25
ATOM     25  C   ALA A  7       11.123   2.696  -1.736  0.00  0.00    +0.325 C 
ATOM     26  OXT ALA A  7       11.597   3.211  -0.711  0.00  0.00    -0.249 OA
BRANCH  25  27
ATOM     27  O   ALA A  7       11.723   2.956  -2.962  0.00  0.00    -0.479 OA
ATOM     28  H   ALA A  7       12.661   3.310  -3.058  0.00  0.00    +0.295 HD
ENDBRANCH  25  27
ENDBRANCH  23  25
ENDBRANCH  20  23
ENDBRANCH  17  19
ENDBRANCH  11  12
BRANCH  11  29
ATOM     29  CB  HIS A  5        4.693  -1.020   2.470  0.00  0.00    +0.088 C 
BRANCH  29  30
ATOM     30  CG  HIS A  5        5.592  -0.646   3.579  0.00  0.00    +0.061 A 
ATOM     31  ND1 HIS A  5        6.411  -1.471   4.295  0.00  0.00    -0.241 NA
ATOM     32  CE1 HIS A  5        7.062  -0.745   5.225  0.00  0.00    +0.196 A 
ATOM     33  NE2 HIS A  5        6.660   0.534   5.104  0.00  0.00    -0.351 N 
ATOM     34  HE2 HIS A  5        7.038   1.298   5.740  0.00  0.00    +0.166 HD
ATOM     35  CD2 HIS A  5        5.768   0.615   4.109  0.00  0.00    +0.107 A 
ENDBRANCH  29  30
ENDBRANCH  11  29
ENDBRANCH   8  11
ENDBRANCH   6   7
BRANCH   6  36
ATOM     36  CB  VAL A  4        3.385  -0.602  -2.770  0.00  0.00    +0.012 C 
ATOM     37  CG2 VAL A  4        4.532  -1.558  -2.809  0.00  0.00    +0.009 C 
ATOM     38  CG1 VAL A  4        3.759   0.818  -3.034  0.00  0.00    +0.009 C 
ENDBRANCH   6  36
ENDBRANCH   3   6
ENDBRANCH   1   2
BRANCH   1  40
ATOM     39  C   VAL A  2       -3.513   0.116  -1.967  0.00  0.00    +0.234 C 
ATOM     40  N   TYR A  3       -2.228  -0.162  -1.498  0.00  0.00    -0.302 N 
ATOM     41  H   TYR A  3       -2.102  -1.138  -1.074  0.00  0.00    +0.150 HD
ATOM     42  O   VAL A  2       -3.756   1.238  -2.466  0.00  0.00    -0.274 OA
BRANCH  39  43
ATOM     43  CA  VAL A  2       -4.625  -0.867  -1.900  0.00  0.00    +0.161 C 
BRANCH  43  46
ATOM     44  C   ARG A  1       -6.729  -0.928  -0.554  0.00  0.00    +0.234 C 
ATOM     45  O   ARG A  1       -6.273  -2.032  -0.088  0.00  0.00    -0.274 OA
ATOM     46  N   VAL A  2       -5.897  -0.289  -1.518  0.00  0.00    -0.302 N 
ATOM     47  H   VAL A  2       -6.206   0.588  -1.955  0.00  0.00    +0.150 HD
BRANCH  44  48
ATOM     48  CA  ARG A  1       -8.022  -0.467  -0.057  0.00  0.00    +0.159 C 
BRANCH  48  50
ATOM     49  C   UNK A  0       -9.747  -2.249   0.142  0.00  0.00    +0.227 C 
ATOM     50  N   ARG A  1       -8.647  -1.556   0.706  0.00  0.00    -0.303 N 
ATOM     51  H   ARG A  1       -8.322  -1.854   1.642  0.00  0.00    +0.149 HD
ATOM     52  O   UNK A  0      -10.156  -1.906  -0.986  0.00  0.00    -0.274 OA
BRANCH  49  53
ATOM     53  C   UNK A  0      -10.436  -3.363   0.829  0.00  0.00    +0.177 C 
BRANCH  53  54
ATOM     54  N   UNK A  0      -11.504  -3.945   0.099  0.00  0.00    -0.311 NA
ATOM     55  C   UNK A  0      -12.667  -3.148  -0.101  0.00  0.00    +0.101 C 
ATOM     56  H   UNK A  0      -11.276  -4.550  -0.693  0.00  0.00    +0.122 HD
ENDBRANCH  53  54
ENDBRANCH  49  53
ENDBRANCH  48  50
BRANCH  48  57
ATOM     57  CB  ARG A  1       -7.896   0.658   0.972  0.00  0.00    +0.035 C 
BRANCH  57  58
ATOM     58  CG  ARG A  1       -7.250   1.831   0.326  0.00  0.00    +0.039 C 
BRANCH  58  59
ATOM     59  CD  ARG A  1       -7.120   3.019   1.258  0.00  0.00    +0.196 C 
BRANCH  59  60
ATOM     60  NE  ARG A  1       -8.387   3.477   1.735  0.00  0.00    -0.276 N 
ATOM     61  HE  ARG A  1       -9.236   2.965   1.425  0.00  0.00    +0.258 HD
BRANCH  60  62
ATOM     62  CZ  ARG A  1       -8.429   4.604   2.606  0.00  0.00    +0.376 C 
ATOM     63  NH1 ARG A  1       -8.738   5.850   2.022  0.00  0.00    -0.289 N 
ATOM     64 HH11 ARG A  1       -8.145   6.691   2.135  0.00  0.00    +0.255 HD
ATOM     65 HH12 ARG A  1       -9.604   5.933   1.453  0.00  0.00    +0.255 HD
BRANCH  62  66
ATOM     66  NH2 ARG A  1       -8.189   4.441   3.853  0.00  0.00    -0.130 NA
ATOM     67  HH2 ARG A  1       -7.966   3.470   4.205  0.00  0.00    +0.306 HD
ENDBRANCH  62  66
ENDBRANCH  60  62
ENDBRANCH  59  60
ENDBRANCH  58  59
ENDBRANCH  57  58
ENDBRANCH  48  57
ENDBRANCH  44  48
ENDBRANCH  43  46
BRANCH  43  68
ATOM     68  CB  VAL A  2       -4.791  -1.439  -3.304  0.00  0.00    +0.012 C 
ATOM     69  CG2 VAL A  2       -3.475  -2.096  -3.744  0.00  0.00    +0.009 C 
ATOM     70  CG1 VAL A  2       -5.180  -0.381  -4.301  0.00  0.00    +0.009 C 
ENDBRANCH  43  68
ENDBRANCH  39  43
ENDBRANCH   1  40
BRANCH   1  71
ATOM     71  CB  TYR A  3       -1.051   1.575  -0.257  0.00  0.00    +0.067 C 
BRANCH  71  72
ATOM     72  CG  TYR A  3       -1.111   0.812   0.976  0.00  0.00    -0.045 A 
ATOM     73  CD2 TYR A  3       -0.010   0.344   1.644  0.00  0.00    +0.007 A 
ATOM     74  CE2 TYR A  3       -0.156  -0.402   2.806  0.00  0.00    +0.045 A 
ATOM     75  CZ  TYR A  3       -1.397  -0.687   3.311  0.00  0.00    +0.117 A 
ATOM     76  CE1 TYR A  3       -2.508  -0.225   2.655  0.00  0.00    +0.045 A 
ATOM     77  CD1 TYR A  3       -2.353   0.502   1.521  0.00  0.00    +0.007 A 
BRANCH  75  78
ATOM     78  OH  TYR A  3       -1.564  -1.443   4.486  0.00  0.00    -0.507 OA
ATOM     79  HH  TYR A  3       -1.600  -0.984   5.383  0.00  0.00    +0.292 HD
ENDBRANCH  75  78
ENDBRANCH  71  72
ENDBRANCH   1  71
TORSDOF 29
