REMARK  Name = molecules/PFOLLRNADZZWEX-OIKQGAJOSA-N.pdb
REMARK                            x       y       z     vdW  Elec       q    Type
REMARK                         _______ _______ _______ _____ _____    ______ ____
ROOT
ATOM      1  C   LIG    1        0.165  -0.315   0.630  0.00  0.00    +0.201 C 
ATOM      2  C   LIG    1        0.083   0.309   1.973  0.00  0.00    +0.042 C 
ATOM      3  C   LIG    1       -0.194  -0.632   3.092  0.00  0.00    +0.025 C 
ATOM      4  C   LIG    1        1.333   1.133   2.198  0.00  0.00    +0.025 C 
ATOM      5  S   LIG    1       -1.349   1.440   1.675  0.00  0.00    -0.127 S 
ATOM      6  C   LIG    1       -0.741   1.866   0.035  0.00  0.00    +0.165 C 
ATOM      7  C   LIG    1       -1.600   1.673  -1.147  0.00  0.00    +0.190 C 
ATOM      8  C   LIG    1       -0.281   1.143  -1.675  0.00  0.00    +0.240 C 
ATOM      9  O   LIG    1        0.396   1.162  -2.720  0.00  0.00    -0.273 OA
ATOM     10  N   LIG    1       -0.140   0.584  -0.394  0.00  0.00    -0.271 N 
ENDROOT
BRANCH   7  11
ATOM     11  N   LIG    1       -2.518   0.557  -1.153  0.00  0.00    -0.300 N 
ATOM     12  H   LIG    1       -2.323  -0.330  -0.661  0.00  0.00    +0.150 HD
ATOM     13  C   LIG    1       -3.727   0.702  -1.873  0.00  0.00    +0.235 C 
ATOM     14  O   LIG    1       -3.997   1.788  -2.502  0.00  0.00    -0.274 OA
BRANCH  13  15
ATOM     15  C   LIG    1       -4.676  -0.415  -1.893  0.00  0.00    +0.168 C 
BRANCH  15  16
ATOM     16  C   LIG    1       -5.316  -0.721  -0.607  0.00  0.00    -0.022 A 
ATOM     17  C   LIG    1       -4.909  -0.170   0.586  0.00  0.00    +0.005 A 
ATOM     18  C   LIG    1       -5.569  -0.498   1.769  0.00  0.00    +0.000 A 
ATOM     19  C   LIG    1       -6.637  -1.381   1.746  0.00  0.00    +0.000 A 
ATOM     20  C   LIG    1       -7.044  -1.932   0.555  0.00  0.00    +0.000 A 
ATOM     21  C   LIG    1       -6.381  -1.597  -0.604  0.00  0.00    +0.005 A 
ENDBRANCH  15  16
BRANCH  15  22
ATOM     22  N   LIG    1       -5.736  -0.096  -2.850  0.00  0.00    -0.316 NA
ATOM     23  H   LIG    1       -6.617   0.147  -2.347  0.00  0.00    +0.119 HD
ATOM     24  H   LIG    1       -5.845  -0.875  -3.524  0.00  0.00    +0.119 HD
ENDBRANCH  15  22
ENDBRANCH  13  15
ENDBRANCH   7  11
BRANCH   1  25
ATOM     25  C   LIG    1        1.542  -0.884   0.393  0.00  0.00    +0.332 C 
ATOM     26  O   LIG    1        2.010  -1.712   1.202  0.00  0.00    -0.249 OA
BRANCH  25  27
ATOM     27  O   LIG    1        2.264  -0.481  -0.717  0.00  0.00    -0.424 OA
BRANCH  27  28
ATOM     28  C   LIG    1        3.539  -0.976  -0.988  0.00  0.00    +0.370 C 
ATOM     29  C   LIG    1        3.418  -1.764  -2.300  0.00  0.00    +0.101 C 
BRANCH  28  30
ATOM     30  O   LIG    1        4.455   0.095  -1.143  0.00  0.00    -0.394 OA
BRANCH  30  31
ATOM     31  C   LIG    1        5.580   0.111  -0.331  0.00  0.00    +0.513 C 
ATOM     32  O   LIG    1        5.762  -0.810   0.515  0.00  0.00    -0.203 OA
BRANCH  31  33
ATOM     33  O   LIG    1        6.533   1.099  -0.397  0.00  0.00    -0.434 OA
BRANCH  33  34
ATOM     34  C   LIG    1        7.655   1.076   0.444  0.00  0.00    +0.232 C 
ATOM     35  C   LIG    1        8.494  -0.171   0.256  0.00  0.00    +0.048 C 
ENDBRANCH  33  34
ENDBRANCH  31  33
ENDBRANCH  30  31
ENDBRANCH  28  30
ENDBRANCH  27  28
ENDBRANCH  25  27
ENDBRANCH   1  25
TORSDOF 11
