REMARK  Name = molecules/PFTAWBLQPZVEMU-DZGCQCFKSA-N.pdb
REMARK                            x       y       z     vdW  Elec       q    Type
REMARK                         _______ _______ _______ _____ _____    ______ ____
ROOT
ATOM      1  C   LIG    1        0.447   0.940  -1.033  0.00  0.00    +0.164 C 
ATOM      2  C   LIG    1       -0.720   1.700  -0.416  0.00  0.00    +0.078 C 
ATOM      3  C   LIG    1       -1.942   0.932  -0.667  0.00  0.00    +0.038 A 
ATOM      4  C   LIG    1       -1.879  -0.442  -0.438  0.00  0.00    +0.132 A 
ATOM      5  O   LIG    1       -0.670  -0.944   0.006  0.00  0.00    -0.481 OA
ATOM      6  C   LIG    1       -2.972  -1.256  -0.644  0.00  0.00    +0.091 A 
ATOM      7  C   LIG    1       -4.147  -0.693  -1.087  0.00  0.00    +0.124 A 
ATOM      8  C   LIG    1       -4.200   0.663  -1.310  0.00  0.00    +0.091 A 
ATOM      9  C   LIG    1       -3.108   1.496  -1.107  0.00  0.00    +0.127 A 
ATOM     10  C   LIG    1        0.579  -0.455  -0.507  0.00  0.00    +0.232 C 
ENDROOT
BRANCH  10  11
ATOM     11  C   LIG    1        1.642  -0.587   0.532  0.00  0.00    -0.001 A 
ATOM     12  C   LIG    1        1.422  -0.225   1.845  0.00  0.00    +0.011 A 
ATOM     13  C   LIG    1        2.415  -0.353   2.795  0.00  0.00    +0.049 A 
ATOM     14  C   LIG    1        3.665  -0.844   2.496  0.00  0.00    +0.158 A 
ATOM     15  C   LIG    1        3.904  -1.211   1.191  0.00  0.00    +0.159 A 
ATOM     16  C   LIG    1        2.893  -1.079   0.229  0.00  0.00    +0.056 A 
BRANCH  14  17
ATOM     17  O   LIG    1        4.653  -0.963   3.482  0.00  0.00    -0.503 OA
ATOM     18  H   LIG    1        4.516  -0.708   4.429  0.00  0.00    +0.292 HD
ENDBRANCH  14  17
BRANCH  15  19
ATOM     19  O   LIG    1        5.144  -1.709   0.839  0.00  0.00    -0.503 OA
ATOM     20  H   LIG    1        5.850  -1.793   1.549  0.00  0.00    +0.292 HD
ENDBRANCH  15  19
ENDBRANCH  10  11
BRANCH   1  21
ATOM     21  O   LIG    1        0.199   0.939  -2.425  0.00  0.00    -0.387 OA
ATOM     22  H   LIG    1        0.894   0.438  -2.905  0.00  0.00    +0.210 HD
ENDBRANCH   1  21
BRANCH   7  23
ATOM     23  O   LIG    1       -5.293  -1.479  -1.313  0.00  0.00    -0.507 OA
ATOM     24  H   LIG    1       -6.146  -1.083  -1.633  0.00  0.00    +0.292 HD
ENDBRANCH   7  23
BRANCH   9  25
ATOM     25  O   LIG    1       -3.232   2.835  -1.349  0.00  0.00    -0.506 OA
ATOM     26  H   LIG    1       -2.502   3.512  -1.229  0.00  0.00    +0.292 HD
ENDBRANCH   9  25
TORSDOF 6
