REMARK  Name = molecules/PGAVKCOVUIYSFO-XVFCMESISA-N.pdb
REMARK                            x       y       z     vdW  Elec       q    Type
REMARK                         _______ _______ _______ _____ _____    ______ ____
ROOT
ATOM      1  C   LIG    1        2.567   0.177   1.035  0.00  0.00    +0.195 C 
ATOM      2  C   LIG    1        1.060   0.207   1.138  0.00  0.00    +0.178 C 
ATOM      3  C   LIG    1        0.731   0.329  -0.327  0.00  0.00    +0.178 C 
ATOM      4  O   LIG    1        1.839   0.411  -1.092  0.00  0.00    -0.346 OA
ATOM      5  C   LIG    1        2.702  -0.411  -0.408  0.00  0.00    +0.255 C 
ENDROOT
BRANCH   5   6
ATOM      6  N   LIG    1        4.102  -0.388  -0.728  0.00  0.00    -0.271 N 
ATOM      7  C   LIG    1        4.835   0.654  -0.309  0.00  0.00    +0.098 A 
ATOM      8  C   LIG    1        6.257   0.593  -0.374  0.00  0.00    +0.088 A 
ATOM      9  C   LIG    1        6.781  -0.547  -0.864  0.00  0.00    +0.254 A 
ATOM     10  O   LIG    1        8.082  -0.635  -0.916  0.00  0.00    -0.268 OA
ATOM     11  N   LIG    1        6.053  -1.569  -1.300  0.00  0.00    -0.275 N 
ATOM     12  H   LIG    1        6.507  -2.428  -1.666  0.00  0.00    +0.173 HD
ATOM     13  C   LIG    1        4.680  -1.483  -1.226  0.00  0.00    +0.331 A 
ATOM     14  O   LIG    1        3.955  -2.452  -1.619  0.00  0.00    -0.246 OA
ENDBRANCH   5   6
BRANCH   1  15
ATOM     15  O   LIG    1        3.225  -0.615   1.921  0.00  0.00    -0.385 OA
ATOM     16  H   LIG    1        3.228  -1.572   1.637  0.00  0.00    +0.210 HD
ENDBRANCH   1  15
BRANCH   2  17
ATOM     17  O   LIG    1        0.582  -0.975   1.679  0.00  0.00    -0.386 OA
ATOM     18  H   LIG    1        0.975  -1.762   1.262  0.00  0.00    +0.210 HD
ENDBRANCH   2  17
BRANCH   3  19
ATOM     19  C   LIG    1       -0.442   1.139  -0.634  0.00  0.00    +0.206 C 
BRANCH  19  20
ATOM     20  O   LIG    1       -1.031   0.534  -1.794  0.00  0.00    -0.284 OA
BRANCH  20  21
ATOM     21  P   LIG    1       -2.569   0.047  -1.222  0.00  0.00    +0.483 P 
ATOM     22  O   LIG    1       -3.498  -0.289  -2.283  0.00  0.00    -0.227 OA
BRANCH  21  23
ATOM     23  O   LIG    1       -2.276  -1.436  -0.329  0.00  0.00    -0.302 OA
ATOM     24  H   LIG    1       -1.985  -1.170   0.616  0.00  0.00    +0.222 HD
ENDBRANCH  21  23
BRANCH  21  25
ATOM     25  O   LIG    1       -3.234   1.073  -0.081  0.00  0.00    -0.186 OA
BRANCH  25  26
ATOM     26  P   LIG    1       -4.710   0.305   0.359  0.00  0.00    +0.492 P 
ATOM     27  O   LIG    1       -5.432   0.124  -0.984  0.00  0.00    -0.226 OA
BRANCH  26  28
ATOM     28  O   LIG    1       -4.302  -1.232   0.941  0.00  0.00    -0.302 OA
ATOM     29  H   LIG    1       -4.537  -1.962   0.310  0.00  0.00    +0.222 HD
ENDBRANCH  26  28
BRANCH  26  30
ATOM     30  O   LIG    1       -5.610   1.184   1.446  0.00  0.00    -0.186 OA
BRANCH  30  31
ATOM     31  P   LIG    1       -7.174   0.496   1.443  0.00  0.00    +0.481 P 
ATOM     32  O   LIG    1       -7.708   0.574   2.830  0.00  0.00    -0.227 OA
BRANCH  31  33
ATOM     33  O   LIG    1       -7.088  -1.132   0.992  0.00  0.00    -0.302 OA
ATOM     34  H   LIG    1       -7.042  -1.263   0.017  0.00  0.00    +0.222 HD
ENDBRANCH  31  33
BRANCH  31  35
ATOM     35  O   LIG    1       -8.106   1.371   0.341  0.00  0.00    -0.302 OA
ATOM     36  H   LIG    1       -7.713   1.206  -0.558  0.00  0.00    +0.222 HD
ENDBRANCH  31  35
ENDBRANCH  30  31
ENDBRANCH  26  30
ENDBRANCH  25  26
ENDBRANCH  21  25
ENDBRANCH  20  21
ENDBRANCH  19  20
ENDBRANCH   3  19
TORSDOF 14
