REMARK  Name = molecules/PGBHMTALBVVCIT-VCIWKGPPSA-N.pdb
REMARK                            x       y       z     vdW  Elec       q    Type
REMARK                         _______ _______ _______ _____ _____    ______ ____
ROOT
ATOM      1  C   LIG    1       -2.649   0.825  -1.464  0.00  0.00    +0.169 C 
ATOM      2  C   LIG    1       -1.363   0.230  -1.870  0.00  0.00    +0.182 C 
ATOM      3  C   LIG    1       -0.818   0.769  -3.171  0.00  0.00    +0.163 C 
ATOM      4  C   LIG    1       -1.178   2.178  -3.490  0.00  0.00    +0.084 C 
ATOM      5  C   LIG    1       -2.656   2.452  -3.286  0.00  0.00    +0.042 C 
ATOM      6  C   LIG    1       -3.365   1.252  -2.743  0.00  0.00    +0.084 C 
ENDROOT
BRANCH   6   7
ATOM      7  N   LIG    1       -4.744   1.560  -2.532  0.00  0.00    -0.325 NA
ATOM      8  H   LIG    1       -4.858   2.606  -2.449  0.00  0.00    +0.119 HD
ATOM      9  H   LIG    1       -5.303   1.317  -3.404  0.00  0.00    +0.119 HD
ENDBRANCH   6   7
BRANCH   4  10
ATOM     10  N   LIG    1       -0.349   3.136  -2.789  0.00  0.00    -0.325 NA
ATOM     11  H   LIG    1        0.194   2.732  -2.023  0.00  0.00    +0.119 HD
ATOM     12  H   LIG    1       -0.840   4.021  -2.580  0.00  0.00    +0.119 HD
ENDBRANCH   4  10
BRANCH   3  13
ATOM     13  O   LIG    1       -1.183  -0.077  -4.204  0.00  0.00    -0.388 OA
ATOM     14  H   LIG    1       -0.512  -0.087  -4.906  0.00  0.00    +0.210 HD
ENDBRANCH   3  13
BRANCH   2  15
ATOM     15  O   LIG    1       -0.444   0.382  -0.848  0.00  0.00    -0.340 OA
BRANCH  15  16
ATOM     16  C   LIG    1        0.114  -0.734  -0.312  0.00  0.00    +0.282 C 
ATOM     17  O   LIG    1       -0.046  -0.881   1.032  0.00  0.00    -0.341 OA
ATOM     18  C   LIG    1        1.152  -0.795   1.682  0.00  0.00    +0.178 C 
ATOM     19  C   LIG    1        2.244  -0.506   0.692  0.00  0.00    +0.186 C 
ATOM     20  C   LIG    1        1.591  -0.888  -0.610  0.00  0.00    +0.202 C 
BRANCH  20  21
ATOM     21  O   LIG    1        1.946  -2.207  -0.888  0.00  0.00    -0.384 OA
ATOM     22  H   LIG    1        1.313  -2.870  -0.568  0.00  0.00    +0.210 HD
ENDBRANCH  20  21
BRANCH  18  23
ATOM     23  C   LIG    1        1.070   0.348   2.672  0.00  0.00    +0.190 C 
BRANCH  23  24
ATOM     24  O   LIG    1        0.037   0.050   3.560  0.00  0.00    -0.392 OA
ATOM     25  H   LIG    1       -0.121  -0.938   3.618  0.00  0.00    +0.210 HD
ENDBRANCH  23  24
ENDBRANCH  18  23
BRANCH  19  26
ATOM     26  O   LIG    1        3.426  -1.160   0.942  0.00  0.00    -0.341 OA
BRANCH  26  27
ATOM     27  C   LIG    1        4.502  -0.275   1.109  0.00  0.00    +0.270 C 
ATOM     28  O   LIG    1        4.992  -0.371   2.396  0.00  0.00    -0.343 OA
ATOM     29  C   LIG    1        5.950   0.619   2.606  0.00  0.00    +0.166 C 
ATOM     30  C   LIG    1        7.158   0.261   1.800  0.00  0.00    +0.175 C 
ATOM     31  C   LIG    1        6.890  -0.010   0.357  0.00  0.00    +0.167 C 
ATOM     32  C   LIG    1        5.520  -0.512   0.044  0.00  0.00    +0.139 C 
BRANCH  32  33
ATOM     33  N   LIG    1        5.558  -1.904  -0.377  0.00  0.00    -0.321 NA
ATOM     34  H   LIG    1        5.429  -2.546   0.419  0.00  0.00    +0.119 HD
ATOM     35  H   LIG    1        4.941  -2.076  -1.180  0.00  0.00    +0.119 HD
ENDBRANCH  32  33
BRANCH  30  36
ATOM     36  O   LIG    1        7.803  -0.852   2.363  0.00  0.00    -0.387 OA
ATOM     37  H   LIG    1        8.463  -1.151   1.672  0.00  0.00    +0.210 HD
ENDBRANCH  30  36
BRANCH  31  38
ATOM     38  O   LIG    1        7.215   1.139  -0.383  0.00  0.00    -0.387 OA
ATOM     39  H   LIG    1        7.057   1.021  -1.346  0.00  0.00    +0.210 HD
ENDBRANCH  31  38
BRANCH  29  40
ATOM     40  C   LIG    1        6.348   0.643   4.065  0.00  0.00    +0.112 C 
BRANCH  40  41
ATOM     41  N   LIG    1        7.350   1.684   4.266  0.00  0.00    -0.328 NA
ATOM     42  H   LIG    1        8.290   1.232   4.085  0.00  0.00    +0.118 HD
ATOM     43  H   LIG    1        7.259   2.417   3.520  0.00  0.00    +0.118 HD
ENDBRANCH  40  41
ENDBRANCH  29  40
ENDBRANCH  26  27
ENDBRANCH  19  26
ENDBRANCH  15  16
ENDBRANCH   2  15
BRANCH   1  44
ATOM     44  O   LIG    1       -3.381  -0.095  -0.771  0.00  0.00    -0.342 OA
BRANCH  44  45
ATOM     45  C   LIG    1       -3.904   0.234   0.438  0.00  0.00    +0.270 C 
ATOM     46  C   LIG    1       -3.847  -0.739   1.546  0.00  0.00    +0.139 C 
ATOM     47  C   LIG    1       -4.174  -2.099   0.958  0.00  0.00    +0.167 C 
ATOM     48  C   LIG    1       -5.601  -1.981   0.476  0.00  0.00    +0.175 C 
ATOM     49  C   LIG    1       -5.938  -0.712  -0.216  0.00  0.00    +0.166 C 
ATOM     50  O   LIG    1       -5.279   0.415   0.096  0.00  0.00    -0.343 OA
BRANCH  46  51
ATOM     51  N   LIG    1       -2.775  -0.772   2.417  0.00  0.00    -0.321 NA
ATOM     52  H   LIG    1       -2.711  -0.101   3.179  0.00  0.00    +0.119 HD
ATOM     53  H   LIG    1       -2.230  -1.639   2.518  0.00  0.00    +0.119 HD
ENDBRANCH  46  51
BRANCH  48  54
ATOM     54  O   LIG    1       -5.971  -3.116  -0.244  0.00  0.00    -0.387 OA
ATOM     55  H   LIG    1       -5.317  -3.826  -0.018  0.00  0.00    +0.210 HD
ENDBRANCH  48  54
BRANCH  47  56
ATOM     56  O   LIG    1       -4.082  -3.017   2.001  0.00  0.00    -0.387 OA
ATOM     57  H   LIG    1       -4.263  -2.638   2.883  0.00  0.00    +0.210 HD
ENDBRANCH  47  56
BRANCH  49  58
ATOM     58  C   LIG    1       -7.448  -0.426  -0.172  0.00  0.00    +0.112 C 
BRANCH  58  59
ATOM     59  N   LIG    1       -7.773   0.630  -1.144  0.00  0.00    -0.328 NA
ATOM     60  H   LIG    1       -8.793   0.740  -1.237  0.00  0.00    +0.118 HD
ATOM     61  H   LIG    1       -7.309   0.372  -2.054  0.00  0.00    +0.118 HD
ENDBRANCH  58  59
ENDBRANCH  49  58
ENDBRANCH  44  45
ENDBRANCH   1  44
TORSDOF 22
