REMARK  Name = molecules/PHKOCTCUZMQEOT-LRVJTQDXSA-N.pdb
REMARK                            x       y       z     vdW  Elec       q    Type
REMARK                         _______ _______ _______ _____ _____    ______ ____
ROOT
ATOM      1  O   LIG    1       -1.159  -1.821   0.860  0.00  0.00    -0.340 OA
ENDROOT
BRANCH   1   2
ATOM      2  C   LIG    1        0.033  -1.906   1.573  0.00  0.00    +0.283 C 
ATOM      3  C   LIG    1        0.304  -0.701   2.397  0.00  0.00    +0.201 C 
ATOM      4  C   LIG    1        1.148   0.287   1.651  0.00  0.00    +0.180 C 
ATOM      5  C   LIG    1        2.331  -0.373   1.041  0.00  0.00    +0.192 C 
ATOM      6  C   LIG    1        2.298  -1.863   1.121  0.00  0.00    +0.261 C 
ATOM      7  O   LIG    1        1.072  -2.301   0.729  0.00  0.00    -0.331 OA
BRANCH   6   8
ATOM      8  C   LIG    1        2.760  -2.405   2.408  0.00  0.00    +0.339 C 
ATOM      9  O   LIG    1        2.059  -3.267   3.042  0.00  0.00    -0.248 OA
BRANCH   8  10
ATOM     10  O   LIG    1        3.947  -2.043   3.021  0.00  0.00    -0.466 OA
ATOM     11  C   LIG    1        4.342  -2.604   4.269  0.00  0.00    +0.280 C 
ENDBRANCH   8  10
ENDBRANCH   6   8
BRANCH   4  12
ATOM     12  O   LIG    1        1.491   1.367   2.470  0.00  0.00    -0.386 OA
ATOM     13  H   LIG    1        1.607   2.152   1.901  0.00  0.00    +0.210 HD
ENDBRANCH   4  12
BRANCH   3  14
ATOM     14  O   LIG    1       -0.906  -0.103   2.829  0.00  0.00    -0.384 OA
ATOM     15  H   LIG    1       -1.381   0.334   2.086  0.00  0.00    +0.210 HD
ENDBRANCH   3  14
BRANCH   5  16
ATOM     16  O   LIG    1        3.533   0.085   1.593  0.00  0.00    -0.340 OA
BRANCH  16  17
ATOM     17  C   LIG    1        4.279   0.691   0.575  0.00  0.00    +0.283 C 
ATOM     18  O   LIG    1        4.348   2.032   0.889  0.00  0.00    -0.332 OA
ATOM     19  C   LIG    1        5.514   2.667   0.492  0.00  0.00    +0.260 C 
ATOM     20  C   LIG    1        6.767   2.067   1.047  0.00  0.00    +0.185 C 
ATOM     21  C   LIG    1        6.634   0.594   1.342  0.00  0.00    +0.179 C 
ATOM     22  C   LIG    1        5.604   0.054   0.362  0.00  0.00    +0.201 C 
BRANCH  22  23
ATOM     23  O   LIG    1        5.549  -1.302   0.529  0.00  0.00    -0.384 OA
ATOM     24  H   LIG    1        6.166  -1.669   1.192  0.00  0.00    +0.210 HD
ENDBRANCH  22  23
BRANCH  19  25
ATOM     25  C   LIG    1        5.519   2.825  -0.969  0.00  0.00    +0.339 C 
ATOM     26  O   LIG    1        4.550   2.419  -1.653  0.00  0.00    -0.248 OA
BRANCH  25  27
ATOM     27  O   LIG    1        6.570   3.418  -1.664  0.00  0.00    -0.466 OA
ATOM     28  C   LIG    1        6.489   3.525  -3.056  0.00  0.00    +0.280 C 
ENDBRANCH  25  27
ENDBRANCH  19  25
BRANCH  20  29
ATOM     29  O   LIG    1        7.774   2.225   0.075  0.00  0.00    -0.386 OA
ATOM     30  H   LIG    1        8.372   2.982   0.276  0.00  0.00    +0.210 HD
ENDBRANCH  20  29
BRANCH  21  31
ATOM     31  O   LIG    1        7.826  -0.048   1.057  0.00  0.00    -0.386 OA
ATOM     32  H   LIG    1        7.987  -0.851   1.609  0.00  0.00    +0.210 HD
ENDBRANCH  21  31
ENDBRANCH  16  17
ENDBRANCH   5  16
ENDBRANCH   1   2
BRANCH   1  33
ATOM     33  C   LIG    1       -2.051  -2.842   1.095  0.00  0.00    +0.192 C 
ATOM     34  C   LIG    1       -3.470  -2.431   1.359  0.00  0.00    +0.261 C 
ATOM     35  O   LIG    1       -4.132  -1.897   0.270  0.00  0.00    -0.331 OA
ATOM     36  C   LIG    1       -3.307  -1.404  -0.732  0.00  0.00    +0.283 C 
ATOM     37  C   LIG    1       -2.331  -2.408  -1.245  0.00  0.00    +0.201 C 
ATOM     38  C   LIG    1       -2.148  -3.568  -0.285  0.00  0.00    +0.180 C 
BRANCH  38  39
ATOM     39  O   LIG    1       -1.055  -4.341  -0.521  0.00  0.00    -0.386 OA
ATOM     40  H   LIG    1       -0.490  -4.058  -1.273  0.00  0.00    +0.210 HD
ENDBRANCH  38  39
BRANCH  37  41
ATOM     41  O   LIG    1       -2.583  -2.908  -2.495  0.00  0.00    -0.384 OA
ATOM     42  H   LIG    1       -2.256  -2.293  -3.228  0.00  0.00    +0.210 HD
ENDBRANCH  37  41
BRANCH  34  43
ATOM     43  C   LIG    1       -3.681  -1.700   2.619  0.00  0.00    +0.339 C 
ATOM     44  O   LIG    1       -3.127  -2.099   3.659  0.00  0.00    -0.248 OA
BRANCH  43  45
ATOM     45  O   LIG    1       -4.479  -0.587   2.658  0.00  0.00    -0.466 OA
ATOM     46  C   LIG    1       -4.716   0.158   3.865  0.00  0.00    +0.280 C 
ENDBRANCH  43  45
ENDBRANCH  34  43
BRANCH  36  47
ATOM     47  O   LIG    1       -4.146  -1.015  -1.779  0.00  0.00    -0.340 OA
BRANCH  47  48
ATOM     48  C   LIG    1       -4.215   0.361  -1.911  0.00  0.00    +0.192 C 
ATOM     49  C   LIG    1       -5.628   0.879  -1.803  0.00  0.00    +0.180 C 
ATOM     50  C   LIG    1       -5.552   2.364  -1.748  0.00  0.00    +0.201 C 
ATOM     51  C   LIG    1       -4.255   2.938  -2.205  0.00  0.00    +0.280 C 
ATOM     52  O   LIG    1       -3.540   2.248  -3.120  0.00  0.00    -0.332 OA
ATOM     53  C   LIG    1       -3.656   0.897  -3.207  0.00  0.00    +0.261 C 
BRANCH  53  54
ATOM     54  C   LIG    1       -4.474   0.453  -4.391  0.00  0.00    +0.339 C 
ATOM     55  O   LIG    1       -4.647  -0.774  -4.536  0.00  0.00    -0.248 OA
BRANCH  54  56
ATOM     56  O   LIG    1       -5.026   1.327  -5.299  0.00  0.00    -0.466 OA
ATOM     57  C   LIG    1       -5.792   0.935  -6.409  0.00  0.00    +0.280 C 
ENDBRANCH  54  56
ENDBRANCH  53  54
BRANCH  49  58
ATOM     58  O   LIG    1       -6.360   0.481  -2.948  0.00  0.00    -0.386 OA
ATOM     59  H   LIG    1       -6.815  -0.381  -2.740  0.00  0.00    +0.210 HD
ENDBRANCH  49  58
BRANCH  51  60
ATOM     60  O   LIG    1       -3.451   3.100  -1.049  0.00  0.00    -0.365 OA
ATOM     61  H   LIG    1       -3.686   3.943  -0.583  0.00  0.00    +0.213 HD
ENDBRANCH  51  60
BRANCH  50  62
ATOM     62  O   LIG    1       -5.911   2.799  -0.468  0.00  0.00    -0.384 OA
ATOM     63  H   LIG    1       -5.890   2.076   0.210  0.00  0.00    +0.210 HD
ENDBRANCH  50  62
ENDBRANCH  47  48
ENDBRANCH  36  47
ENDBRANCH   1  33
TORSDOF 24
