REMARK  Name = molecules/PHOQVHQSTUBQQK-SQOUGZDYSA-N.pdb
REMARK                            x       y       z     vdW  Elec       q    Type
REMARK                         _______ _______ _______ _____ _____    ______ ____
ROOT
ATOM      1  C   LIG    1       -0.964   1.338  -1.134  0.00  0.00    +0.339 C 
ATOM      2  C   LIG    1       -1.774   0.673  -0.086  0.00  0.00    +0.254 C 
ATOM      3  C   LIG    1       -0.972  -0.352   0.636  0.00  0.00    +0.186 C 
ATOM      4  C   LIG    1        0.179  -0.772  -0.264  0.00  0.00    +0.189 C 
ATOM      5  C   LIG    1        1.103   0.410  -0.338  0.00  0.00    +0.233 C 
ATOM      6  O   LIG    1        0.430   1.411  -1.079  0.00  0.00    -0.454 OA
ATOM      7  O   LIG    1       -1.603   1.847  -2.101  0.00  0.00    -0.248 OA
ENDROOT
BRANCH   2   8
ATOM      8  O   LIG    1       -2.321   1.632   0.791  0.00  0.00    -0.378 OA
ATOM      9  H   LIG    1       -2.608   2.421   0.267  0.00  0.00    +0.211 HD
ENDBRANCH   2   8
BRANCH   3  10
ATOM     10  O   LIG    1       -1.694  -1.418   1.117  0.00  0.00    -0.386 OA
ATOM     11  H   LIG    1       -2.319  -1.812   0.464  0.00  0.00    +0.210 HD
ENDBRANCH   3  10
BRANCH   4  12
ATOM     12  O   LIG    1        0.784  -1.934   0.138  0.00  0.00    -0.385 OA
ATOM     13  H   LIG    1        0.235  -2.690  -0.193  0.00  0.00    +0.210 HD
ENDBRANCH   4  12
BRANCH   5  14
ATOM     14  C   LIG    1        2.450   0.080  -0.918  0.00  0.00    +0.203 C 
BRANCH  14  15
ATOM     15  O   LIG    1        3.033  -0.909  -0.126  0.00  0.00    -0.391 OA
ATOM     16  H   LIG    1        2.750  -0.803   0.836  0.00  0.00    +0.210 HD
ENDBRANCH  14  15
ENDBRANCH   5  14
TORSDOF 5
