REMARK  Name = molecules/PHPUXYRXPHEJDF-UHFFFAOYSA-N.pdb
REMARK                            x       y       z     vdW  Elec       q    Type
REMARK                         _______ _______ _______ _____ _____    ______ ____
ROOT
ATOM      1  O   LIG    1       -1.020   0.124   3.198  0.00  0.00    -0.274 OA
ATOM      2  C   LIG    1       -0.978   1.046   2.332  0.00  0.00    +0.237 C 
ATOM      3  N   LIG    1       -1.459   2.342   2.621  0.00  0.00    -0.284 N 
ATOM      4  H   LIG    1       -1.879   2.694   3.537  0.00  0.00    +0.155 HD
ATOM      5  C   LIG    1       -1.289   3.128   1.451  0.00  0.00    +0.038 A 
ATOM      6  C   LIG    1       -1.602   4.461   1.190  0.00  0.00    +0.023 A 
ATOM      7  C   LIG    1       -1.361   5.043  -0.033  0.00  0.00    +0.002 A 
ATOM      8  C   LIG    1       -0.797   4.317  -1.050  0.00  0.00    +0.000 A 
ATOM      9  C   LIG    1       -0.491   2.991  -0.774  0.00  0.00    +0.007 A 
ATOM     10  C   LIG    1       -0.723   2.390   0.443  0.00  0.00    -0.003 A 
ATOM     11  C   LIG    1       -0.481   1.023   0.966  0.00  0.00    +0.124 C 
ENDROOT
BRANCH  11  12
ATOM     12  C   LIG    1        0.969   0.719   0.868  0.00  0.00    -0.024 A 
ATOM     13  C   LIG    1        1.815   0.762   1.948  0.00  0.00    +0.009 A 
ATOM     14  C   LIG    1        3.160   0.483   1.809  0.00  0.00    +0.047 A 
ATOM     15  C   LIG    1        3.639   0.161   0.566  0.00  0.00    +0.132 A 
ATOM     16  C   LIG    1        2.819   0.110  -0.536  0.00  0.00    +0.047 A 
ATOM     17  C   LIG    1        1.476   0.394  -0.364  0.00  0.00    +0.009 A 
BRANCH  15  18
ATOM     18  O   LIG    1        4.988  -0.122   0.406  0.00  0.00    -0.426 OA
BRANCH  18  19
ATOM     19  C   LIG    1        5.538  -1.379   0.518  0.00  0.00    +0.309 C 
ATOM     20  O   LIG    1        4.782  -2.337   0.781  0.00  0.00    -0.251 OA
ATOM     21  C   LIG    1        7.008  -1.540   0.322  0.00  0.00    +0.136 C 
ENDBRANCH  18  19
ENDBRANCH  15  18
ENDBRANCH  11  12
BRANCH  11  22
ATOM     22  C   LIG    1       -1.254   0.001   0.218  0.00  0.00    -0.024 A 
ATOM     23  C   LIG    1       -0.724  -1.249   0.021  0.00  0.00    +0.009 A 
ATOM     24  C   LIG    1       -1.427  -2.244  -0.663  0.00  0.00    +0.047 A 
ATOM     25  C   LIG    1       -2.669  -1.985  -1.153  0.00  0.00    +0.132 A 
ATOM     26  C   LIG    1       -3.218  -0.755  -0.972  0.00  0.00    +0.047 A 
ATOM     27  C   LIG    1       -2.518   0.241  -0.288  0.00  0.00    +0.009 A 
BRANCH  25  28
ATOM     28  O   LIG    1       -3.314  -3.036  -1.830  0.00  0.00    -0.426 OA
BRANCH  28  29
ATOM     29  C   LIG    1       -4.120  -3.957  -1.204  0.00  0.00    +0.309 C 
ATOM     30  O   LIG    1       -4.293  -3.861   0.030  0.00  0.00    -0.251 OA
ATOM     31  C   LIG    1       -4.802  -5.067  -1.915  0.00  0.00    +0.136 C 
ENDBRANCH  28  29
ENDBRANCH  25  28
ENDBRANCH  11  22
TORSDOF 6
