REMARK  Name = molecules/PHUUXVYXSRZACJ-IVZWLZJFSA-N.pdb
REMARK                            x       y       z     vdW  Elec       q    Type
REMARK                         _______ _______ _______ _____ _____    ______ ____
ROOT
ATOM      1  O   LIG    1        1.012   2.215   1.206  0.00  0.00    -0.246 OA
ATOM      2  C   LIG    1       -0.087   1.654   0.830  0.00  0.00    +0.331 A 
ATOM      3  N   LIG    1       -1.245   2.320   0.984  0.00  0.00    -0.275 N 
ATOM      4  H   LIG    1       -1.302   3.286   1.389  0.00  0.00    +0.173 HD
ATOM      5  C   LIG    1       -2.379   1.707   0.580  0.00  0.00    +0.257 A 
ATOM      6  O   LIG    1       -3.487   2.295   0.690  0.00  0.00    -0.267 OA
ATOM      7  C   LIG    1       -2.308   0.450   0.040  0.00  0.00    +0.036 A 
ATOM      8  C   LIG    1       -1.063  -0.186  -0.092  0.00  0.00    +0.102 A 
ATOM      9  N   LIG    1        0.062   0.433   0.319  0.00  0.00    -0.274 N 
ENDROOT
BRANCH   9  10
ATOM     10  C1* LIG    1        1.333  -0.186   0.319  0.00  0.00    +0.226 C 
ATOM     11  O4* LIG    1        2.404   0.695   0.024  0.00  0.00    -0.348 OA
ATOM     12  C4* LIG    1        3.453  -0.174   0.398  0.00  0.00    +0.175 C 
ATOM     13  C3* LIG    1        3.157  -1.395  -0.431  0.00  0.00    +0.150 C 
ATOM     14  C2* LIG    1        1.620  -1.305  -0.584  0.00  0.00    +0.088 C 
BRANCH  13  15
ATOM     15  O3* LIG    1        3.494  -2.492   0.340  0.00  0.00    -0.389 OA
ATOM     16  H3* LIG    1        2.918  -3.263   0.204  0.00  0.00    +0.210 HD
ENDBRANCH  13  15
BRANCH  12  17
ATOM     17  C5* LIG    1        4.794   0.439   0.165  0.00  0.00    +0.190 C 
BRANCH  17  18
ATOM     18  O5* LIG    1        5.080   0.761  -1.140  0.00  0.00    -0.392 OA
ATOM     19  H5* LIG    1        4.802   1.712  -1.283  0.00  0.00    +0.210 HD
ENDBRANCH  17  18
ENDBRANCH  12  17
ENDBRANCH   9  10
BRANCH   7  20
ATOM     20  C   LIG    1       -3.589  -0.285  -0.146  0.00  0.00    +0.020 C 
ATOM     21  C   LIG    1       -4.493  -0.291   1.037  0.00  0.00    +0.012 C 
ATOM     22  C   LIG    1       -4.198  -0.106  -1.502  0.00  0.00    +0.012 C 
ENDBRANCH   7  20
TORSDOF 5
