REMARK  Name = molecules/PHVGLTMQBUFIQQ-UHFFFAOYSA-N.pdb
REMARK                            x       y       z     vdW  Elec       q    Type
REMARK                         _______ _______ _______ _____ _____    ______ ____
ROOT
ATOM      1  C   LIG    1        1.066  -0.021  -0.480  0.00  0.00    -0.017 C 
ATOM      2  C   LIG    1       -0.162   0.117  -0.100  0.00  0.00    -0.014 C 
ATOM      3  C   LIG    1       -0.722   1.484   0.094  0.00  0.00    -0.014 A 
ATOM      4  C   LIG    1        0.242   2.378   0.423  0.00  0.00    +0.009 A 
ATOM      5  C   LIG    1       -0.051   3.716   0.618  0.00  0.00    +0.001 A 
ATOM      6  C   LIG    1       -1.349   4.140   0.475  0.00  0.00    +0.000 A 
ATOM      7  C   LIG    1       -2.341   3.236   0.141  0.00  0.00    +0.004 A 
ATOM      8  C   LIG    1       -2.033   1.879  -0.054  0.00  0.00    -0.039 A 
ATOM      9  C   LIG    1       -3.265   1.141  -0.338  0.00  0.00    +0.040 C 
ATOM     10  C   LIG    1       -3.115  -0.142  -1.090  0.00  0.00    +0.040 C 
ATOM     11  C   LIG    1       -2.332  -1.185  -0.406  0.00  0.00    -0.039 A 
ATOM     12  C   LIG    1       -3.011  -2.369  -0.217  0.00  0.00    +0.004 A 
ATOM     13  C   LIG    1       -2.377  -3.415   0.427  0.00  0.00    +0.000 A 
ATOM     14  C   LIG    1       -1.079  -3.247   0.866  0.00  0.00    +0.001 A 
ATOM     15  C   LIG    1       -0.378  -2.081   0.695  0.00  0.00    +0.009 A 
ATOM     16  C   LIG    1       -1.021  -1.052   0.051  0.00  0.00    -0.014 A 
ENDROOT
BRANCH   1  17
ATOM     17  C   LIG    1        1.883  -1.177  -0.838  0.00  0.00    +0.043 C 
BRANCH  17  18
ATOM     18  C   LIG    1        3.131  -1.356   0.010  0.00  0.00    +0.084 C 
BRANCH  18  19
ATOM     19  N   LIG    1        3.913  -0.124  -0.204  0.00  0.00    -0.319 NA
ATOM     20  C   LIG    1        5.113  -0.233   0.576  0.00  0.00    +0.101 C 
ATOM     21  H   LIG    1        4.139  -0.130  -1.234  0.00  0.00    +0.122 HD
ENDBRANCH  18  19
ENDBRANCH  17  18
ENDBRANCH   1  17
TORSDOF 3
