REMARK  Name = molecules/PHWBOXQYWZNQIN-UHFFFAOYSA-N.pdb
REMARK                            x       y       z     vdW  Elec       q    Type
REMARK                         _______ _______ _______ _____ _____    ______ ____
ROOT
ATOM      1  N   LIG    1       -0.482  -0.589  -0.283  0.00  0.00    -0.294 NA
ATOM      2  C   LIG    1       -0.903   0.728  -0.424  0.00  0.00    +0.120 C 
ATOM      3  C   LIG    1       -2.329   0.944   0.053  0.00  0.00    -0.023 A 
ATOM      4  C   LIG    1       -2.805   2.004   0.747  0.00  0.00    +0.013 A 
ATOM      5  C   LIG    1       -4.137   1.969   1.068  0.00  0.00    +0.046 A 
ATOM      6  S   LIG    1       -4.668   0.495   0.409  0.00  0.00    -0.101 S 
ATOM      7  C   LIG    1       -3.201  -0.052  -0.261  0.00  0.00    -0.005 A 
ATOM      8  C   LIG    1       -2.728  -1.260  -1.032  0.00  0.00    +0.058 C 
ATOM      9  C   LIG    1       -1.404  -1.637  -0.427  0.00  0.00    +0.090 C 
ENDROOT
BRANCH   1  10
ATOM     10  C   LIG    1        0.601  -0.935   0.532  0.00  0.00    +0.121 C 
BRANCH  10  11
ATOM     11  C   LIG    1        1.926  -0.431   0.229  0.00  0.00    -0.015 A 
ATOM     12  C   LIG    1        2.983  -0.763   1.046  0.00  0.00    +0.045 A 
ATOM     13 CL   LIG    1        2.755  -1.773   2.451  0.00  0.00    -0.083 Cl
ATOM     14  C   LIG    1        4.277  -0.311   0.791  0.00  0.00    +0.020 A 
ATOM     15  C   LIG    1        4.497   0.483  -0.300  0.00  0.00    +0.001 A 
ATOM     16  C   LIG    1        3.457   0.823  -1.124  0.00  0.00    +0.000 A 
ATOM     17  C   LIG    1        2.178   0.362  -0.852  0.00  0.00    +0.006 A 
ENDBRANCH  10  11
ENDBRANCH   1  10
TORSDOF 2
