REMARK  Name = molecules/PHWXUGHIIBDVKD-UHFFFAOYSA-N.pdb
REMARK                            x       y       z     vdW  Elec       q    Type
REMARK                         _______ _______ _______ _____ _____    ______ ____
ROOT
ATOM      1  C   LIG    1       -0.242  -2.833  -0.991  0.00  0.00    +0.055 A 
ATOM      2  C   LIG    1        0.994  -3.348  -0.760  0.00  0.00    +0.122 A 
ATOM      3  C   LIG    1        1.276  -4.569  -1.309  0.00  0.00    +0.037 A 
ATOM      4  C   LIG    1        0.307  -5.181  -2.048  0.00  0.00    +0.047 A 
ATOM      5  S   LIG    1       -0.968  -4.096  -1.987  0.00  0.00    -0.096 S 
ENDROOT
BRANCH   2   6
ATOM      6  S   LIG    1        2.305  -2.465   0.090  0.00  0.00    +0.075 S 
ATOM      7  O   LIG    1        1.775  -2.072   1.417  0.00  0.00    -0.150 OA
ATOM      8  O   LIG    1        3.482  -3.438   0.313  0.00  0.00    -0.150 OA
BRANCH   6   9
ATOM      9  N   LIG    1        2.929  -1.228  -0.870  0.00  0.00    -0.182 N 
ATOM     10  H   LIG    1        3.409  -1.558  -1.780  0.00  0.00    +0.177 HD
BRANCH   9  11
ATOM     11  C   LIG    1        2.921   0.151  -0.665  0.00  0.00    +0.255 A 
ATOM     12  C   LIG    1        3.924   0.803   0.071  0.00  0.00    +0.126 A 
ATOM     13 CL   LIG    1        5.280  -0.011   0.811  0.00  0.00    -0.076 Cl
ATOM     14  C   LIG    1        3.611   2.146   0.071  0.00  0.00    +0.101 A 
ATOM     15  C   LIG    1        4.394   3.199   0.734  0.00  0.00    +0.071 C 
ATOM     16  N   LIG    1        2.475   2.259  -0.636  0.00  0.00    -0.080 NA
ATOM     17  O   LIG    1        2.098   1.087  -1.051  0.00  0.00    -0.336 OA
ENDBRANCH   9  11
ENDBRANCH   6   9
ENDBRANCH   2   6
BRANCH   1  18
ATOM     18  C   LIG    1       -0.981  -1.676  -0.540  0.00  0.00    +0.178 C 
ATOM     19  O   LIG    1       -2.120  -1.486  -1.119  0.00  0.00    -0.218 OA
BRANCH  18  20
ATOM     20  C   LIG    1       -0.626  -0.710   0.470  0.00  0.00    +0.082 C 
BRANCH  20  21
ATOM     21  C   LIG    1       -1.688   0.372   0.588  0.00  0.00    -0.037 A 
ATOM     22  C   LIG    1       -2.863   0.189   1.267  0.00  0.00    -0.043 A 
ATOM     23  C   LIG    1       -3.135  -1.084   1.972  0.00  0.00    +0.044 C 
ATOM     24  C   LIG    1       -3.797   1.234   1.290  0.00  0.00    +0.053 A 
ATOM     25  C   LIG    1       -3.558   2.423   0.651  0.00  0.00    +0.166 A 
ATOM     26  O   LIG    1       -4.316   3.581   0.535  0.00  0.00    -0.453 OA
ATOM     27  C   LIG    1       -3.724   4.311  -0.541  0.00  0.00    +0.466 C 
ATOM     28  O   LIG    1       -2.383   3.885  -0.582  0.00  0.00    -0.453 OA
ATOM     29  C   LIG    1       -2.372   2.601  -0.030  0.00  0.00    +0.167 A 
ATOM     30  C   LIG    1       -1.452   1.560  -0.047  0.00  0.00    +0.053 A 
ENDBRANCH  20  21
ENDBRANCH  18  20
ENDBRANCH   1  18
TORSDOF 6
