REMARK  Name = molecules/PIEUQSKUWLMALL-PPBYFRDFSA-N.pdb
REMARK                            x       y       z     vdW  Elec       q    Type
REMARK                         _______ _______ _______ _____ _____    ______ ____
ROOT
ATOM      1  O   LIG    1       -7.002   4.074   1.349  0.00  0.00    -0.273 OA
ATOM      2  C   LIG    1       -6.654   3.128   0.546  0.00  0.00    +0.239 C 
ATOM      3  C   LIG    1       -7.424   1.883   0.693  0.00  0.00    +0.188 C 
ATOM      4  N   LIG    1       -7.279   0.930  -0.361  0.00  0.00    -0.300 N 
ATOM      5  C   LIG    1       -7.244  -0.473  -0.362  0.00  0.00    +0.237 C 
ATOM      6  C   LIG    1       -6.272  -1.409   0.180  0.00  0.00    +0.190 C 
ATOM      7  N   LIG    1       -5.905  -2.345  -0.911  0.00  0.00    -0.300 N 
ATOM      8  H   LIG    1       -6.721  -2.851  -1.327  0.00  0.00    +0.150 HD
ATOM      9  C   LIG    1       -4.633  -2.597  -1.395  0.00  0.00    +0.234 C 
ATOM     10  O   LIG    1       -4.230  -3.820  -1.453  0.00  0.00    -0.274 OA
ATOM     11  C   LIG    1       -3.628  -1.604  -1.874  0.00  0.00    +0.164 C 
ATOM     12  C   LIG    1       -4.278  -0.578  -2.793  0.00  0.00    +0.065 C 
ATOM     13  C   LIG    1       -4.543  -1.442  -4.035  0.00  0.00    +0.134 C 
ATOM     14  C   LIG    1       -3.549  -2.582  -3.946  0.00  0.00    +0.140 C 
ATOM     15  N   LIG    1       -2.700  -2.218  -2.800  0.00  0.00    -0.286 N 
ATOM     16  C   LIG    1       -1.322  -2.401  -2.607  0.00  0.00    +0.239 C 
ATOM     17  C   LIG    1       -0.515  -1.957  -1.454  0.00  0.00    +0.187 C 
ATOM     18  N   LIG    1        0.493  -1.024  -1.937  0.00  0.00    -0.300 N 
ATOM     19  C   LIG    1        0.968   0.108  -1.252  0.00  0.00    +0.234 C 
ATOM     20  C   LIG    1        1.155   0.259   0.201  0.00  0.00    +0.162 C 
ATOM     21  C   LIG    1        0.590   1.526   0.778  0.00  0.00    +0.067 C 
ATOM     22  C   LIG    1       -0.612   2.074   0.096  0.00  0.00    +0.163 C 
ATOM     23  C   LIG    1       -1.206   3.270   0.790  0.00  0.00    +0.231 C 
ATOM     24  N   LIG    1       -2.554   3.117   1.256  0.00  0.00    -0.287 N 
ATOM     25  H   LIG    1       -2.740   3.645   2.194  0.00  0.00    +0.151 HD
ATOM     26  C   LIG    1       -3.641   2.424   0.741  0.00  0.00    +0.238 C 
ATOM     27  O   LIG    1       -4.057   1.435   1.468  0.00  0.00    -0.274 OA
ATOM     28  C   LIG    1       -4.412   2.614  -0.489  0.00  0.00    +0.191 C 
ATOM     29  C   LIG    1       -3.645   3.246  -1.626  0.00  0.00    +0.148 C 
ATOM     30  C   LIG    1       -4.016   4.703  -1.433  0.00  0.00    +0.034 C 
ATOM     31  C   LIG    1       -5.513   4.604  -1.262  0.00  0.00    +0.114 C 
ATOM     32  C   LIG    1       -3.733   5.439  -2.720  0.00  0.00    +0.012 C 
ATOM     33  O   LIG    1        1.270   1.112  -1.961  0.00  0.00    -0.274 OA
ATOM     34  H   LIG    1        0.891  -1.253  -2.906  0.00  0.00    +0.150 HD
ATOM     35  O   LIG    1       -0.648  -3.021  -3.513  0.00  0.00    -0.273 OA
ATOM     36  O   LIG    1       -8.253  -1.050  -0.957  0.00  0.00    -0.274 OA
ATOM     37  H   LIG    1       -7.208   1.393  -1.341  0.00  0.00    +0.150 HD
ATOM     38  N   LIG    1       -5.606   3.431  -0.340  0.00  0.00    -0.285 N 
ENDROOT
BRANCH  20  39
ATOM     39  N   LIG    1        2.597   0.338   0.416  0.00  0.00    -0.300 N 
ATOM     40  C   LIG    1        3.333  -0.410   1.342  0.00  0.00    +0.245 C 
ATOM     41  O   LIG    1        2.725  -1.245   2.079  0.00  0.00    -0.270 OA
ATOM     42  H   LIG    1        3.101   1.020  -0.190  0.00  0.00    +0.150 HD
BRANCH  40  43
ATOM     43  C   LIG    1        4.770  -0.291   1.521  0.00  0.00    +0.037 A 
ATOM     44  C   LIG    1        5.410  -0.619   2.696  0.00  0.00    +0.014 A 
ATOM     45  C   LIG    1        6.774  -0.500   2.852  0.00  0.00    +0.011 A 
ATOM     46  C   LIG    1        7.562  -0.041   1.814  0.00  0.00    +0.004 A 
ATOM     47  C   LIG    1        6.941   0.290   0.634  0.00  0.00    +0.011 A 
ATOM     48  C   LIG    1        5.573   0.169   0.485  0.00  0.00    +0.014 A 
BRANCH  46  49
ATOM     49  C   LIG    1        9.017   0.105   1.980  0.00  0.00    +0.114 A 
ATOM     50  N   LIG    1        9.712  -0.112   3.102  0.00  0.00    -0.078 NA
ATOM     51  O   LIG    1       10.965   0.098   2.892  0.00  0.00    -0.354 OA
ATOM     52  C   LIG    1       11.184   0.462   1.641  0.00  0.00    +0.168 A 
ATOM     53  C   LIG    1        9.948   0.474   1.033  0.00  0.00    +0.081 A 
BRANCH  52  54
ATOM     54  C   LIG    1       12.474   0.781   1.044  0.00  0.00    +0.020 A 
ATOM     55  C   LIG    1       13.639   0.771   1.785  0.00  0.00    +0.015 A 
ATOM     56  C   LIG    1       14.859   1.063   1.229  0.00  0.00    +0.046 A 
ATOM     57  C   LIG    1       14.998   1.388  -0.115  0.00  0.00    +0.121 A 
ATOM     58  C   LIG    1       13.802   1.394  -0.856  0.00  0.00    +0.046 A 
ATOM     59  C   LIG    1       12.591   1.099  -0.285  0.00  0.00    +0.015 A 
BRANCH  57  60
ATOM     60  O   LIG    1       16.183   1.689  -0.701  0.00  0.00    -0.492 OA
BRANCH  60  61
ATOM     61  C   LIG    1       17.475   1.767  -0.397  0.00  0.00    +0.229 C 
BRANCH  61  62
ATOM     62  C   LIG    1       18.398   0.680  -0.093  0.00  0.00    +0.041 C 
BRANCH  62  63
ATOM     63  C   LIG    1       18.216  -0.341   0.928  0.00  0.00    +0.003 C 
BRANCH  63  64
ATOM     64  C   LIG    1       17.170  -1.377   0.755  0.00  0.00    -0.003 C 
ATOM     65  C   LIG    1       17.459  -2.176  -0.533  0.00  0.00    +0.004 C 
ENDBRANCH  63  64
ENDBRANCH  62  63
ENDBRANCH  61  62
ENDBRANCH  60  61
ENDBRANCH  57  60
ENDBRANCH  52  54
ENDBRANCH  46  49
ENDBRANCH  40  43
ENDBRANCH  20  39
BRANCH  13  66
ATOM     66  O   LIG    1       -4.340  -0.626  -5.127  0.00  0.00    -0.390 OA
ATOM     67  H   LIG    1       -3.939   0.255  -4.917  0.00  0.00    +0.210 HD
ENDBRANCH  13  66
BRANCH  22  68
ATOM     68  O   LIG    1       -1.612   1.111   0.041  0.00  0.00    -0.387 OA
ATOM     69  H   LIG    1       -1.872   0.894  -0.888  0.00  0.00    +0.210 HD
ENDBRANCH  22  68
BRANCH  23  70
ATOM     70  O   LIG    1       -1.007   4.454   0.044  0.00  0.00    -0.372 OA
ATOM     71  H   LIG    1       -0.165   4.377  -0.466  0.00  0.00    +0.212 HD
ENDBRANCH  23  70
BRANCH  29  72
ATOM     72  O   LIG    1       -4.190   2.855  -2.864  0.00  0.00    -0.389 OA
ATOM     73  H   LIG    1       -4.970   2.267  -2.706  0.00  0.00    +0.210 HD
ENDBRANCH  29  72
BRANCH  17  74
ATOM     74  C   LIG    1        0.173  -3.203  -0.911  0.00  0.00    +0.141 C 
ATOM     75  C   LIG    1       -0.881  -4.167  -0.428  0.00  0.00    +0.040 C 
BRANCH  74  76
ATOM     76  O   LIG    1        0.902  -3.749  -1.966  0.00  0.00    -0.390 OA
ATOM     77  H   LIG    1        1.721  -4.147  -1.585  0.00  0.00    +0.210 HD
ENDBRANCH  74  76
ENDBRANCH  17  74
BRANCH   6  78
ATOM     78  C   LIG    1       -6.584  -2.180   1.417  0.00  0.00    +0.176 C 
BRANCH  78  79
ATOM     79  O   LIG    1       -5.284  -2.800   1.711  0.00  0.00    -0.387 OA
ATOM     80  H   LIG    1       -5.447  -3.533   2.367  0.00  0.00    +0.210 HD
ENDBRANCH  78  79
BRANCH  78  81
ATOM     81  C   LIG    1       -7.467  -3.394   1.259  0.00  0.00    +0.175 C 
BRANCH  81  82
ATOM     82  C   LIG    1       -8.908  -3.178   1.215  0.00  0.00    -0.013 A 
ATOM     83  C   LIG    1       -9.633  -2.581   2.226  0.00  0.00    +0.010 A 
ATOM     84  C   LIG    1      -10.997  -2.432   2.142  0.00  0.00    +0.049 A 
ATOM     85  C   LIG    1      -11.720  -2.867   1.048  0.00  0.00    +0.161 A 
ATOM     86  C   LIG    1      -10.978  -3.462   0.044  0.00  0.00    +0.200 A 
ATOM     87  C   LIG    1       -9.613  -3.621   0.110  0.00  0.00    +0.058 A 
BRANCH  85  88
ATOM     88  O   LIG    1      -13.100  -2.708   0.980  0.00  0.00    -0.503 OA
ATOM     89  H   LIG    1      -13.594  -3.033   0.180  0.00  0.00    +0.292 HD
ENDBRANCH  85  88
BRANCH  86  90
ATOM     90  O   LIG    1      -11.709  -3.909  -1.074  0.00  0.00    -0.321 OA
BRANCH  90  91
ATOM     91  S   LIG    1      -11.938  -2.839  -2.368  0.00  0.00    +0.251 S 
ATOM     92  O   LIG    1      -11.261  -1.510  -2.086  0.00  0.00    -0.108 OA
ATOM     93  O   LIG    1      -13.407  -2.542  -2.513  0.00  0.00    -0.108 OA
BRANCH  91  94
ATOM     94  O   LIG    1      -11.299  -3.483  -3.779  0.00  0.00    -0.222 OA
ATOM     95  H   LIG    1      -11.655  -4.382  -3.938  0.00  0.00    +0.248 HD
ENDBRANCH  91  94
ENDBRANCH  90  91
ENDBRANCH  86  90
ENDBRANCH  81  82
BRANCH  81  96
ATOM     96  O   LIG    1       -7.286  -4.084   2.528  0.00  0.00    -0.385 OA
ATOM     97  H   LIG    1       -7.212  -5.046   2.376  0.00  0.00    +0.210 HD
ENDBRANCH  81  96
ENDBRANCH  78  81
ENDBRANCH   6  78
BRANCH   3  98
ATOM     98  C   LIG    1       -7.449   1.310   2.078  0.00  0.00    +0.152 C 
BRANCH  98  99
ATOM     99  O   LIG    1       -8.566   0.444   2.173  0.00  0.00    -0.389 OA
ATOM    100  H   LIG    1       -9.241   0.735   1.532  0.00  0.00    +0.210 HD
ENDBRANCH  98  99
BRANCH  98 101
ATOM    101  C   LIG    1       -7.611   2.305   3.178  0.00  0.00    +0.129 C 
BRANCH 101 102
ATOM    102  C   LIG    1       -8.876   3.061   3.094  0.00  0.00    +0.213 C 
ATOM    103  N   LIG    1       -9.148   4.121   4.049  0.00  0.00    -0.329 N 
ATOM    104  H   LIG    1       -8.570   4.107   4.912  0.00  0.00    +0.145 HD
ATOM    105  H   LIG    1       -9.876   4.849   3.876  0.00  0.00    +0.145 HD
ATOM    106  O   LIG    1       -9.788   2.888   2.258  0.00  0.00    -0.276 OA
ENDBRANCH 101 102
ENDBRANCH  98 101
ENDBRANCH   3  98
TORSDOF 28
