REMARK  Name = molecules/PIJVFDBKTWXHHD-HIFRSBDPSA-N.pdb
REMARK                            x       y       z     vdW  Elec       q    Type
REMARK                         _______ _______ _______ _____ _____    ______ ____
ROOT
ATOM      1  C   LIG    1       -1.537   0.154  -2.367  0.00  0.00    +0.019 C 
ATOM      2  C   LIG    1       -1.325   0.331  -0.897  0.00  0.00    +0.028 C 
ATOM      3  C   LIG    1       -2.500  -0.269  -0.109  0.00  0.00    +0.154 C 
ATOM      4  N   LIG    1       -1.854  -0.677   1.114  0.00  0.00    -0.316 N 
ATOM      5  C   LIG    1       -2.453  -0.784   2.438  0.00  0.00    +0.131 C 
ATOM      6  C   LIG    1       -0.501  -0.961   0.784  0.00  0.00    +0.035 A 
ATOM      7  C   LIG    1        0.408  -1.724   1.526  0.00  0.00    +0.027 A 
ATOM      8  C   LIG    1        1.680  -1.875   1.024  0.00  0.00    +0.048 A 
ATOM      9  C   LIG    1        2.089  -1.311  -0.166  0.00  0.00    +0.134 A 
ATOM     10  C   LIG    1        1.139  -0.564  -0.857  0.00  0.00    +0.052 A 
ATOM     11  N   LIG    1       -3.305   0.848   0.121  0.00  0.00    -0.287 NA
ATOM     12  C   LIG    1       -2.597   2.025   0.289  0.00  0.00    +0.087 C 
ATOM     13  C   LIG    1       -4.668   0.764   0.216  0.00  0.00    +0.106 C 
ATOM     14  C   LIG    1       -0.134  -0.379  -0.411  0.00  0.00    -0.014 A 
ATOM     15  C   LIG    1       -1.338   1.802  -0.527  0.00  0.00    +0.030 C 
ENDROOT
BRANCH   9  16
ATOM     16  O   LIG    1        3.381  -1.476  -0.658  0.00  0.00    -0.412 OA
BRANCH  16  17
ATOM     17  C   LIG    1        4.367  -0.575  -0.316  0.00  0.00    +0.405 C 
ATOM     18  O   LIG    1        4.119   0.390   0.431  0.00  0.00    -0.226 OA
ATOM     19  N   LIG    1        5.673  -0.754  -0.822  0.00  0.00    -0.284 N 
ATOM     20  C   LIG    1        6.728   0.178  -0.479  0.00  0.00    +0.131 C 
ATOM     21  H   LIG    1        5.909  -1.558  -1.453  0.00  0.00    +0.152 HD
ENDBRANCH  16  17
ENDBRANCH   9  16
TORSDOF 2
