REMARK  Name = molecules/PIPAJLPNWZMYQA-YVSFHVDLSA-N.pdb
REMARK                            x       y       z     vdW  Elec       q    Type
REMARK                         _______ _______ _______ _____ _____    ______ ____
ROOT
ATOM      1  C   LIG    1       -1.602  -0.103  -0.117  0.00  0.00    +0.317 C 
ATOM      2  O   LIG    1       -1.679   0.611   0.938  0.00  0.00    -0.250 OA
ENDROOT
BRANCH   1   3
ATOM      3  C   LIG    1       -2.821  -0.626  -0.781  0.00  0.00    +0.153 C 
BRANCH   3   8
ATOM      4  C   LIG    1       -5.361  -0.127   1.982  0.00  0.00    +0.000 A 
ATOM      5  C   LIG    1       -6.315   0.656   1.377  0.00  0.00    +0.000 A 
ATOM      6  C   LIG    1       -6.112   1.014   0.059  0.00  0.00    +0.000 A 
ATOM      7  C   LIG    1       -4.996   0.608  -0.640  0.00  0.00    +0.004 A 
ATOM      8  C   LIG    1       -4.023  -0.187  -0.034  0.00  0.00    -0.032 A 
ATOM      9  C   LIG    1       -4.236  -0.537   1.276  0.00  0.00    +0.004 A 
ENDBRANCH   3   8
BRANCH   3  10
ATOM     10  C   LIG    1       -2.754  -2.150  -0.911  0.00  0.00    +0.175 C 
BRANCH  10  11
ATOM     11  O   LIG    1       -2.710  -2.777   0.317  0.00  0.00    -0.394 OA
ATOM     12  H   LIG    1       -1.821  -2.740   0.737  0.00  0.00    +0.209 HD
ENDBRANCH  10  11
ENDBRANCH   3  10
ENDBRANCH   1   3
BRANCH   1  13
ATOM     13  O   LIG    1       -0.334  -0.352  -0.591  0.00  0.00    -0.461 OA
BRANCH  13  14
ATOM     14  C   LIG    1        0.817   0.155   0.054  0.00  0.00    +0.173 C 
ATOM     15  C   LIG    1        1.722  -1.002   0.385  0.00  0.00    +0.030 C 
ATOM     16  C   LIG    1        3.073  -0.566   0.845  0.00  0.00    -0.062 C 
ATOM     17  C   LIG    1        2.857   0.504   1.921  0.00  0.00    -0.016 C 
ATOM     18  C   LIG    1        2.777   1.784   1.123  0.00  0.00    -0.016 C 
ATOM     19  C   LIG    1        2.954   1.348  -0.327  0.00  0.00    -0.062 C 
ATOM     20  N   LIG    1        3.761   0.171  -0.181  0.00  0.00    +0.380 N 
ATOM     21  C   LIG    1        5.074   0.584   0.266  0.00  0.00    -0.092 C 
ATOM     22  C   LIG    1        3.926  -0.569  -1.403  0.00  0.00    -0.092 C 
ATOM     23  C   LIG    1        1.591   1.077  -0.883  0.00  0.00    +0.030 C 
ENDBRANCH  13  14
ENDBRANCH   1  13
TORSDOF 6
