REMARK  Name = molecules/PJDFLNIOAUIZSL-YFKPBYRVSA-N.pdb
REMARK                            x       y       z     vdW  Elec       q    Type
REMARK                         _______ _______ _______ _____ _____    ______ ____
ROOT
ATOM      1  C   LIG    1       -0.941  -0.421  -0.332  0.00  0.00    +0.074 C 
ENDROOT
BRANCH   1   2
ATOM      2  N   LIG    1       -2.148  -1.210   0.068  0.00  0.00    -0.324 NA
ATOM      3  H   LIG    1       -1.953  -1.427   1.081  0.00  0.00    +0.119 HD
ATOM      4  H   LIG    1       -2.195  -2.093  -0.485  0.00  0.00    +0.119 HD
ENDBRANCH   1   2
BRANCH   1   5
ATOM      5  C   LIG    1       -1.114   0.844   0.426  0.00  0.00    -0.016 C 
ATOM      6  C   LIG    1       -1.223   2.027  -0.158  0.00  0.00    +0.005 C 
ENDBRANCH   1   5
BRANCH   1   7
ATOM      7  C   LIG    1        0.217  -1.246   0.080  0.00  0.00    +0.034 C 
BRANCH   7   8
ATOM      8  C   LIG    1        1.580  -0.775  -0.190  0.00  0.00    +0.122 C 
BRANCH   8   9
ATOM      9  C   LIG    1        2.066   0.452   0.410  0.00  0.00    +0.305 C 
ATOM     10  O   LIG    1        3.238   0.858   0.028  0.00  0.00    -0.251 OA
BRANCH   9  11
ATOM     11  O   LIG    1        1.470   1.257   1.331  0.00  0.00    -0.481 OA
ATOM     12  H   LIG    1        1.370   2.262   1.220  0.00  0.00    +0.295 HD
ENDBRANCH   9  11
ENDBRANCH   8   9
ENDBRANCH   7   8
ENDBRANCH   1   7
TORSDOF 6
