REMARK  Name = molecules/PJMPHNIQZUBGLI-UHFFFAOYSA-N.pdb
REMARK                            x       y       z     vdW  Elec       q    Type
REMARK                         _______ _______ _______ _____ _____    ______ ____
ROOT
ATOM      1  C   LIG    1       -0.875   0.190  -0.030  0.00  0.00    +0.084 C 
ATOM      2  C   LIG    1       -0.379  -0.586   1.138  0.00  0.00    +0.038 C 
ATOM      3  C   LIG    1        0.656  -1.597   0.616  0.00  0.00    +0.086 C 
ATOM      4  N   LIG    1        1.294  -1.003  -0.491  0.00  0.00    -0.302 NA
ATOM      5  C   LIG    1        0.550  -0.948  -1.679  0.00  0.00    +0.086 C 
ATOM      6  C   LIG    1       -0.919  -0.749  -1.254  0.00  0.00    +0.038 C 
ENDROOT
BRANCH   1   7
ATOM      7  N   LIG    1       -2.218   0.700   0.114  0.00  0.00    -0.268 N 
ATOM      8  C   LIG    1       -2.409   2.089  -0.145  0.00  0.00    +0.220 C 
ATOM      9  O   LIG    1       -1.439   2.836  -0.502  0.00  0.00    -0.275 OA
BRANCH   7  10
ATOM     10  C   LIG    1       -3.322  -0.069   0.493  0.00  0.00    +0.037 A 
ATOM     11  C   LIG    1       -3.670  -0.317   1.803  0.00  0.00    +0.023 A 
ATOM     12  C   LIG    1       -4.765  -1.085   2.149  0.00  0.00    +0.002 A 
ATOM     13  C   LIG    1       -5.558  -1.636   1.153  0.00  0.00    +0.000 A 
ATOM     14  C   LIG    1       -5.229  -1.401  -0.157  0.00  0.00    +0.002 A 
ATOM     15  C   LIG    1       -4.133  -0.634  -0.479  0.00  0.00    +0.023 A 
ENDBRANCH   7  10
BRANCH   8  16
ATOM     16  C   LIG    1       -3.757   2.714  -0.005  0.00  0.00    +0.093 C 
ATOM     17  C   LIG    1       -4.426   2.741  -1.344  0.00  0.00    +0.013 C 
ENDBRANCH   8  16
ENDBRANCH   1   7
BRANCH   4  18
ATOM     18  C   LIG    1        2.538  -0.402  -0.367  0.00  0.00    +0.089 C 
BRANCH  18  19
ATOM     19  C   LIG    1        3.691  -1.344  -0.096  0.00  0.00    +0.050 C 
BRANCH  19  20
ATOM     20  C   LIG    1        4.916  -0.534   0.026  0.00  0.00    -0.046 A 
ATOM     21  C   LIG    1        5.316  -0.028   1.258  0.00  0.00    +0.003 A 
ATOM     22  C   LIG    1        6.458   0.727   1.386  0.00  0.00    +0.000 A 
ATOM     23  C   LIG    1        7.227   0.995   0.285  0.00  0.00    +0.000 A 
ATOM     24  C   LIG    1        6.847   0.498  -0.964  0.00  0.00    +0.000 A 
ATOM     25  C   LIG    1        5.682  -0.268  -1.072  0.00  0.00    +0.003 A 
ENDBRANCH  19  20
ENDBRANCH  18  19
ENDBRANCH   4  18
TORSDOF 6
