REMARK  Name = molecules/PJSFRIWCGOHTNF-UHFFFAOYSA-N.pdb
REMARK                            x       y       z     vdW  Elec       q    Type
REMARK                         _______ _______ _______ _____ _____    ______ ____
ROOT
ATOM      1  N   LIG    1       -0.403   1.197   1.488  0.00  0.00    -0.196 N 
ATOM      2  H   LIG    1       -0.821   0.983   2.410  0.00  0.00    +0.175 HD
ENDROOT
BRANCH   1   3
ATOM      3  C   LIG    1       -1.112   0.958   0.304  0.00  0.00    +0.187 A 
ATOM      4  C   LIG    1       -2.402   0.424   0.370  0.00  0.00    +0.223 A 
ATOM      5  C   LIG    1       -3.086   0.196  -0.805  0.00  0.00    +0.263 A 
ATOM      6  N   LIG    1       -2.515   0.484  -1.979  0.00  0.00    -0.198 NA
ATOM      7  C   LIG    1       -1.275   0.998  -2.070  0.00  0.00    +0.227 A 
ATOM      8  N   LIG    1       -0.622   1.216  -0.920  0.00  0.00    -0.216 NA
BRANCH   4   9
ATOM      9  O   LIG    1       -2.919   0.155   1.616  0.00  0.00    -0.488 OA
ATOM     10  C   LIG    1       -2.702  -1.120   2.178  0.00  0.00    +0.277 C 
ENDBRANCH   4   9
BRANCH   5  11
ATOM     11  O   LIG    1       -4.364  -0.336  -0.692  0.00  0.00    -0.477 OA
ATOM     12  C   LIG    1       -5.190  -0.626  -1.798  0.00  0.00    +0.279 C 
ENDBRANCH   5  11
ENDBRANCH   1   3
BRANCH   1  13
ATOM     13  S   LIG    1        1.177   1.848   1.443  0.00  0.00    +0.074 S 
ATOM     14  O   LIG    1        1.688   2.173   2.821  0.00  0.00    -0.150 OA
ATOM     15  O   LIG    1        1.167   3.171   0.686  0.00  0.00    -0.150 OA
BRANCH  13  16
ATOM     16  C   LIG    1        2.312   0.817   0.599  0.00  0.00    +0.109 A 
ATOM     17  C   LIG    1        2.986  -0.190   1.286  0.00  0.00    +0.030 A 
ATOM     18  C   LIG    1        3.892  -1.026   0.668  0.00  0.00    +0.024 A 
ATOM     19  C   LIG    1        4.172  -0.899  -0.676  0.00  0.00    +0.025 A 
ATOM     20  C   LIG    1        3.506   0.097  -1.360  0.00  0.00    +0.024 A 
ATOM     21  C   LIG    1        2.598   0.936  -0.744  0.00  0.00    +0.030 A 
BRANCH  19  22
ATOM     22  N   LIG    1        5.103  -1.751  -1.335  0.00  0.00    -0.358 N 
ATOM     23  H   LIG    1        6.137  -1.561  -1.278  0.00  0.00    +0.142 HD
ATOM     24  H   LIG    1        4.811  -2.583  -1.891  0.00  0.00    +0.142 HD
ENDBRANCH  19  22
ENDBRANCH  13  16
ENDBRANCH   1  13
TORSDOF 6
