REMARK  Name = molecules/PJWPNDMDCLXCOM-LJQANCHMSA-N.pdb
REMARK                            x       y       z     vdW  Elec       q    Type
REMARK                         _______ _______ _______ _____ _____    ______ ____
ROOT
ATOM      1  C   LIG    1        0.075  -0.449  -2.917  0.00  0.00    +0.037 A 
ATOM      2  C   LIG    1       -1.003  -1.183  -2.485  0.00  0.00    -0.026 A 
ATOM      3  C   LIG    1       -1.991  -1.665  -3.350  0.00  0.00    +0.005 A 
ATOM      4  C   LIG    1       -1.885  -1.395  -4.692  0.00  0.00    +0.000 A 
ATOM      5  C   LIG    1       -0.828  -0.665  -5.171  0.00  0.00    +0.002 A 
ATOM      6  C   LIG    1        0.142  -0.199  -4.279  0.00  0.00    +0.023 A 
ENDROOT
BRANCH   1   8
ATOM      7  C   LIG    1        2.168   0.786  -2.220  0.00  0.00    +0.248 C 
ATOM      8  N   LIG    1        1.051  -0.026  -1.991  0.00  0.00    -0.281 N 
ATOM      9  H   LIG    1        0.935  -0.374  -0.991  0.00  0.00    +0.155 HD
ATOM     10  O   LIG    1        2.450   1.265  -3.342  0.00  0.00    -0.270 OA
BRANCH   7  14
ATOM     11  C   LIG    1        4.939   1.866   0.869  0.00  0.00    +0.120 A 
ATOM     12  C   LIG    1        3.997   0.888   1.097  0.00  0.00    +0.046 A 
ATOM     13  C   LIG    1        3.091   0.533   0.093  0.00  0.00    +0.016 A 
ATOM     14  C   LIG    1        3.104   1.139  -1.142  0.00  0.00    +0.037 A 
ATOM     15  C   LIG    1        4.065   2.123  -1.346  0.00  0.00    +0.016 A 
ATOM     16  C   LIG    1        4.963   2.482  -0.369  0.00  0.00    +0.046 A 
BRANCH  11  18
ATOM     17  C   LIG    1        5.913   1.696   3.095  0.00  0.00    +0.277 C 
ATOM     18  O   LIG    1        5.872   2.275   1.807  0.00  0.00    -0.495 OA
ENDBRANCH  11  18
ENDBRANCH   7  14
ENDBRANCH   1   8
BRANCH   2  19
ATOM     19  C   LIG    1       -1.211  -1.484  -1.061  0.00  0.00    +0.038 C 
BRANCH  19  20
ATOM     20  C   LIG    1       -1.804  -0.257  -0.388  0.00  0.00    +0.023 C 
BRANCH  20  21
ATOM     21  C   LIG    1       -2.033  -0.484   1.074  0.00  0.00    +0.057 C 
ATOM     22  C   LIG    1       -2.619   0.771   1.660  0.00  0.00    +0.019 C 
ATOM     23  C   LIG    1       -3.100   0.588   3.075  0.00  0.00    +0.003 C 
ATOM     24  C   LIG    1       -2.611  -0.726   3.638  0.00  0.00    +0.015 C 
ATOM     25  C   LIG    1       -2.925  -1.908   2.787  0.00  0.00    +0.084 C 
ATOM     26  N   LIG    1       -2.742  -1.669   1.382  0.00  0.00    -0.302 NA
ATOM     27  C   LIG    1       -3.909  -1.945   0.599  0.00  0.00    +0.105 C 
ENDBRANCH  20  21
ENDBRANCH  19  20
ENDBRANCH   2  19
TORSDOF 6
