REMARK  Name = molecules/PLBHSZGDDKCEHR-LFYFAGGJSA-N.pdb
REMARK                            x       y       z     vdW  Elec       q    Type
REMARK                         _______ _______ _______ _____ _____    ______ ____
ROOT
ATOM      1  C   LIG    1        1.334  -1.365  -1.128  0.00  0.00    +0.015 C 
ATOM      2  C   LIG    1        0.933  -1.447   0.294  0.00  0.00    +0.009 C 
ATOM      3  C   LIG    1        2.041  -1.828   1.238  0.00  0.00    +0.133 C 
ATOM      4  C   LIG    1        2.582  -0.541   1.825  0.00  0.00    +0.043 C 
ATOM      5  C   LIG    1        1.759   0.582   1.165  0.00  0.00    +0.008 C 
ATOM      6  C   LIG    1        0.504  -0.121   0.911  0.00  0.00    +0.002 C 
ATOM      7  C   LIG    1       -0.506   0.478  -0.005  0.00  0.00    -0.000 C 
ATOM      8  C   LIG    1       -1.773  -0.290   0.284  0.00  0.00    +0.035 C 
ATOM      9  C   LIG    1       -1.555  -1.730  -0.013  0.00  0.00    +0.120 C 
ATOM     10  C   LIG    1       -2.999   0.280  -0.365  0.00  0.00    +0.013 C 
ATOM     11  C   LIG    1       -4.187  -0.407   0.119  0.00  0.00    -0.012 C 
ATOM     12  C   LIG    1       -5.175   0.144   0.807  0.00  0.00    +0.047 C 
ATOM     13  C   LIG    1       -5.145   1.539   1.146  0.00  0.00    +0.179 C 
ATOM     14  O   LIG    1       -6.070   2.055   1.788  0.00  0.00    -0.288 OA
ATOM     15  C   LIG    1       -3.989   2.309   0.702  0.00  0.00    +0.051 C 
ATOM     16  C   LIG    1       -3.037   1.711   0.023  0.00  0.00    -0.053 C 
ATOM     17  C   LIG    1       -1.873   2.583  -0.379  0.00  0.00    +0.013 C 
ATOM     18  C   LIG    1       -1.967   3.962   0.178  0.00  0.00    +0.012 C 
ATOM     19  C   LIG    1       -2.895   0.264  -1.882  0.00  0.00    +0.020 C 
ATOM     20  C   LIG    1       -0.599   1.947   0.040  0.00  0.00    +0.012 C 
ATOM     21  C   LIG    1       -0.288  -2.331   0.449  0.00  0.00    +0.041 C 
ENDROOT
BRANCH   3  22
ATOM     22  O   LIG    1        1.402  -2.613   2.244  0.00  0.00    -0.380 OA
ATOM     23  H   LIG    1        1.405  -3.538   1.876  0.00  0.00    +0.211 HD
ENDBRANCH   3  22
BRANCH   3  24
ATOM     24  C   LIG    1        3.152  -2.582   0.655  0.00  0.00    +0.202 C 
ATOM     25  O   LIG    1        3.190  -3.797   0.953  0.00  0.00    -0.291 OA
BRANCH  24  26
ATOM     26  C   LIG    1        4.223  -2.101  -0.225  0.00  0.00    +0.309 C 
BRANCH  26  27
ATOM     27  O   LIG    1        4.187  -0.722  -0.505  0.00  0.00    -0.457 OA
BRANCH  27  28
ATOM     28  C   LIG    1        5.109  -0.085  -1.312  0.00  0.00    +0.304 C 
ATOM     29  C   LIG    1        5.076   1.365  -1.610  0.00  0.00    +0.136 C 
ATOM     30  O   LIG    1        6.026  -0.771  -1.822  0.00  0.00    -0.251 OA
ENDBRANCH  27  28
ENDBRANCH  26  27
ENDBRANCH  24  26
ENDBRANCH   3  24
BRANCH   9  31
ATOM     31  O   LIG    1       -1.787  -1.932  -1.392  0.00  0.00    -0.391 OA
ATOM     32  H   LIG    1       -1.876  -2.900  -1.526  0.00  0.00    +0.210 HD
ENDBRANCH   9  31
TORSDOF 6
