REMARK  Name = molecules/PLDUPXSUYLZYBN-UHFFFAOYSA-N.pdb
REMARK                            x       y       z     vdW  Elec       q    Type
REMARK                         _______ _______ _______ _____ _____    ______ ____
ROOT
ATOM      1  N   LIG    1        2.555  -0.606   0.486  0.00  0.00    -0.298 N 
ATOM      2  C   LIG    1        2.239  -2.002   0.610  0.00  0.00    +0.048 A 
ATOM      3  C   LIG    1        1.132  -2.408   1.351  0.00  0.00    +0.024 A 
ATOM      4  C   LIG    1        0.750  -3.729   1.480  0.00  0.00    +0.002 A 
ATOM      5  C   LIG    1        1.470  -4.727   0.866  0.00  0.00    +0.001 A 
ATOM      6  C   LIG    1        2.571  -4.336   0.135  0.00  0.00    +0.017 A 
ATOM      7  C   LIG    1        2.933  -3.019   0.019  0.00  0.00    +0.034 A 
ATOM      8  S   LIG    1        4.387  -2.659  -0.928  0.00  0.00    -0.086 S 
ATOM      9  C   LIG    1        4.539  -0.898  -0.981  0.00  0.00    +0.034 A 
ATOM     10  C   LIG    1        5.554  -0.386  -1.730  0.00  0.00    +0.017 A 
ATOM     11  C   LIG    1        5.775   0.967  -1.843  0.00  0.00    +0.013 A 
ATOM     12  C   LIG    1        4.904   1.780  -1.148  0.00  0.00    +0.057 A 
ATOM     13  C   LIG    1        3.876   1.263  -0.390  0.00  0.00    +0.037 A 
ATOM     14  C   LIG    1        3.664  -0.100  -0.287  0.00  0.00    +0.048 A 
ENDROOT
BRANCH  12  15
ATOM     15  C   LIG    1        5.077   3.271  -1.208  0.00  0.00    +0.417 C 
ATOM     16  F   LIG    1        4.053   3.884  -0.564  0.00  0.00    -0.166 F 
ATOM     17  F   LIG    1        6.308   3.616  -0.671  0.00  0.00    -0.166 F 
ATOM     18  F   LIG    1        5.030   3.649  -2.537  0.00  0.00    -0.166 F 
ENDBRANCH  12  15
BRANCH   1  19
ATOM     19  C   LIG    1        1.688   0.319   1.152  0.00  0.00    +0.112 C 
BRANCH  19  20
ATOM     20  C   LIG    1        0.316   0.461   0.513  0.00  0.00    +0.035 C 
BRANCH  20  21
ATOM     21  C   LIG    1       -0.519   1.430   1.288  0.00  0.00    +0.086 C 
BRANCH  21  25
ATOM     22  N   LIG    1       -4.370   1.084  -0.416  0.00  0.00    -0.298 NA
ATOM     23  C   LIG    1       -4.104   0.822   0.993  0.00  0.00    +0.100 C 
ATOM     24  C   LIG    1       -2.664   0.388   1.191  0.00  0.00    +0.100 C 
ATOM     25  N   LIG    1       -1.873   1.576   0.872  0.00  0.00    -0.300 NA
ATOM     26  C   LIG    1       -2.092   2.002  -0.481  0.00  0.00    +0.100 C 
ATOM     27  C   LIG    1       -3.143   1.161  -1.168  0.00  0.00    +0.100 C 
BRANCH  22  28
ATOM     28  C   LIG    1       -5.226   0.045  -0.971  0.00  0.00    +0.112 C 
BRANCH  28  29
ATOM     29  C   LIG    1       -6.627   0.103  -0.411  0.00  0.00    +0.171 C 
BRANCH  29  30
ATOM     30  O   LIG    1       -7.404  -0.901  -0.958  0.00  0.00    -0.394 OA
ATOM     31  H   LIG    1       -7.290  -1.779  -0.491  0.00  0.00    +0.209 HD
ENDBRANCH  29  30
ENDBRANCH  28  29
ENDBRANCH  22  28
ENDBRANCH  21  25
ENDBRANCH  20  21
ENDBRANCH  19  20
ENDBRANCH   1  19
TORSDOF 8
