REMARK  Name = molecules/PLHJDBGFXBMTGZ-UHFFFAOYSA-N.pdb
REMARK                            x       y       z     vdW  Elec       q    Type
REMARK                         _______ _______ _______ _____ _____    ______ ____
ROOT
ATOM      1  C   LIG    1        0.180   0.372   0.127  0.00  0.00    +0.177 C 
ATOM      2  N   LIG    1       -0.790  -0.474   0.069  0.00  0.00    -0.179 NA
ENDROOT
BRANCH   2   3
ATOM      3  N   LIG    1       -2.120  -0.149   0.191  0.00  0.00    -0.155 N 
ATOM      4  C   LIG    1       -2.886  -0.142   1.402  0.00  0.00    +0.423 C 
ATOM      5  O   LIG    1       -2.622  -0.739   2.485  0.00  0.00    -0.224 OA
ATOM      6  O   LIG    1       -4.021   0.651   1.223  0.00  0.00    -0.447 OA
ATOM      7  C   LIG    1       -4.239   0.861  -0.134  0.00  0.00    +0.255 C 
ATOM      8  C   LIG    1       -3.047   0.255  -0.850  0.00  0.00    +0.179 C 
ENDBRANCH   2   3
BRANCH   1   9
ATOM      9  C   LIG    1        1.558  -0.050  -0.011  0.00  0.00    +0.150 A 
ATOM     10  O   LIG    1        2.637   0.696   0.028  0.00  0.00    -0.433 OA
ATOM     11  C   LIG    1        3.707  -0.042  -0.136  0.00  0.00    +0.280 A 
ATOM     12  C   LIG    1        3.358  -1.366  -0.295  0.00  0.00    +0.076 A 
ATOM     13  C   LIG    1        1.969  -1.369  -0.214  0.00  0.00    +0.053 A 
BRANCH  11  14
ATOM     14  N   LIG    1        5.054   0.446  -0.148  0.00  0.00    +0.093 N 
ATOM     15  O   LIG    1        5.344   1.777   0.016  0.00  0.00    -0.123 OA
ATOM     16  O   LIG    1        6.020  -0.324  -0.309  0.00  0.00    -0.123 OA
ENDBRANCH  11  14
ENDBRANCH   1   9
TORSDOF 3
