REMARK  Name = molecules/PLIGPBGDXASWPX-UHFFFAOYSA-N.pdb
REMARK                            x       y       z     vdW  Elec       q    Type
REMARK                         _______ _______ _______ _____ _____    ______ ____
ROOT
ATOM      1  N   LIG    1        0.066   0.588   1.280  0.00  0.00    -0.343 N 
ATOM      2  C   LIG    1       -0.926  -0.286   1.051  0.00  0.00    +0.023 A 
ATOM      3  C   LIG    1       -0.730  -1.695   1.423  0.00  0.00    +0.054 C 
ATOM      4  C   LIG    1       -1.674  -2.603   0.653  0.00  0.00    +0.006 C 
ATOM      5  C   LIG    1       -1.624  -2.274  -0.805  0.00  0.00    +0.000 C 
ATOM      6  C   LIG    1       -2.990  -2.038  -1.359  0.00  0.00    +0.000 C 
ATOM      7  C   LIG    1       -3.442  -0.613  -1.290  0.00  0.00    +0.005 C 
ATOM      8  C   LIG    1       -3.376  -0.010   0.070  0.00  0.00    +0.037 C 
ATOM      9  C   LIG    1       -2.026   0.393   0.516  0.00  0.00    -0.019 A 
ATOM     10  C   LIG    1       -1.632   1.712   0.445  0.00  0.00    +0.003 A 
ATOM     11  C   LIG    1       -2.298   2.850   0.003  0.00  0.00    +0.010 A 
ATOM     12  C   LIG    1       -1.670   4.095   0.038  0.00  0.00    +0.001 A 
ATOM     13  C   LIG    1       -0.381   4.219   0.508  0.00  0.00    +0.002 A 
ATOM     14  C   LIG    1        0.268   3.081   0.943  0.00  0.00    +0.026 A 
ATOM     15  C   LIG    1       -0.344   1.845   0.914  0.00  0.00    +0.050 A 
ENDROOT
BRANCH   1  16
ATOM     16  C   LIG    1        1.384   0.414   1.850  0.00  0.00    +0.123 C 
BRANCH  16  17
ATOM     17  C   LIG    1        2.501   0.345   0.853  0.00  0.00    +0.037 C 
BRANCH  17  18
ATOM     18  C   LIG    1        2.334  -0.780  -0.086  0.00  0.00    +0.085 C 
BRANCH  18  19
ATOM     19  N   LIG    1        3.377  -0.875  -1.087  0.00  0.00    -0.308 NA
ATOM     20  C   LIG    1        4.654  -1.241  -0.572  0.00  0.00    +0.104 C 
ATOM     21  C   LIG    1        3.381   0.172  -2.051  0.00  0.00    +0.104 C 
ENDBRANCH  18  19
ENDBRANCH  17  18
ENDBRANCH  16  17
ENDBRANCH   1  16
TORSDOF 4
