REMARK  Name = molecules/PMATZTZNYRCHOR-CGLBZJNRSA-N.pdb
REMARK                            x       y       z     vdW  Elec       q    Type
REMARK                         _______ _______ _______ _____ _____    ______ ____
ROOT
ATOM      1  C   LIG    1       -4.692  -3.285  -0.875  0.00  0.00    +0.190 C 
ATOM      2  N   LIG    1       -5.885  -2.609  -1.337  0.00  0.00    -0.289 N 
ATOM      3  C   LIG    1       -6.385  -1.371  -0.828  0.00  0.00    +0.237 C 
ATOM      4  C   LIG    1       -6.009  -0.788   0.463  0.00  0.00    +0.164 C 
ATOM      5  N   LIG    1       -4.785  -0.041   0.533  0.00  0.00    -0.291 N 
ATOM      6  C   LIG    1       -3.892  -0.434   1.682  0.00  0.00    +0.133 C 
ATOM      7  C   LIG    1       -4.258   0.958  -0.301  0.00  0.00    +0.236 C 
ATOM      8  C   LIG    1       -4.622   2.358  -0.566  0.00  0.00    +0.162 C 
ATOM      9  N   LIG    1       -4.228   3.298   0.488  0.00  0.00    -0.291 N 
ATOM     10  C   LIG    1       -5.375   3.834   1.280  0.00  0.00    +0.133 C 
ATOM     11  C   LIG    1       -2.980   3.755   0.906  0.00  0.00    +0.236 C 
ATOM     12  O   LIG    1       -2.664   3.408   2.153  0.00  0.00    -0.274 OA
ATOM     13  C   LIG    1       -1.889   4.540   0.324  0.00  0.00    +0.162 C 
ATOM     14  N   LIG    1       -0.709   3.779  -0.059  0.00  0.00    -0.291 N 
ATOM     15  C   LIG    1       -0.800   2.305  -0.010  0.00  0.00    +0.133 C 
ATOM     16  C   LIG    1        0.491   4.362  -0.462  0.00  0.00    +0.236 C 
ATOM     17  C   LIG    1        1.300   5.420   0.195  0.00  0.00    +0.156 C 
ATOM     18  C   LIG    1        1.157   5.426   1.688  0.00  0.00    +0.038 C 
ATOM     19  N   LIG    1        2.675   5.396  -0.273  0.00  0.00    -0.303 N 
ATOM     20  C   LIG    1        3.819   4.850   0.307  0.00  0.00    +0.234 C 
ATOM     21  C   LIG    1        4.145   3.474   0.700  0.00  0.00    +0.156 C 
ATOM     22  N   LIG    1        5.085   3.487   1.801  0.00  0.00    -0.303 N 
ATOM     23  H   LIG    1        4.870   4.275   2.501  0.00  0.00    +0.149 HD
ATOM     24  C   LIG    1        6.164   2.636   2.041  0.00  0.00    +0.234 C 
ATOM     25  O   LIG    1        6.162   2.031   3.179  0.00  0.00    -0.274 OA
ATOM     26  C   LIG    1        7.322   2.324   1.176  0.00  0.00    +0.162 C 
ATOM     27  N   LIG    1        7.113   2.442  -0.226  0.00  0.00    -0.291 N 
ATOM     28  C   LIG    1        7.234   3.789  -0.819  0.00  0.00    +0.133 C 
ATOM     29  C   LIG    1        6.788   1.411  -1.119  0.00  0.00    +0.237 C 
ATOM     30  C   LIG    1        6.867  -0.052  -0.919  0.00  0.00    +0.162 C 
ATOM     31  N   LIG    1        5.588  -0.670  -1.184  0.00  0.00    -0.302 N 
ATOM     32  C   LIG    1        4.662  -1.258  -0.341  0.00  0.00    +0.234 C 
ATOM     33  C   LIG    1        4.698  -2.544   0.406  0.00  0.00    +0.162 C 
ATOM     34  N   LIG    1        3.429  -2.828   1.045  0.00  0.00    -0.292 N 
ATOM     35  C   LIG    1        3.481  -3.047   2.515  0.00  0.00    +0.133 C 
ATOM     36  C   LIG    1        2.177  -2.880   0.386  0.00  0.00    +0.233 C 
ATOM     37  O   LIG    1        1.162  -2.740   1.153  0.00  0.00    -0.274 OA
ATOM     38  C   LIG    1        1.887  -3.071  -1.034  0.00  0.00    +0.203 C 
ATOM     39  N   LIG    1        0.639  -2.458  -1.444  0.00  0.00    -0.294 N 
ATOM     40  C   LIG    1       -0.645  -2.714  -0.974  0.00  0.00    +0.236 C 
ATOM     41  O   LIG    1       -1.327  -1.727  -0.516  0.00  0.00    -0.274 OA
ATOM     42  C   LIG    1       -1.406  -3.989  -0.906  0.00  0.00    +0.159 C 
ATOM     43  N   LIG    1       -2.411  -3.921  -1.943  0.00  0.00    -0.302 N 
ATOM     44  H   LIG    1       -2.188  -4.481  -2.833  0.00  0.00    +0.150 HD
ATOM     45  C   LIG    1        0.744  -1.412  -2.488  0.00  0.00    +0.132 C 
ATOM     46  O   LIG    1        3.563  -0.586  -0.155  0.00  0.00    -0.274 OA
ATOM     47  H   LIG    1        5.311  -0.638  -2.223  0.00  0.00    +0.150 HD
ATOM     48  O   LIG    1        6.358   1.757  -2.276  0.00  0.00    -0.274 OA
ATOM     49  C   LIG    1        2.986   2.629   1.172  0.00  0.00    +0.038 C 
ATOM     50  O   LIG    1        4.769   5.691   0.544  0.00  0.00    -0.274 OA
ATOM     51  H   LIG    1        2.772   5.894  -1.228  0.00  0.00    +0.149 HD
ATOM     52  O   LIG    1        0.989   3.927  -1.573  0.00  0.00    -0.274 OA
ATOM     53  O   LIG    1       -3.218   0.589  -1.000  0.00  0.00    -0.274 OA
ATOM     54  O   LIG    1       -7.215  -0.798  -1.621  0.00  0.00    -0.274 OA
ATOM     55  C   LIG    1       -6.592  -3.290  -2.440  0.00  0.00    +0.133 C 
ATOM     56  C   LIG    1       -3.621  -3.211  -1.935  0.00  0.00    +0.237 C 
ATOM     57  O   LIG    1       -3.872  -2.419  -2.904  0.00  0.00    -0.274 OA
ENDROOT
BRANCH   4  58
ATOM     58  C   LIG    1       -7.147  -0.246   1.256  0.00  0.00    +0.012 C 
ATOM     59  C   LIG    1       -6.701   0.262   2.639  0.00  0.00    +0.009 C 
ATOM     60  C   LIG    1       -7.971   0.824   0.655  0.00  0.00    +0.009 C 
ENDBRANCH   4  58
BRANCH  30  61
ATOM     61  C   LIG    1        7.972  -0.522  -1.861  0.00  0.00    +0.012 C 
ATOM     62  C   LIG    1        8.432  -1.917  -1.541  0.00  0.00    +0.009 C 
ATOM     63  C   LIG    1        7.701  -0.264  -3.303  0.00  0.00    +0.009 C 
ENDBRANCH  30  61
BRANCH  42  64
ATOM     64  C   LIG    1       -0.547  -5.192  -1.138  0.00  0.00    +0.028 C 
ATOM     65  C   LIG    1       -1.430  -6.423  -1.101  0.00  0.00    +0.006 C 
ENDBRANCH  42  64
BRANCH  33  66
ATOM     66  C   LIG    1        5.173  -3.716  -0.345  0.00  0.00    +0.035 C 
BRANCH  66  67
ATOM     67  C   LIG    1        5.470  -4.980   0.351  0.00  0.00    -0.015 C 
ATOM     68  C   LIG    1        6.663  -4.867   1.299  0.00  0.00    +0.007 C 
ATOM     69  C   LIG    1        4.380  -5.673   1.083  0.00  0.00    +0.007 C 
ENDBRANCH  66  67
ENDBRANCH  33  66
BRANCH   1  70
ATOM     70  C   LIG    1       -4.992  -4.706  -0.533  0.00  0.00    +0.147 C 
BRANCH  70  71
ATOM     71  O   LIG    1       -5.502  -5.476  -1.563  0.00  0.00    -0.389 OA
ATOM     72  H   LIG    1       -4.823  -5.843  -2.175  0.00  0.00    +0.210 HD
ENDBRANCH  70  71
BRANCH  70  73
ATOM     73  C   LIG    1       -5.706  -5.010   0.733  0.00  0.00    +0.021 C 
ATOM     74  C   LIG    1       -5.513  -6.512   0.990  0.00  0.00    +0.010 C 
BRANCH  73  75
ATOM     75  C   LIG    1       -7.165  -4.766   0.628  0.00  0.00    +0.032 C 
BRANCH  75  76
ATOM     76  C   LIG    1       -7.919  -5.038   1.870  0.00  0.00    -0.031 C 
ATOM     77  C   LIG    1       -7.378  -5.422   2.998  0.00  0.00    -0.034 C 
ATOM     78  C   LIG    1       -8.302  -5.657   4.173  0.00  0.00    +0.035 C 
ENDBRANCH  75  76
ENDBRANCH  73  75
ENDBRANCH  70  73
ENDBRANCH   1  70
BRANCH  13  79
ATOM     79  C   LIG    1       -2.247   5.659  -0.601  0.00  0.00    +0.035 C 
BRANCH  79  80
ATOM     80  C   LIG    1       -3.084   6.695   0.117  0.00  0.00    -0.015 C 
ATOM     81  C   LIG    1       -2.337   7.252   1.323  0.00  0.00    +0.007 C 
ATOM     82  C   LIG    1       -3.464   7.845  -0.797  0.00  0.00    +0.007 C 
ENDBRANCH  79  80
ENDBRANCH  13  79
BRANCH  26  83
ATOM     83  C   LIG    1        8.509   3.030   1.750  0.00  0.00    +0.035 C 
BRANCH  83  84
ATOM     84  C   LIG    1        9.850   2.635   1.260  0.00  0.00    -0.015 C 
ATOM     85  C   LIG    1       10.854   3.520   2.042  0.00  0.00    +0.007 C 
ATOM     86  C   LIG    1       10.147   2.883  -0.177  0.00  0.00    +0.007 C 
ENDBRANCH  83  84
ENDBRANCH  26  83
BRANCH   8  87
ATOM     87  C   LIG    1       -4.424   2.849  -1.928  0.00  0.00    +0.035 C 
BRANCH  87  88
ATOM     88  C   LIG    1       -5.146   2.265  -3.083  0.00  0.00    -0.015 C 
ATOM     89  C   LIG    1       -6.656   2.346  -2.983  0.00  0.00    +0.007 C 
ATOM     90  C   LIG    1       -4.660   0.910  -3.479  0.00  0.00    +0.007 C 
ENDBRANCH  87  88
ENDBRANCH   8  87
TORSDOF 16
