REMARK  Name = molecules/PMMYEEVYMWASQN-DMTCNVIQSA-N.pdb
REMARK                            x       y       z     vdW  Elec       q    Type
REMARK                         _______ _______ _______ _____ _____    ______ ____
ROOT
ATOM      1  CA  HYP A  1       -0.875   0.308   0.054  0.00  0.00    +0.166 C 
ATOM      2  N   HYP A  1       -0.394  -0.391   1.229  0.00  0.00    -0.302 NA
ATOM      3  CD  HYP A  1        0.991   0.073   1.305  0.00  0.00    +0.113 C 
ATOM      4  CG  HYP A  1        1.421  -0.217  -0.130  0.00  0.00    +0.130 C 
ATOM      5  H   HYP A  1       -0.331  -1.406   0.950  0.00  0.00    +0.123 HD
ATOM      6  CB  HYP A  1        0.294   0.498  -0.867  0.00  0.00    +0.062 C 
ENDROOT
BRANCH   1   7
ATOM      7  C   HYP A  1       -1.917  -0.476  -0.642  0.00  0.00    +0.322 C 
ATOM      8  OXT HYP A  1       -1.954  -1.728  -0.489  0.00  0.00    -0.249 OA
BRANCH   7   9
ATOM      9  O   HYP A  1       -2.856   0.175  -1.443  0.00  0.00    -0.480 OA
ATOM     10  H   HYP A  1       -3.681   0.557  -0.994  0.00  0.00    +0.295 HD
ENDBRANCH   7   9
ENDBRANCH   1   7
BRANCH   4  11
ATOM     11  OD  HYP A  1        2.663   0.305  -0.418  0.00  0.00    -0.390 OA
ATOM     12  HD  HYP A  1        3.277   0.018   0.306  0.00  0.00    +0.210 HD
ENDBRANCH   4  11
TORSDOF 3
