REMARK  Name = molecules/PMRYVIKBURPHAH-UHFFFAOYSA-N.pdb
REMARK                            x       y       z     vdW  Elec       q    Type
REMARK                         _______ _______ _______ _____ _____    ______ ____
ROOT
ATOM      1  C   LIG    1        1.895  -0.088  -0.014  0.00  0.00    +0.151 C 
ATOM      2  N   LIG    1        0.447  -0.051  -0.018  0.00  0.00    -0.330 N 
ATOM      3  C   LIG    1       -0.349   1.033   0.165  0.00  0.00    +0.158 A 
ATOM      4  S   LIG    1        0.163   2.559   0.434  0.00  0.00    -0.013 S 
ATOM      5  N   LIG    1       -1.641   0.683   0.094  0.00  0.00    -0.340 N 
ATOM      6  H   LIG    1       -2.509   1.263   0.188  0.00  0.00    +0.167 HD
ATOM      7  C   LIG    1       -1.707  -0.647  -0.139  0.00  0.00    +0.102 A 
ATOM      8  C   LIG    1       -0.399  -1.081  -0.204  0.00  0.00    +0.105 A 
ENDROOT
TORSDOF 0
