REMARK  Name = molecules/PMTSPAGBAFCORP-HBUONDEYSA-N.pdb
REMARK                            x       y       z     vdW  Elec       q    Type
REMARK                         _______ _______ _______ _____ _____    ______ ____
ROOT
ATOM      1  C   LIG    1       -0.371  -0.771  -1.464  0.00  0.00    +0.032 C 
ATOM      2  C   LIG    1        0.520  -1.500  -0.503  0.00  0.00    +0.005 C 
ATOM      3  C   LIG    1       -0.193  -2.389   0.450  0.00  0.00    +0.005 C 
ATOM      4  C   LIG    1       -1.407  -1.793   1.083  0.00  0.00    +0.007 C 
ATOM      5  C   LIG    1       -2.319  -1.309  -0.027  0.00  0.00    +0.025 C 
ATOM      6  C   LIG    1       -3.573  -0.797   0.604  0.00  0.00    +0.075 C 
ATOM      7  C   LIG    1       -3.313   0.208   1.702  0.00  0.00    +0.036 C 
ATOM      8  C   LIG    1       -4.643   0.979   1.705  0.00  0.00    +0.011 C 
ATOM      9  C   LIG    1       -4.843   1.169   0.225  0.00  0.00    +0.027 C 
ATOM     10  C   LIG    1       -4.513  -0.141  -0.386  0.00  0.00    +0.004 C 
ATOM     11  C   LIG    1       -5.706  -1.056  -0.551  0.00  0.00    +0.014 C 
ATOM     12  C   LIG    1       -3.898   0.058  -1.737  0.00  0.00    +0.010 C 
ATOM     13  C   LIG    1       -2.479   0.523  -1.704  0.00  0.00    +0.005 C 
ATOM     14  C   LIG    1        1.443  -0.555   0.237  0.00  0.00    +0.036 C 
ATOM     15  C   LIG    1        2.522  -0.081  -0.729  0.00  0.00    +0.122 C 
ATOM     16  C   LIG    1        1.869   0.048  -2.090  0.00  0.00    +0.032 C 
ATOM     17  C   LIG    1       -1.601  -0.223  -0.762  0.00  0.00    +0.008 C 
ATOM     18  C   LIG    1        0.416   0.465  -1.928  0.00  0.00    +0.017 C 
ENDROOT
BRANCH   9  19
ATOM     19  C   LIG    1       -6.217   1.649  -0.028  0.00  0.00    -0.022 C 
ATOM     20  C   LIG    1       -7.090   1.862   0.938  0.00  0.00    +0.094 C 
ATOM     21  C   LIG    1       -8.328   2.321   0.381  0.00  0.00    +0.332 C 
ATOM     22  O   LIG    1       -9.374   2.616   1.060  0.00  0.00    -0.246 OA
ATOM     23  O   LIG    1       -8.178   2.383  -0.986  0.00  0.00    -0.457 OA
ATOM     24  C   LIG    1       -6.882   1.975  -1.297  0.00  0.00    +0.264 C 
ENDBRANCH   9  19
BRANCH   1  25
ATOM     25  C   LIG    1       -0.694  -1.551  -2.667  0.00  0.00    +0.230 C 
ATOM     26  O   LIG    1       -1.699  -2.186  -2.860  0.00  0.00    -0.300 OA
ENDBRANCH   1  25
BRANCH   6  27
ATOM     27  O   LIG    1       -4.193  -1.903   1.232  0.00  0.00    -0.388 OA
ATOM     28  H   LIG    1       -5.043  -1.581   1.625  0.00  0.00    +0.210 HD
ENDBRANCH   6  27
BRANCH  15  29
ATOM     29  O   LIG    1        3.579  -0.976  -0.746  0.00  0.00    -0.345 OA
BRANCH  29  30
ATOM     30  C   LIG    1        4.716  -0.355  -0.295  0.00  0.00    +0.282 C 
ATOM     31  C   LIG    1        5.266  -1.014   0.977  0.00  0.00    +0.201 C 
ATOM     32  C   LIG    1        6.375  -0.075   1.465  0.00  0.00    +0.182 C 
ATOM     33  C   LIG    1        7.419  -0.008   0.379  0.00  0.00    +0.174 C 
ATOM     34  C   LIG    1        6.851   0.227  -0.982  0.00  0.00    +0.149 C 
ATOM     35  C   LIG    1        6.704   1.720  -1.294  0.00  0.00    +0.041 C 
ATOM     36  O   LIG    1        5.697  -0.465  -1.252  0.00  0.00    -0.343 OA
BRANCH  32  37
ATOM     37  O   LIG    1        5.783   1.168   1.647  0.00  0.00    -0.374 OA
ATOM     38  C   LIG    1        5.884   1.620   2.954  0.00  0.00    +0.194 C 
ENDBRANCH  32  37
BRANCH  33  39
ATOM     39  O   LIG    1        8.202  -1.134   0.460  0.00  0.00    -0.387 OA
ATOM     40  H   LIG    1        8.906  -0.991   1.148  0.00  0.00    +0.210 HD
ENDBRANCH  33  39
BRANCH  31  41
ATOM     41  O   LIG    1        5.866  -2.232   0.692  0.00  0.00    -0.384 OA
ATOM     42  H   LIG    1        5.522  -2.957   1.305  0.00  0.00    +0.210 HD
ENDBRANCH  31  41
ENDBRANCH  29  30
ENDBRANCH  15  29
TORSDOF 8
