REMARK  Name = molecules/PMXMIIMHBWHSKN-IBGZPJMESA-N.pdb
REMARK                            x       y       z     vdW  Elec       q    Type
REMARK                         _______ _______ _______ _____ _____    ______ ____
ROOT
ATOM      1  C   LIG    1       -0.288   1.537  -0.341  0.00  0.00    +0.089 C 
ENDROOT
BRANCH   1   2
ATOM      2  N   LIG    1        0.743   0.641   0.046  0.00  0.00    -0.302 NA
ATOM      3  C   LIG    1        1.614   1.000   1.077  0.00  0.00    +0.085 C 
ATOM      4  C   LIG    1        3.002   0.352   0.954  0.00  0.00    +0.025 C 
ATOM      5  C   LIG    1        3.559   0.828  -0.286  0.00  0.00    +0.044 C 
ATOM      6  C   LIG    1        2.673   0.521  -1.492  0.00  0.00    +0.025 C 
ATOM      7  C   LIG    1        1.344   0.004  -1.095  0.00  0.00    +0.085 C 
BRANCH   5   8
ATOM      8  C   LIG    1        4.967   0.921  -0.590  0.00  0.00    +0.094 A 
ATOM      9  C   LIG    1        6.001   0.123  -0.142  0.00  0.00    +0.045 A 
ATOM     10  C   LIG    1        5.957  -1.073   0.570  0.00  0.00    +0.016 A 
ATOM     11  C   LIG    1        7.114  -1.742   0.902  0.00  0.00    +0.039 A 
ATOM     12  C   LIG    1        8.306  -1.179   0.509  0.00  0.00    +0.127 A 
ATOM     13  F   LIG    1        9.460  -1.834   0.803  0.00  0.00    -0.205 F 
ATOM     14  C   LIG    1        8.391   0.011  -0.206  0.00  0.00    +0.088 A 
ATOM     15  C   LIG    1        7.189   0.661  -0.536  0.00  0.00    +0.170 A 
ATOM     16  O   LIG    1        6.902   1.760  -1.201  0.00  0.00    -0.354 OA
ATOM     17  N   LIG    1        5.598   1.935  -1.252  0.00  0.00    -0.082 NA
ENDBRANCH   5   8
ENDBRANCH   1   2
BRANCH   1  18
ATOM     18  C   LIG    1       -1.563   1.154  -0.818  0.00  0.00    +0.058 C 
BRANCH  18  30
ATOM     19  C   LIG    1       -1.838   0.764   2.066  0.00  0.00    +0.066 C 
ATOM     20  C   LIG    1       -2.881   0.333   1.131  0.00  0.00    +0.049 A 
ATOM     21  N   LIG    1       -4.048  -0.234   1.563  0.00  0.00    -0.236 NA
ATOM     22  C   LIG    1       -5.006  -0.653   0.679  0.00  0.00    +0.141 A 
ATOM     23  C   LIG    1       -6.237  -1.184   1.355  0.00  0.00    +0.180 C 
ATOM     24  C   LIG    1       -7.271  -1.480   0.319  0.00  0.00    +0.041 C 
ATOM     25  C   LIG    1       -6.627  -2.068  -0.934  0.00  0.00    +0.025 C 
ATOM     26  C   LIG    1       -5.791  -0.989  -1.593  0.00  0.00    +0.127 C 
ATOM     27  N   LIG    1       -4.807  -0.519  -0.606  0.00  0.00    -0.294 N 
ATOM     28  C   LIG    1       -3.653   0.044  -1.067  0.00  0.00    +0.258 A 
ATOM     29  O   LIG    1       -3.546   0.128  -2.330  0.00  0.00    -0.267 OA
ATOM     30  C   LIG    1       -2.655   0.488  -0.205  0.00  0.00    +0.039 A 
BRANCH  23  31
ATOM     31  O   LIG    1       -6.649  -0.103   2.179  0.00  0.00    -0.384 OA
ATOM     32  H   LIG    1       -6.811   0.703   1.603  0.00  0.00    +0.210 HD
ENDBRANCH  23  31
ENDBRANCH  18  30
ENDBRANCH   1  18
TORSDOF 5
