REMARK  Name = molecules/PNUZDKCDAWUEGK-CYZMBNFOSA-N.pdb
REMARK                            x       y       z     vdW  Elec       q    Type
REMARK                         _______ _______ _______ _____ _____    ______ ____
ROOT
ATOM      1  C   LIG    1       -0.463  -0.558  -0.292  0.00  0.00    +0.086 A 
ATOM      2  C   LIG    1        0.515   0.126   0.424  0.00  0.00    +0.089 A 
ATOM      3 CL   LIG    1       -0.005   0.998   1.822  0.00  0.00    -0.079 Cl
ATOM      4  C   LIG    1        1.818   0.065   0.042  0.00  0.00    +0.074 A 
ATOM      5  N   LIG    1        2.760   0.716   0.742  0.00  0.00    -0.339 N 
ATOM      6  C   LIG    1        4.032   0.597   0.323  0.00  0.00    +0.105 A 
ATOM      7  C   LIG    1        4.380  -0.158  -0.785  0.00  0.00    +0.122 A 
ATOM      8  C   LIG    1        3.413  -0.821  -1.503  0.00  0.00    +0.203 A 
ATOM      9  O   LIG    1        3.706  -1.523  -2.530  0.00  0.00    -0.286 OA
ATOM     10  C   LIG    1        2.116  -0.707  -1.082  0.00  0.00    +0.050 A 
ATOM     11  C   LIG    1        1.173  -1.394  -1.809  0.00  0.00    +0.054 A 
ATOM     12  C   LIG    1       -0.143  -1.320  -1.409  0.00  0.00    +0.147 A 
ATOM     13  F   LIG    1       -1.138  -1.967  -2.071  0.00  0.00    -0.203 F 
ENDROOT
BRANCH   1  16
ATOM     14  C   LIG    1       -3.830  -1.557   0.311  0.00  0.00    +0.076 C 
ATOM     15  C   LIG    1       -2.544  -1.302   1.076  0.00  0.00    +0.124 C 
ATOM     16  N   LIG    1       -1.815  -0.466   0.141  0.00  0.00    -0.324 N 
ATOM     17  C   LIG    1       -2.768   0.538  -0.296  0.00  0.00    +0.113 C 
ATOM     18  C   LIG    1       -4.045  -0.270  -0.419  0.00  0.00    +0.003 C 
ATOM     19  C   LIG    1       -5.362   0.388  -0.510  0.00  0.00    +0.010 C 
ATOM     20  C   LIG    1       -4.775  -0.307  -1.712  0.00  0.00    +0.010 C 
BRANCH  14  21
ATOM     21  N   LIG    1       -4.921  -1.933   1.169  0.00  0.00    -0.325 NA
ATOM     22  H   LIG    1       -4.540  -2.574   1.900  0.00  0.00    +0.119 HD
ATOM     23  H   LIG    1       -5.292  -1.095   1.666  0.00  0.00    +0.119 HD
ENDBRANCH  14  21
ENDBRANCH   1  16
BRANCH   5  24
ATOM     24  C   LIG    1        2.498   1.553   1.887  0.00  0.00    +0.124 C 
ATOM     25  C   LIG    1        3.490   2.730   2.004  0.00  0.00    +0.191 C 
ATOM     26  F   LIG    1        4.250   3.136   0.959  0.00  0.00    -0.243 F 
ATOM     27  C   LIG    1        2.039   2.943   1.830  0.00  0.00    +0.067 C 
ENDBRANCH   5  24
BRANCH   7  28
ATOM     28  C   LIG    1        5.760  -0.269  -1.218  0.00  0.00    +0.342 C 
ATOM     29  O   LIG    1        6.644   0.334  -0.567  0.00  0.00    -0.245 OA
BRANCH  28  30
ATOM     30  O   LIG    1        6.149  -1.012  -2.318  0.00  0.00    -0.477 OA
ATOM     31  H   LIG    1        6.107  -2.021  -2.295  0.00  0.00    +0.295 HD
ENDBRANCH  28  30
ENDBRANCH   7  28
TORSDOF 5
