REMARK  Name = molecules/POJWUDADGALRAB-SFOWXEAESA-N.pdb
REMARK                            x       y       z     vdW  Elec       q    Type
REMARK                         _______ _______ _______ _____ _____    ______ ____
ROOT
ATOM      1  C   LIG    1       -0.463  -0.355  -0.012  0.00  0.00    +0.251 C 
ATOM      2  N   LIG    1       -1.550   0.572   0.081  0.00  0.00    -0.273 N 
ATOM      3  H   LIG    1       -1.750   1.193   0.884  0.00  0.00    +0.153 HD
ATOM      4  C   LIG    1       -2.337   0.526  -1.099  0.00  0.00    +0.308 C 
ATOM      5  O   LIG    1       -3.457   1.128  -1.253  0.00  0.00    -0.252 OA
ATOM      6  N   LIG    1       -1.662  -0.281  -2.028  0.00  0.00    -0.237 N 
ATOM      7  H   LIG    1       -2.011  -0.493  -2.992  0.00  0.00    +0.159 HD
ATOM      8  C   LIG    1       -0.462  -0.739  -1.439  0.00  0.00    +0.259 C 
ATOM      9  O   LIG    1        0.428  -1.369  -2.078  0.00  0.00    -0.271 OA
ENDROOT
BRANCH   1  10
ATOM     10  N   LIG    1        0.796   0.224   0.400  0.00  0.00    -0.273 N 
ATOM     11  C   LIG    1        1.568  -0.279   1.481  0.00  0.00    +0.299 C 
ATOM     12  O   LIG    1        1.169  -1.290   2.152  0.00  0.00    -0.253 OA
ATOM     13  N   LIG    1        2.795   0.293   1.876  0.00  0.00    -0.313 N 
ATOM     14  H   LIG    1        2.787   0.907   2.738  0.00  0.00    +0.146 HD
ATOM     15  H   LIG    1        3.697   0.148   1.374  0.00  0.00    +0.146 HD
ATOM     16  H   LIG    1        1.169   1.049  -0.111  0.00  0.00    +0.152 HD
ENDBRANCH   1  10
TORSDOF 1
