REMARK  Name = molecules/POPFMWWJOGLOIF-XWCQMRHXSA-N.pdb
REMARK                            x       y       z     vdW  Elec       q    Type
REMARK                         _______ _______ _______ _____ _____    ______ ____
ROOT
ATOM      1  C   LIG    1       -2.579  -0.135   0.377  0.00  0.00    +0.164 C 
ATOM      2  C   LIG    1       -2.594   1.333   0.829  0.00  0.00    +0.162 C 
ATOM      3  C   LIG    1       -1.227   1.410   1.534  0.00  0.00    +0.039 C 
ATOM      4  C   LIG    1       -0.405   0.731   0.538  0.00  0.00    +0.004 C 
ATOM      5  C   LIG    1        0.986   0.342   0.841  0.00  0.00    +0.002 C 
ATOM      6  C   LIG    1        1.815   1.475   1.409  0.00  0.00    +0.045 C 
ATOM      7  C   LIG    1        3.109   0.819   1.848  0.00  0.00    +0.193 C 
ATOM      8  F   LIG    1        3.838   1.738   2.522  0.00  0.00    -0.241 F 
ATOM      9  C   LIG    1        3.759   0.343   0.600  0.00  0.00    -0.027 C 
ATOM     10  C   LIG    1        5.048   0.556   0.469  0.00  0.00    +0.049 C 
ATOM     11  C   LIG    1        5.857   0.164  -0.678  0.00  0.00    +0.156 C 
ATOM     12  O   LIG    1        7.093   0.129  -0.711  0.00  0.00    -0.293 OA
ATOM     13  C   LIG    1        5.098  -0.226  -1.908  0.00  0.00    +0.080 C 
ATOM     14  C   LIG    1        3.644   0.157  -1.796  0.00  0.00    +0.019 C 
ATOM     15  C   LIG    1        3.031  -0.346  -0.480  0.00  0.00    -0.002 C 
ATOM     16  C   LIG    1        3.413  -1.809  -0.394  0.00  0.00    +0.016 C 
ATOM     17  C   LIG    1        1.574  -0.072  -0.516  0.00  0.00    +0.031 C 
ATOM     18  C   LIG    1        0.756  -1.104  -1.208  0.00  0.00    +0.119 C 
ATOM     19  C   LIG    1       -0.718  -0.966  -1.093  0.00  0.00    +0.042 C 
ATOM     20  O   LIG    1       -2.594   1.982  -0.377  0.00  0.00    -0.343 OA
ATOM     21  C   LIG    1       -3.476   1.225  -1.160  0.00  0.00    +0.166 C 
ATOM     22  C   LIG    1       -4.868   1.649  -0.788  0.00  0.00    +0.074 C 
ATOM     23  C   LIG    1       -3.271   1.466  -2.628  0.00  0.00    +0.074 C 
ATOM     24  C   LIG    1       -1.172  -0.579   0.299  0.00  0.00    +0.012 C 
ATOM     25  C   LIG    1       -0.884  -1.610   1.323  0.00  0.00    +0.015 C 
ATOM     26  O   LIG    1       -3.220  -0.103  -0.861  0.00  0.00    -0.332 OA
ENDROOT
BRANCH   1  27
ATOM     27  C   LIG    1       -3.391  -0.846   1.397  0.00  0.00    +0.193 C 
ATOM     28  O   LIG    1       -2.970  -0.886   2.537  0.00  0.00    -0.292 OA
BRANCH  27  29
ATOM     29  C   LIG    1       -4.678  -1.505   1.097  0.00  0.00    +0.233 C 
BRANCH  29  30
ATOM     30  O   LIG    1       -5.207  -2.091   2.218  0.00  0.00    -0.387 OA
ATOM     31  H   LIG    1       -5.122  -1.437   2.969  0.00  0.00    +0.210 HD
ENDBRANCH  29  30
ENDBRANCH  27  29
ENDBRANCH   1  27
BRANCH  18  32
ATOM     32  O   LIG    1        1.083  -2.422  -0.931  0.00  0.00    -0.391 OA
ATOM     33  H   LIG    1        0.961  -3.031  -1.679  0.00  0.00    +0.210 HD
ENDBRANCH  18  32
TORSDOF 4
