REMARK  Name = molecules/POPOYOKQQAEISW-UHFFFAOYSA-N.pdb
REMARK                            x       y       z     vdW  Elec       q    Type
REMARK                         _______ _______ _______ _____ _____    ______ ____
ROOT
ATOM      1  O   LIG    1        2.652   1.436   0.031  0.00  0.00    -0.267 OA
ATOM      2  C   LIG    1        1.968   0.340  -0.059  0.00  0.00    +0.263 A 
ATOM      3  C   LIG    1        0.633   0.257  -0.002  0.00  0.00    +0.055 A 
ATOM      4  C   LIG    1       -0.287   1.305   0.162  0.00  0.00    +0.016 A 
ATOM      5  C   LIG    1       -1.624   1.070   0.201  0.00  0.00    +0.021 A 
ATOM      6  C   LIG    1       -2.176  -0.178   0.088  0.00  0.00    +0.042 A 
ATOM      7 CL   LIG    1       -3.903  -0.383   0.150  0.00  0.00    -0.084 Cl
ATOM      8  C   LIG    1       -1.294  -1.234  -0.075  0.00  0.00    +0.037 A 
ATOM      9  C   LIG    1        0.082  -0.993  -0.116  0.00  0.00    +0.043 A 
ATOM     10  S   LIG    1        1.466  -1.974  -0.295  0.00  0.00    -0.011 S 
ATOM     11  N   LIG    1        2.662  -0.791  -0.221  0.00  0.00    -0.292 N 
ATOM     12  H   LIG    1        3.721  -0.908  -0.287  0.00  0.00    +0.177 HD
ENDROOT
TORSDOF 0
