REMARK  Name = molecules/POZJNEBUHLZROM-GFCCVEGCSA-N.pdb
REMARK                            x       y       z     vdW  Elec       q    Type
REMARK                         _______ _______ _______ _____ _____    ______ ____
ROOT
ATOM      1  C   LIG    1       -0.721   0.402  -1.031  0.00  0.00    +0.241 C 
ATOM      2  N   LIG    1        0.612   0.441  -0.547  0.00  0.00    -0.237 N 
ATOM      3  C   LIG    1        1.178  -0.672   0.116  0.00  0.00    +0.052 C 
ATOM      4  C   LIG    1        2.286  -0.730   0.898  0.00  0.00    +0.034 C 
ATOM      5  C   LIG    1        2.857  -1.862   1.398  0.00  0.00    +0.013 C 
ATOM      6  C   LIG    1        2.288  -3.081   1.104  0.00  0.00    -0.017 C 
ATOM      7  C   LIG    1        1.167  -3.095   0.314  0.00  0.00    +0.047 C 
ATOM      8  S   LIG    1        3.137   0.801   1.304  0.00  0.00    -0.086 S 
ATOM      9  C   LIG    1        2.381   2.014   0.248  0.00  0.00    +0.035 A 
ATOM     10  C   LIG    1        2.995   3.240   0.266  0.00  0.00    +0.017 A 
ATOM     11  C   LIG    1        2.468   4.287  -0.451  0.00  0.00    +0.001 A 
ATOM     12  C   LIG    1        1.321   4.067  -1.176  0.00  0.00    +0.002 A 
ATOM     13  C   LIG    1        0.706   2.800  -1.182  0.00  0.00    +0.025 A 
ATOM     14  C   LIG    1        0.617  -1.923  -0.176  0.00  0.00    +0.006 C 
ATOM     15  C   LIG    1        1.233   1.747  -0.465  0.00  0.00    +0.055 A 
ATOM     16  O   LIG    1       -1.001   1.217  -2.014  0.00  0.00    -0.273 OA
ENDROOT
BRANCH   1  17
ATOM     17  C   LIG    1       -1.899  -0.357  -0.645  0.00  0.00    +0.140 C 
ATOM     18  C   LIG    1       -2.459  -1.102  -1.828  0.00  0.00    +0.034 C 
BRANCH  17  19
ATOM     19  N   LIG    1       -1.929  -1.099   0.552  0.00  0.00    -0.298 NA
ATOM     20  C   LIG    1       -1.805  -0.303   1.755  0.00  0.00    +0.105 C 
ATOM     21  C   LIG    1       -3.241  -1.754   0.627  0.00  0.00    +0.105 C 
ENDBRANCH  17  19
ENDBRANCH   1  17
TORSDOF 2
