REMARK  Name = molecules/PPKVREKQVQREQD-UHFFFAOYSA-N.pdb
REMARK                            x       y       z     vdW  Elec       q    Type
REMARK                         _______ _______ _______ _____ _____    ______ ____
ROOT
ATOM      1  S   LIG    1       -0.030  -0.099   1.257  0.00  0.00    +0.000 S 
ENDROOT
BRANCH   1   2
ATOM      2 SB   LIG    1       -1.927  -0.499  -0.252  0.00  0.00    +0.000 Sb
ATOM      3  S   LIG    1       -3.489   0.832  -0.164  0.00  0.00    +0.000 S 
ATOM      4  S   LIG    1       -2.417  -2.443  -0.683  0.00  0.00    +0.000 S 
ENDBRANCH   1   2
BRANCH   1   5
ATOM      5 SB   LIG    1        1.981   0.521  -0.033  0.00  0.00    +0.000 Sb
ATOM      6  S   LIG    1        3.560  -0.785   0.136  0.00  0.00    +0.000 S 
ATOM      7  S   LIG    1        2.322   2.472  -0.455  0.00  0.00    +0.000 S 
ENDBRANCH   1   5
TORSDOF 2
