REMARK  Name = molecules/PPTYJKAXVCCBDU-UHFFFAOYSA-N.pdb
REMARK                            x       y       z     vdW  Elec       q    Type
REMARK                         _______ _______ _______ _____ _____    ______ ____
ROOT
ATOM      1  C   LIG    1       -3.397  -1.829   0.870  0.00  0.00    +0.138 C 
ATOM      2  N   LIG    1       -2.221  -1.641   0.099  0.00  0.00    -0.272 N 
ATOM      3  C   LIG    1       -1.780  -0.259   0.032  0.00  0.00    +0.045 A 
ATOM      4  C   LIG    1       -2.793   0.655   0.125  0.00  0.00    +0.026 A 
ATOM      5  C   LIG    1       -2.471   1.980  -0.068  0.00  0.00    +0.034 A 
ATOM      6  C   LIG    1       -1.173   2.405  -0.349  0.00  0.00    +0.127 A 
ATOM      7  C   LIG    1       -0.174   1.483  -0.437  0.00  0.00    +0.044 A 
ATOM      8  C   LIG    1       -0.481   0.137  -0.239  0.00  0.00    +0.024 A 
ATOM      9  C   LIG    1        0.685  -0.721  -0.317  0.00  0.00    +0.078 C 
ATOM     10  N   LIG    1        0.696  -1.892  -0.888  0.00  0.00    -0.273 NA
ATOM     11  C   LIG    1       -0.409  -2.595  -1.545  0.00  0.00    +0.238 C 
ATOM     12  C   LIG    1       -1.558  -2.707  -0.570  0.00  0.00    +0.241 C 
ATOM     13  O   LIG    1       -1.968  -3.837  -0.327  0.00  0.00    -0.273 OA
ENDROOT
BRANCH   9  14
ATOM     14  C   LIG    1        1.925  -0.229   0.234  0.00  0.00    +0.036 A 
ATOM     15  C   LIG    1        2.108   0.834   1.036  0.00  0.00    +0.133 A 
ATOM     16  F   LIG    1        1.053   1.448   1.691  0.00  0.00    -0.205 F 
ATOM     17  C   LIG    1        3.384   1.278   1.356  0.00  0.00    +0.039 A 
ATOM     18  C   LIG    1        4.471   0.618   0.850  0.00  0.00    +0.003 A 
ATOM     19  C   LIG    1        4.352  -0.485   0.025  0.00  0.00    +0.001 A 
ATOM     20  C   LIG    1        3.070  -0.881  -0.263  0.00  0.00    +0.013 A 
ENDBRANCH   9  14
BRANCH   6  21
ATOM     21  N   LIG    1       -0.873   3.779  -0.540  0.00  0.00    +0.056 N 
ATOM     22  O   LIG    1       -1.800   4.598  -0.450  0.00  0.00    -0.126 OA
ATOM     23  O   LIG    1        0.381   4.244  -0.818  0.00  0.00    -0.126 OA
ENDBRANCH   6  21
TORSDOF 2
