REMARK  Name = molecules/PPVFOZYARYOARE-UHFFFAOYSA-N.pdb
REMARK                            x       y       z     vdW  Elec       q    Type
REMARK                         _______ _______ _______ _____ _____    ______ ____
ROOT
ATOM      1  O   LIG    1        0.784  -0.236  -0.027  0.00  0.00    -0.374 OA
ENDROOT
BRANCH   1   2
ATOM      2  C   LIG    1        2.133  -0.441  -0.042  0.00  0.00    +0.201 C 
BRANCH   2   3
ATOM      3  C   LIG    1        2.810   0.448   0.966  0.00  0.00    +0.257 C 
BRANCH   3   4
ATOM      4  O   LIG    1        4.167   0.245   0.967  0.00  0.00    -0.486 OA
BRANCH   4   5
ATOM      5  C   LIG    1        5.155   0.412   0.070  0.00  0.00    +0.162 A 
ATOM      6  C   LIG    1        6.447   0.031   0.496  0.00  0.00    +0.161 A 
ATOM      7  C   LIG    1        7.542   0.138  -0.299  0.00  0.00    +0.049 A 
ATOM      8  C   LIG    1        7.388   0.642  -1.578  0.00  0.00    +0.004 A 
ATOM      9  C   LIG    1        6.142   1.020  -2.013  0.00  0.00    +0.004 A 
ATOM     10  C   LIG    1        5.017   0.918  -1.218  0.00  0.00    +0.049 A 
BRANCH   6  11
ATOM     11  O   LIG    1        6.566  -0.470   1.784  0.00  0.00    -0.491 OA
ATOM     12  C   LIG    1        7.841  -0.860   2.241  0.00  0.00    +0.277 C 
ENDBRANCH   6  11
ENDBRANCH   4   5
ENDBRANCH   3   4
ENDBRANCH   2   3
ENDBRANCH   1   2
BRANCH   1  13
ATOM     13  C   LIG    1        0.314   1.006  -0.327  0.00  0.00    +0.188 C 
BRANCH  13  14
ATOM     14  C   LIG    1       -1.234   0.990  -0.271  0.00  0.00    +0.188 C 
BRANCH  14  15
ATOM     15  O   LIG    1       -1.567   0.630   1.008  0.00  0.00    -0.376 OA
BRANCH  15  16
ATOM     16  C   LIG    1       -2.919   0.551   1.282  0.00  0.00    +0.175 C 
BRANCH  16  17
ATOM     17  C   LIG    1       -3.618  -0.456   0.432  0.00  0.00    +0.112 C 
BRANCH  17  18
ATOM     18  N   LIG    1       -5.032  -0.558   0.712  0.00  0.00    -0.300 NA
ATOM     19  C   LIG    1       -5.808   0.579   0.351  0.00  0.00    +0.084 C 
ATOM     20  C   LIG    1       -7.151   0.150  -0.259  0.00  0.00    +0.015 C 
ATOM     21  C   LIG    1       -6.795  -0.499  -1.592  0.00  0.00    +0.002 C 
ATOM     22  C   LIG    1       -5.843  -1.629  -1.343  0.00  0.00    +0.015 C 
ATOM     23  C   LIG    1       -5.533  -1.792   0.146  0.00  0.00    +0.084 C 
ENDBRANCH  17  18
ENDBRANCH  16  17
ENDBRANCH  15  16
ENDBRANCH  14  15
ENDBRANCH  13  14
ENDBRANCH   1  13
TORSDOF 11
