REMARK  Name = molecules/PQJQFLNBMSCUSH-SBAJWEJLSA-N.pdb
REMARK                            x       y       z     vdW  Elec       q    Type
REMARK                         _______ _______ _______ _____ _____    ______ ____
ROOT
ATOM      1  C   LIG    1        2.641  -1.427   3.118  0.00  0.00    +0.128 A 
ATOM      2  C   LIG    1        3.981  -1.631   2.741  0.00  0.00    +0.046 A 
ATOM      3  C   LIG    1        4.451  -1.200   1.524  0.00  0.00    +0.009 A 
ATOM      4  C   LIG    1        3.647  -0.555   0.626  0.00  0.00    -0.027 A 
ATOM      5  C   LIG    1        2.282  -0.343   1.001  0.00  0.00    -0.028 A 
ATOM      6  C   LIG    1        1.484   0.359  -0.026  0.00  0.00    +0.044 C 
ATOM      7  C   LIG    1        0.084   0.622   0.299  0.00  0.00    +0.031 C 
ATOM      8  C   LIG    1       -0.430   0.155   1.604  0.00  0.00    +0.044 C 
ATOM      9  C   LIG    1        0.420  -0.536   2.564  0.00  0.00    +0.196 C 
ATOM     10  O   LIG    1       -0.067  -0.900   3.646  0.00  0.00    -0.287 OA
ATOM     11  C   LIG    1       -1.711   0.406   1.832  0.00  0.00    +0.141 C 
ATOM     12  C   LIG    1       -2.482   1.105   0.804  0.00  0.00    +0.190 C 
ATOM     13  C   LIG    1       -3.938   1.143   1.109  0.00  0.00    +0.211 C 
ATOM     14  O   LIG    1       -4.317   1.081   2.291  0.00  0.00    -0.288 OA
ATOM     15  C   LIG    1       -4.905   1.256   0.008  0.00  0.00    +0.121 C 
ATOM     16  C   LIG    1       -4.622   0.528  -1.047  0.00  0.00    +0.127 C 
ATOM     17  C   LIG    1       -3.383  -0.307  -0.989  0.00  0.00    +0.129 C 
ATOM     18  C   LIG    1       -2.232   0.532  -0.561  0.00  0.00    +0.061 C 
ATOM     19  C   LIG    1       -0.873  -0.088  -0.705  0.00  0.00    +0.018 C 
ATOM     20  C   LIG    1        1.815  -0.773   2.213  0.00  0.00    +0.067 A 
ENDROOT
BRANCH  15  21
ATOM     21  C   LIG    1       -6.081   2.112   0.131  0.00  0.00    +0.248 C 
ATOM     22  N   LIG    1       -6.369   2.890   1.268  0.00  0.00    -0.325 N 
ATOM     23  H   LIG    1       -6.543   2.466   2.197  0.00  0.00    +0.145 HD
ATOM     24  H   LIG    1       -6.410   3.921   1.176  0.00  0.00    +0.145 HD
ATOM     25  O   LIG    1       -6.876   2.154  -0.834  0.00  0.00    -0.270 OA
ENDBRANCH  15  21
BRANCH  17  26
ATOM     26  N   LIG    1       -3.259  -1.147  -2.097  0.00  0.00    -0.299 NA
ATOM     27  C   LIG    1       -2.399  -2.249  -2.138  0.00  0.00    +0.105 C 
ATOM     28  C   LIG    1       -3.731  -0.678  -3.364  0.00  0.00    +0.105 C 
ENDBRANCH  17  26
BRANCH   1  29
ATOM     29  O   LIG    1        2.281  -1.894   4.343  0.00  0.00    -0.506 OA
ATOM     30  H   LIG    1        1.420  -1.849   4.774  0.00  0.00    +0.292 HD
ENDBRANCH   1  29
BRANCH  11  31
ATOM     31  O   LIG    1       -2.215  -0.026   3.050  0.00  0.00    -0.507 OA
ATOM     32  H   LIG    1       -2.651  -0.927   3.182  0.00  0.00    +0.292 HD
ENDBRANCH  11  31
BRANCH  16  33
ATOM     33  O   LIG    1       -5.474   0.576  -2.134  0.00  0.00    -0.509 OA
ATOM     34  H   LIG    1       -6.411   0.200  -2.137  0.00  0.00    +0.292 HD
ENDBRANCH  16  33
BRANCH  12  35
ATOM     35  O   LIG    1       -2.129   2.501   0.816  0.00  0.00    -0.373 OA
ATOM     36  H   LIG    1       -2.213   2.760   1.766  0.00  0.00    +0.211 HD
ENDBRANCH  12  35
BRANCH   4  37
ATOM     37  C   LIG    1        4.090  -0.073  -0.707  0.00  0.00    +0.149 C 
BRANCH  37  38
ATOM     38  N   LIG    1        5.510  -0.365  -0.859  0.00  0.00    -0.187 NA
ATOM     39  C   LIG    1        5.931   0.042  -2.219  0.00  0.00    +0.138 C 
BRANCH  38  40
ATOM     40  O   LIG    1        6.236   0.369   0.040  0.00  0.00    -0.300 OA
ATOM     41  C   LIG    1        7.584   0.057  -0.130  0.00  0.00    +0.221 C 
ENDBRANCH  38  40
ENDBRANCH  37  38
ENDBRANCH   4  37
TORSDOF 9
