REMARK  Name = molecules/PQLXHQMOHUQAKB-UHFFFAOYSA-N.pdb
REMARK                            x       y       z     vdW  Elec       q    Type
REMARK                         _______ _______ _______ _____ _____    ______ ____
ROOT
ATOM      1  C   LIG    1       -1.575   0.053  -0.096  0.00  0.00    +0.002 C 
ENDROOT
BRANCH   1   2
ATOM      2  C   LIG    1       -0.283  -0.504  -0.493  0.00  0.00    +0.000 C 
BRANCH   2   3
ATOM      3  C   LIG    1        0.224  -1.878  -0.286  0.00  0.00    +0.000 C 
BRANCH   3   4
ATOM      4  C   LIG    1        1.722  -1.426   0.195  0.00  0.00    +0.000 C 
BRANCH   4   5
ATOM      5  C   LIG    1        2.126  -0.599  -1.040  0.00  0.00    -0.000 C 
BRANCH   5   6
ATOM      6  C   LIG    1        2.887   0.609  -0.749  0.00  0.00    -0.000 C 
BRANCH   6   7
ATOM      7  C   LIG    1        4.271   0.725  -0.271  0.00  0.00    -0.000 C 
BRANCH   7   8
ATOM      8  C   LIG    1        4.585  -0.177   0.839  0.00  0.00    -0.000 C 
BRANCH   8   9
ATOM      9  C   LIG    1        5.820   0.121   1.580  0.00  0.00    -0.000 C 
BRANCH   9  10
ATOM     10  C   LIG    1        7.116   0.347   0.980  0.00  0.00    -0.000 C 
BRANCH  10  11
ATOM     11  C   LIG    1        7.527  -0.759   0.023  0.00  0.00    -0.000 C 
BRANCH  11  12
ATOM     12  C   LIG    1        9.007  -0.623  -0.250  0.00  0.00    -0.000 C 
BRANCH  12  13
ATOM     13  C   LIG    1        9.477   0.732  -0.640  0.00  0.00    -0.003 C 
ATOM     14  C   LIG    1       11.004   0.594  -0.816  0.00  0.00    +0.004 C 
ENDBRANCH  12  13
ENDBRANCH  11  12
ENDBRANCH  10  11
ENDBRANCH   9  10
ENDBRANCH   8   9
ENDBRANCH   7   8
ENDBRANCH   6   7
ENDBRANCH   5   6
ENDBRANCH   4   5
ENDBRANCH   3   4
ENDBRANCH   2   3
ENDBRANCH   1   2
BRANCH   1  15
ATOM     15  C   LIG    1       -2.772  -0.373  -0.815  0.00  0.00    +0.028 C 
BRANCH  15  16
ATOM     16  C   LIG    1       -3.897   0.652  -0.248  0.00  0.00    +0.168 C 
BRANCH  16  17
ATOM     17  O   LIG    1       -3.633   0.562   1.081  0.00  0.00    -0.327 OA
BRANCH  17  18
ATOM     18  P   LIG    1       -4.864   0.099   2.068  0.00  0.00    +0.212 P 
ATOM     19  O   LIG    1       -4.523   0.316   3.501  0.00  0.00    -0.437 OA
ATOM     20  O   LIG    1       -4.617  -1.739   1.976  0.00  0.00    -0.517 OA
BRANCH  18  21
ATOM     21  O   LIG    1       -6.418   0.221   1.670  0.00  0.00    -0.329 OA
BRANCH  21  22
ATOM     22  C   LIG    1       -6.854   1.432   1.145  0.00  0.00    +0.150 C 
BRANCH  22  23
ATOM     23  C   LIG    1       -8.335   1.279   0.888  0.00  0.00    -0.047 C 
BRANCH  23  24
ATOM     24  N   LIG    1       -8.582   0.227  -0.080  0.00  0.00    +0.376 N 
ATOM     25  C   LIG    1       -9.002  -0.985   0.610  0.00  0.00    -0.093 C 
ATOM     26  C   LIG    1       -7.451  -0.112  -0.888  0.00  0.00    -0.093 C 
ATOM     27  C   LIG    1       -9.623   0.673  -0.978  0.00  0.00    -0.093 C 
ENDBRANCH  23  24
ENDBRANCH  22  23
ENDBRANCH  21  22
ENDBRANCH  18  21
ENDBRANCH  17  18
ENDBRANCH  16  17
ENDBRANCH  15  16
ENDBRANCH   1  15
TORSDOF 20
