REMARK  Name = molecules/PQSUYGKTWSAVDQ-ZVIOFETBSA-N.pdb
REMARK                            x       y       z     vdW  Elec       q    Type
REMARK                         _______ _______ _______ _____ _____    ______ ____
ROOT
ATOM      1  C   LIG    1        1.825   0.360   0.041  0.00  0.00    +0.041 C 
ATOM      2  C   LIG    1        1.079   1.623  -0.320  0.00  0.00    +0.046 C 
ATOM      3  C   LIG    1       -0.359   1.563   0.131  0.00  0.00    +0.120 C 
ATOM      4  C   LIG    1       -1.065   0.344  -0.465  0.00  0.00    +0.031 C 
ATOM      5  C   LIG    1       -0.263  -0.865  -0.024  0.00  0.00    -0.000 C 
ATOM      6  C   LIG    1       -0.979  -2.159  -0.347  0.00  0.00    +0.008 C 
ATOM      7  C   LIG    1       -2.151  -2.175   0.646  0.00  0.00    +0.032 C 
ATOM      8  C   LIG    1       -3.010  -1.042   0.229  0.00  0.00    -0.060 C 
ATOM      9  C   LIG    1       -4.312  -1.267   0.164  0.00  0.00    +0.046 C 
ATOM     10  C   LIG    1       -5.270  -0.247  -0.235  0.00  0.00    +0.156 C 
ATOM     11  O   LIG    1       -6.446  -0.328   0.169  0.00  0.00    -0.293 OA
ATOM     12  C   LIG    1       -4.763   0.833  -1.110  0.00  0.00    +0.080 C 
ATOM     13  C   LIG    1       -3.288   0.772  -1.329  0.00  0.00    +0.019 C 
ATOM     14  C   LIG    1       -2.511   0.297  -0.116  0.00  0.00    -0.005 C 
ATOM     15  C   LIG    1       -2.877   1.228   1.021  0.00  0.00    +0.016 C 
ATOM     16  C   LIG    1        3.153   0.250  -0.630  0.00  0.00    +0.071 C 
ATOM     17  C   LIG    1        3.335  -1.245  -0.907  0.00  0.00    +0.012 C 
ATOM     18  C   LIG    1        1.993  -1.895  -0.541  0.00  0.00    +0.005 C 
ATOM     19  C   LIG    1        1.066  -0.764  -0.658  0.00  0.00    +0.006 C 
ENDROOT
BRANCH   1  20
ATOM     20  C   LIG    1        1.869   0.212   1.498  0.00  0.00    +0.231 C 
ATOM     21  O   LIG    1        1.912  -0.829   2.115  0.00  0.00    -0.300 OA
ENDBRANCH   1  20
BRANCH   3  22
ATOM     22  O   LIG    1       -0.353   1.540   1.512  0.00  0.00    -0.391 OA
ATOM     23  H   LIG    1       -0.317   2.430   1.908  0.00  0.00    +0.210 HD
ENDBRANCH   3  22
BRANCH  16  24
ATOM     24  C   LIG    1        4.270   0.756   0.208  0.00  0.00    +0.162 C 
ATOM     25  O   LIG    1        4.102   1.205   1.313  0.00  0.00    -0.295 OA
BRANCH  24  26
ATOM     26  C   LIG    1        5.657   0.710  -0.331  0.00  0.00    +0.230 C 
BRANCH  26  27
ATOM     27  O   LIG    1        6.583   1.210   0.553  0.00  0.00    -0.388 OA
ATOM     28  H   LIG    1        7.361   0.616   0.707  0.00  0.00    +0.210 HD
ENDBRANCH  26  27
ENDBRANCH  24  26
ENDBRANCH  16  24
TORSDOF 5
