REMARK  Name = molecules/PQXGNJKJMFUPPM-UHFFFAOYSA-N.pdb
REMARK                            x       y       z     vdW  Elec       q    Type
REMARK                         _______ _______ _______ _____ _____    ______ ____
ROOT
ATOM      1  C   LIG    1        2.084   1.086   1.133  0.00  0.00    +0.048 A 
ATOM      2  C   LIG    1        3.361   1.244   1.616  0.00  0.00    +0.038 A 
ATOM      3  C   LIG    1        3.614   2.286   2.480  0.00  0.00    +0.024 A 
ATOM      4  C   LIG    1        2.573   3.114   2.811  0.00  0.00    +0.019 A 
ATOM      5  C   LIG    1        1.307   2.942   2.320  0.00  0.00    +0.034 A 
ATOM      6  S   LIG    1        0.111   4.132   2.783  0.00  0.00    -0.089 S 
ATOM      7  C   LIG    1       -1.414   3.643   1.976  0.00  0.00    +0.021 C 
ATOM      8  C   LIG    1       -2.523   4.404   2.264  0.00  0.00    +0.013 C 
ATOM      9  C   LIG    1       -3.743   4.097   1.749  0.00  0.00    +0.001 C 
ATOM     10  C   LIG    1       -3.809   3.001   0.937  0.00  0.00    -0.002 C 
ATOM     11  C   LIG    1       -2.693   2.241   0.652  0.00  0.00    +0.007 C 
ATOM     12  C   LIG    1       -1.417   2.526   1.160  0.00  0.00    +0.122 C 
ATOM     13  N   LIG    1       -0.301   1.688   0.885  0.00  0.00    -0.253 N 
ATOM     14  C   LIG    1       -0.449   0.499   0.153  0.00  0.00    +0.222 C 
ATOM     15  O   LIG    1        0.306  -0.500   0.545  0.00  0.00    -0.275 OA
ATOM     16  C   LIG    1        1.006   1.926   1.467  0.00  0.00    +0.053 A 
ENDROOT
BRANCH   2  17
ATOM     17  N   LIG    1        4.434   0.410   1.272  0.00  0.00    -0.251 N 
ATOM     18  H   LIG    1        5.340   0.526   1.839  0.00  0.00    +0.158 HD
ATOM     19  C   LIG    1        4.446  -0.567   0.264  0.00  0.00    +0.405 C 
ATOM     20  O   LIG    1        3.528  -0.881  -0.511  0.00  0.00    -0.226 OA
BRANCH  19  21
ATOM     21  O   LIG    1        5.634  -1.298   0.084  0.00  0.00    -0.450 OA
BRANCH  21  22
ATOM     22  C   LIG    1        5.745  -2.310  -0.912  0.00  0.00    +0.230 C 
ATOM     23  C   LIG    1        7.139  -2.914  -0.868  0.00  0.00    +0.048 C 
ENDBRANCH  21  22
ENDBRANCH  19  21
ENDBRANCH   2  17
BRANCH  14  24
ATOM     24  C   LIG    1       -1.280   0.154  -1.007  0.00  0.00    +0.111 C 
BRANCH  24  25
ATOM     25  C   LIG    1       -1.901  -1.179  -0.772  0.00  0.00    +0.093 C 
BRANCH  25  26
ATOM     26  N   LIG    1       -2.748  -1.676  -1.810  0.00  0.00    -0.302 NA
BRANCH  26  27
ATOM     27  C   LIG    1       -3.150  -3.023  -1.395  0.00  0.00    +0.081 C 
ATOM     28  C   LIG    1       -1.995  -3.990  -1.406  0.00  0.00    +0.020 C 
ENDBRANCH  26  27
BRANCH  26  29
ATOM     29  C   LIG    1       -3.935  -0.824  -1.852  0.00  0.00    +0.081 C 
ATOM     30  C   LIG    1       -4.919  -1.232  -2.899  0.00  0.00    +0.020 C 
ENDBRANCH  26  29
ENDBRANCH  25  26
ENDBRANCH  24  25
ENDBRANCH  14  24
TORSDOF 8
