REMARK  Name = molecules/PQXKDMSYBGKCJA-CVTJIBDQSA-N.pdb
REMARK                            x       y       z     vdW  Elec       q    Type
REMARK                         _______ _______ _______ _____ _____    ______ ____
ROOT
ATOM      1  C   LIG    1       -1.592  -0.665   0.710  0.00  0.00    +0.011 C 
ATOM      2  C   LIG    1       -2.556  -1.548   1.470  0.00  0.00    +0.005 C 
ATOM      3  C   LIG    1       -2.159  -3.009   1.379  0.00  0.00    +0.000 C 
ATOM      4  C   LIG    1       -1.334  -3.128   0.113  0.00  0.00    +0.000 C 
ATOM      5  C   LIG    1        0.000  -2.465   0.459  0.00  0.00    +0.005 C 
ATOM      6  C   LIG    1       -0.184  -1.109   1.090  0.00  0.00    +0.008 C 
ENDROOT
BRANCH   1   7
ATOM      7  C   LIG    1       -1.871   0.748   1.076  0.00  0.00    +0.120 C 
BRANCH   7  14
ATOM      8  C   LIG    1       -7.179   1.410  -1.715  0.00  0.00    +0.004 C 
ATOM      9  C   LIG    1       -7.679   0.810  -0.415  0.00  0.00    +0.004 C 
ATOM     10  C   LIG    1       -6.432   0.252   0.263  0.00  0.00    +0.002 C 
ATOM     11  C   LIG    1       -5.601   1.419   0.654  0.00  0.00    +0.091 C 
ATOM     12  C   LIG    1       -4.434   1.000   1.445  0.00  0.00    +0.226 C 
ATOM     13  O   LIG    1       -4.524   0.619   2.655  0.00  0.00    -0.275 OA
ATOM     14  N   LIG    1       -3.241   1.078   0.707  0.00  0.00    -0.241 N 
ATOM     15  C   LIG    1       -3.594   1.600  -0.593  0.00  0.00    +0.226 C 
ATOM     16  O   LIG    1       -2.793   1.772  -1.562  0.00  0.00    -0.275 OA
ATOM     17  C   LIG    1       -5.037   1.919  -0.662  0.00  0.00    +0.091 C 
ATOM     18  C   LIG    1       -5.718  -0.264  -0.976  0.00  0.00    +0.008 C 
ATOM     19  C   LIG    1       -5.733   1.084  -1.727  0.00  0.00    +0.002 C 
ENDBRANCH   7  14
ENDBRANCH   1   7
BRANCH   6  20
ATOM     20  C   LIG    1        0.850  -0.169   0.593  0.00  0.00    +0.088 C 
BRANCH  20  21
ATOM     21  N   LIG    1        2.209  -0.457   0.899  0.00  0.00    -0.299 NA
ATOM     22  C   LIG    1        2.967   0.779   0.924  0.00  0.00    +0.103 C 
ATOM     23  C   LIG    1        3.871   0.913  -0.304  0.00  0.00    +0.122 C 
ATOM     24  N   LIG    1        4.721  -0.242  -0.380  0.00  0.00    -0.312 N 
ATOM     25  C   LIG    1        4.376  -1.382   0.417  0.00  0.00    +0.122 C 
ATOM     26  C   LIG    1        2.842  -1.550   0.287  0.00  0.00    +0.103 C 
BRANCH  24  27
ATOM     27  C   LIG    1        5.877  -0.196  -1.245  0.00  0.00    +0.138 A 
ATOM     28  C   LIG    1        6.980   0.571  -1.016  0.00  0.00    +0.031 A 
ATOM     29  C   LIG    1        7.226   1.423   0.088  0.00  0.00    +0.012 A 
ATOM     30  C   LIG    1        8.396   2.135   0.184  0.00  0.00    +0.001 A 
ATOM     31  C   LIG    1        9.395   2.074  -0.765  0.00  0.00    +0.001 A 
ATOM     32  C   LIG    1        9.160   1.242  -1.846  0.00  0.00    +0.017 A 
ATOM     33  C   LIG    1        7.968   0.507  -1.960  0.00  0.00    +0.041 A 
ATOM     34  S   LIG    1        7.335  -0.593  -3.094  0.00  0.00    +0.014 S 
ATOM     35  N   LIG    1        5.872  -0.931  -2.360  0.00  0.00    -0.194 NA
ENDBRANCH  24  27
ENDBRANCH  20  21
ENDBRANCH   6  20
TORSDOF 5
