REMARK  Name = molecules/PRMWGUBFXWROHD-UHFFFAOYSA-N.pdb
REMARK                            x       y       z     vdW  Elec       q    Type
REMARK                         _______ _______ _______ _____ _____    ______ ____
ROOT
ATOM      1  O   LIG    1       -2.243   1.120   0.309  0.00  0.00    -0.267 OA
ATOM      2  C   LIG    1       -1.096   0.577   0.215  0.00  0.00    +0.264 A 
ATOM      3  N   LIG    1        0.013   1.310   0.287  0.00  0.00    -0.283 N 
ATOM      4  C   LIG    1        1.230   0.740   0.189  0.00  0.00    +0.104 A 
ATOM      5  C   LIG    1        1.404  -0.639   0.009  0.00  0.00    +0.018 A 
ATOM      6  C   LIG    1        0.248  -1.370  -0.062  0.00  0.00    +0.025 A 
ATOM      7  C   LIG    1       -1.012  -0.780   0.039  0.00  0.00    +0.049 A 
ENDROOT
BRANCH   3   8
ATOM      8  C   LIG    1       -0.105   2.728   0.465  0.00  0.00    +0.049 A 
ATOM      9  C   LIG    1       -0.185   3.289   1.715  0.00  0.00    +0.026 A 
ATOM     10  C   LIG    1       -0.296   4.671   1.786  0.00  0.00    +0.002 A 
ATOM     11  C   LIG    1       -0.327   5.465   0.656  0.00  0.00    +0.000 A 
ATOM     12  C   LIG    1       -0.246   4.893  -0.595  0.00  0.00    +0.002 A 
ATOM     13  C   LIG    1       -0.134   3.499  -0.678  0.00  0.00    +0.026 A 
ENDBRANCH   3   8
BRANCH   5  14
ATOM     14  C   LIG    1        2.743  -1.201  -0.087  0.00  0.00    +0.072 A 
ATOM     15  N   LIG    1        3.819  -0.378  -0.011  0.00  0.00    -0.255 NA
ATOM     16  C   LIG    1        5.089  -0.836  -0.089  0.00  0.00    +0.111 A 
ATOM     17  C   LIG    1        5.359  -2.178  -0.251  0.00  0.00    +0.020 A 
ATOM     18  C   LIG    1        4.290  -3.042  -0.332  0.00  0.00    +0.004 A 
ATOM     19  C   LIG    1        2.983  -2.538  -0.248  0.00  0.00    +0.028 A 
ENDBRANCH   5  14
BRANCH   7  20
ATOM     20  C   LIG    1       -2.212  -1.596  -0.040  0.00  0.00    +0.005 A 
ATOM     21  C   LIG    1       -2.530  -2.504   0.937  0.00  0.00    +0.010 A 
ATOM     22  C   LIG    1       -3.692  -3.280   0.826  0.00  0.00    +0.001 A 
ATOM     23  C   LIG    1       -4.517  -3.129  -0.268  0.00  0.00    +0.001 A 
ATOM     24  C   LIG    1       -4.205  -2.223  -1.247  0.00  0.00    +0.019 A 
ATOM     25  C   LIG    1       -3.045  -1.459  -1.122  0.00  0.00    +0.060 A 
BRANCH  25  26
ATOM     26  C   LIG    1       -2.782  -0.524  -2.192  0.00  0.00    +0.100 C 
ATOM     27  N   LIG    1       -2.594   0.219  -3.045  0.00  0.00    -0.191 NA
ENDBRANCH  25  26
ENDBRANCH   7  20
TORSDOF 4
