REMARK  Name = molecules/PROQIPRRNZUXQM-ZXXIGWHRSA-N.pdb
REMARK                            x       y       z     vdW  Elec       q    Type
REMARK                         _______ _______ _______ _____ _____    ______ ____
ROOT
ATOM      1  C   LIG    1       -1.789  -0.668  -1.594  0.00  0.00    +0.014 C 
ATOM      2  C   LIG    1       -2.048   0.360  -0.519  0.00  0.00    -0.000 C 
ATOM      3  C   LIG    1       -1.402  -0.066   0.809  0.00  0.00    +0.004 C 
ATOM      4  C   LIG    1       -2.347  -1.081   1.300  0.00  0.00    +0.038 C 
ATOM      5  C   LIG    1       -3.651  -0.314   1.174  0.00  0.00    +0.144 C 
ATOM      6  C   LIG    1       -0.030  -0.496   0.480  0.00  0.00    +0.001 C 
ATOM      7  C   LIG    1        0.634  -1.243   1.584  0.00  0.00    +0.009 C 
ATOM      8  C   LIG    1        2.097  -1.432   1.440  0.00  0.00    +0.036 C 
ATOM      9  C   LIG    1        2.732  -0.549   0.434  0.00  0.00    -0.040 A 
ATOM     10  C   LIG    1        4.046  -0.805   0.106  0.00  0.00    +0.049 A 
ATOM     11  C   LIG    1        4.742  -0.050  -0.817  0.00  0.00    +0.117 A 
ATOM     12  C   LIG    1        4.111   1.001  -1.440  0.00  0.00    +0.046 A 
ATOM     13  C   LIG    1        2.775   1.271  -1.115  0.00  0.00    +0.008 A 
ATOM     14  C   LIG    1        2.102   0.502  -0.191  0.00  0.00    -0.041 A 
ATOM     15  C   LIG    1        0.711   0.799   0.135  0.00  0.00    +0.023 C 
ATOM     16  C   LIG    1        0.052   1.535  -0.966  0.00  0.00    +0.009 C 
ATOM     17  C   LIG    1       -3.483   0.376  -0.163  0.00  0.00    +0.149 C 
ATOM     18  C   LIG    1       -1.436   1.672  -0.846  0.00  0.00    +0.010 C 
ENDROOT
BRANCH   5  19
ATOM     19  O   LIG    1       -3.658   0.658   2.161  0.00  0.00    -0.389 OA
ATOM     20  H   LIG    1       -4.115   1.453   1.796  0.00  0.00    +0.210 HD
ENDBRANCH   5  19
BRANCH  11  21
ATOM     21  O   LIG    1        6.062  -0.309  -1.144  0.00  0.00    -0.507 OA
ATOM     22  H   LIG    1        6.783   0.164  -0.589  0.00  0.00    +0.292 HD
ENDBRANCH  11  21
BRANCH  17  23
ATOM     23  O   LIG    1       -4.212  -0.403  -1.092  0.00  0.00    -0.389 OA
ATOM     24  H   LIG    1       -4.162  -1.370  -0.858  0.00  0.00    +0.210 HD
ENDBRANCH  17  23
TORSDOF 3
