REMARK  Name = molecules/PSIFNNKUMBGKDQ-UHFFFAOYSA-N.pdb
REMARK                            x       y       z     vdW  Elec       q    Type
REMARK                         _______ _______ _______ _____ _____    ______ ____
ROOT
ATOM      1  C   LIG    1       -0.086   0.124  -0.851  0.00  0.00    -0.028 A 
ATOM      2  C   LIG    1        0.454  -0.878  -0.104  0.00  0.00    +0.006 A 
ATOM      3  C   LIG    1        1.822  -1.194  -0.139  0.00  0.00    +0.009 A 
ATOM      4  C   LIG    1        2.680  -0.487  -0.944  0.00  0.00    -0.017 A 
ATOM      5  C   LIG    1        2.158   0.533  -1.709  0.00  0.00    +0.009 A 
ATOM      6  C   LIG    1        0.815   0.827  -1.661  0.00  0.00    +0.006 A 
ENDROOT
BRANCH   4   7
ATOM      7  C   LIG    1        4.119  -0.831  -1.019  0.00  0.00    -0.007 A 
ATOM      8  C   LIG    1        5.039  -0.482  -0.083  0.00  0.00    +0.028 A 
ATOM      9  C   LIG    1        6.352  -0.912  -0.262  0.00  0.00    +0.012 A 
ATOM     10  C   LIG    1        6.734  -1.660  -1.335  0.00  0.00    +0.001 A 
ATOM     11  C   LIG    1        5.817  -2.028  -2.304  0.00  0.00    +0.001 A 
ATOM     12  C   LIG    1        4.545  -1.603  -2.115  0.00  0.00    +0.009 A 
BRANCH   8  13
ATOM     13  C   LIG    1        4.719   0.356   1.069  0.00  0.00    +0.180 A 
ATOM     14  N   LIG    1        5.611   0.562   2.086  0.00  0.00    -0.108 NA
ATOM     15  N   LIG    1        5.081   1.332   3.018  0.00  0.00    -0.023 NA
ATOM     16  N   LIG    1        3.855   1.641   2.639  0.00  0.00    -0.046 NA
ATOM     17  N   LIG    1        3.652   1.037   1.450  0.00  0.00    -0.239 N 
ATOM     18  H   LIG    1        2.763   1.141   0.939  0.00  0.00    +0.192 HD
ENDBRANCH   8  13
ENDBRANCH   4   7
BRANCH   1  19
ATOM     19  C   LIG    1       -1.484   0.466  -0.883  0.00  0.00    +0.158 C 
BRANCH  19  20
ATOM     20  N   LIG    1       -2.140   0.828   0.330  0.00  0.00    -0.324 N 
ATOM     21  C   LIG    1       -2.835  -0.099   1.058  0.00  0.00    +0.112 A 
ATOM     22  N   LIG    1       -3.294   0.503   2.159  0.00  0.00    -0.220 NA
ATOM     23  C   LIG    1       -2.932   1.765   2.172  0.00  0.00    +0.153 A 
ATOM     24 CL   LIG    1       -3.315   2.921   3.420  0.00  0.00    -0.060 Cl
ATOM     25  C   LIG    1       -2.194   1.981   1.004  0.00  0.00    +0.083 A 
BRANCH  21  26
ATOM     26  C   LIG    1       -3.127  -1.517   0.719  0.00  0.00    +0.074 C 
BRANCH  26  27
ATOM     27  C   LIG    1       -4.475  -1.560   0.009  0.00  0.00    +0.007 C 
BRANCH  27  28
ATOM     28  C   LIG    1       -5.557  -1.021   0.893  0.00  0.00    -0.003 C 
ATOM     29  C   LIG    1       -6.884  -1.090   0.134  0.00  0.00    +0.004 C 
ENDBRANCH  27  28
ENDBRANCH  26  27
ENDBRANCH  21  26
BRANCH  25  30
ATOM     30  C   LIG    1       -1.608   3.261   0.618  0.00  0.00    +0.212 C 
BRANCH  30  31
ATOM     31  O   LIG    1       -0.922   3.274  -0.581  0.00  0.00    -0.389 OA
ATOM     32  H   LIG    1       -0.950   4.133  -1.045  0.00  0.00    +0.210 HD
ENDBRANCH  30  31
ENDBRANCH  25  30
ENDBRANCH  19  20
ENDBRANCH   1  19
TORSDOF 9
