REMARK  Name = molecules/PTBKFATYSVLSSD-UHFFFAOYSA-N.pdb
REMARK                            x       y       z     vdW  Elec       q    Type
REMARK                         _______ _______ _______ _____ _____    ______ ____
ROOT
ATOM      1  C   LIG    1        0.454  -0.383   0.127  0.00  0.00    +0.152 A 
ATOM      2  O   LIG    1       -0.271   0.698   0.212  0.00  0.00    -0.433 OA
ATOM      3  C   LIG    1       -1.541   0.438   0.011  0.00  0.00    +0.280 A 
ATOM      4  C   LIG    1       -1.701  -0.911  -0.229  0.00  0.00    +0.076 A 
ATOM      5  C   LIG    1       -0.418  -1.437  -0.153  0.00  0.00    +0.053 A 
ENDROOT
BRANCH   3   6
ATOM      6  N   LIG    1       -2.618   1.391   0.031  0.00  0.00    +0.093 N 
ATOM      7  O   LIG    1       -2.380   2.593   0.256  0.00  0.00    -0.123 OA
ATOM      8  O   LIG    1       -3.911   0.987  -0.197  0.00  0.00    -0.123 OA
ENDBRANCH   3   6
BRANCH   1  10
ATOM      9  N   LIG    1        2.570   0.528   0.540  0.00  0.00    -0.092 NA
ATOM     10  C   LIG    1        1.894  -0.528   0.284  0.00  0.00    +0.199 C 
BRANCH   9  11
ATOM     11  O   LIG    1        3.904   0.599   0.719  0.00  0.00    -0.409 OA
ATOM     12  H   LIG    1        4.415   1.418   0.383  0.00  0.00    +0.328 HD
ENDBRANCH   9  11
ENDBRANCH   1  10
TORSDOF 3
