REMARK  Name = molecules/PTVWPYVOOKLBCG-ZDUSSCGKSA-N.pdb
REMARK                            x       y       z     vdW  Elec       q    Type
REMARK                         _______ _______ _______ _____ _____    ______ ____
ROOT
ATOM      1  N   LIG    1       -1.278  -0.043  -0.129  0.00  0.00    -0.297 NA
ATOM      2  C   LIG    1       -0.748  -1.196   0.460  0.00  0.00    +0.103 C 
ATOM      3  C   LIG    1        0.646  -0.872   0.956  0.00  0.00    +0.120 C 
ATOM      4  N   LIG    1        1.354  -0.143  -0.059  0.00  0.00    -0.327 N 
ATOM      5  C   LIG    1        0.780   0.418  -1.254  0.00  0.00    +0.120 C 
ATOM      6  C   LIG    1       -0.655   0.044  -1.463  0.00  0.00    +0.103 C 
ENDROOT
BRANCH   4   7
ATOM      7  C   LIG    1        2.764   0.057   0.113  0.00  0.00    +0.030 A 
ATOM      8  C   LIG    1        3.349  -0.454   1.249  0.00  0.00    +0.023 A 
ATOM      9  C   LIG    1        4.700  -0.289   1.461  0.00  0.00    +0.002 A 
ATOM     10  C   LIG    1        5.440   0.389   0.526  0.00  0.00    +0.000 A 
ATOM     11  C   LIG    1        4.856   0.902  -0.612  0.00  0.00    +0.002 A 
ATOM     12  C   LIG    1        3.518   0.744  -0.832  0.00  0.00    +0.023 A 
ENDBRANCH   4   7
BRANCH   1  13
ATOM     13  C   LIG    1       -2.645   0.165  -0.271  0.00  0.00    +0.118 C 
BRANCH  13  14
ATOM     14  C   LIG    1       -3.545   0.152   0.893  0.00  0.00    +0.154 C 
BRANCH  14  15
ATOM     15  O   LIG    1       -3.492  -1.085   1.530  0.00  0.00    -0.388 OA
ATOM     16  H   LIG    1       -3.700  -1.831   0.915  0.00  0.00    +0.210 HD
ENDBRANCH  14  15
BRANCH  14  17
ATOM     17  C   LIG    1       -4.989   0.402   0.424  0.00  0.00    +0.188 C 
BRANCH  17  18
ATOM     18  O   LIG    1       -4.971   1.650  -0.202  0.00  0.00    -0.392 OA
ATOM     19  H   LIG    1       -4.312   2.261   0.178  0.00  0.00    +0.210 HD
ENDBRANCH  17  18
ENDBRANCH  14  17
ENDBRANCH  13  14
ENDBRANCH   1  13
TORSDOF 6
