REMARK  Name = molecules/PUFQVTATUTYEAL-UHFFFAOYSA-N.pdb
REMARK                            x       y       z     vdW  Elec       q    Type
REMARK                         _______ _______ _______ _____ _____    ______ ____
ROOT
ATOM      1  C   LIG    1        0.522  -0.194  -0.202  0.00  0.00    +0.051 A 
ATOM      2  C   LIG    1        0.956  -1.370   0.350  0.00  0.00    +0.013 A 
ATOM      3  C   LIG    1        0.101  -2.235   0.999  0.00  0.00    +0.011 A 
ATOM      4  C   LIG    1        0.606  -3.413   1.505  0.00  0.00    +0.001 A 
ATOM      5  C   LIG    1        1.934  -3.762   1.385  0.00  0.00    +0.002 A 
ATOM      6  C   LIG    1        2.783  -2.899   0.734  0.00  0.00    +0.028 A 
ATOM      7  C   LIG    1        2.302  -1.698   0.210  0.00  0.00    +0.076 A 
ATOM      8  N   LIG    1        3.161  -0.888  -0.449  0.00  0.00    -0.213 NA
ATOM      9  C   LIG    1        2.757   0.262  -0.998  0.00  0.00    +0.216 A 
ATOM     10  C   LIG    1        1.444   0.615  -0.879  0.00  0.00    +0.081 A 
ENDROOT
BRANCH   1  11
ATOM     11  C   LIG    1       -0.829   0.277  -0.009  0.00  0.00    +0.245 C 
ATOM     12  N   LIG    1       -1.600   0.268   1.153  0.00  0.00    -0.310 N 
ATOM     13  H   LIG    1       -1.159  -0.072   2.057  0.00  0.00    +0.149 HD
ATOM     14  O   LIG    1       -1.385   0.773  -1.053  0.00  0.00    -0.270 OA
BRANCH  12  15
ATOM     15  C   LIG    1       -2.967   0.747   1.234  0.00  0.00    +0.120 C 
BRANCH  15  16
ATOM     16  C   LIG    1       -3.895  -0.012   0.338  0.00  0.00    +0.103 C 
BRANCH  16  17
ATOM     17  N   LIG    1       -5.248   0.357   0.343  0.00  0.00    -0.301 NA
BRANCH  17  18
ATOM     18  C   LIG    1       -5.853   0.933   1.455  0.00  0.00    +0.081 C 
ATOM     19  C   LIG    1       -5.491   2.306   1.869  0.00  0.00    +0.020 C 
ENDBRANCH  17  18
BRANCH  17  20
ATOM     20  C   LIG    1       -6.100  -0.402  -0.528  0.00  0.00    +0.081 C 
ATOM     21  C   LIG    1       -5.855  -0.193  -1.980  0.00  0.00    +0.020 C 
ENDBRANCH  17  20
ENDBRANCH  16  17
ENDBRANCH  15  16
ENDBRANCH  12  15
ENDBRANCH   1  11
BRANCH   9  22
ATOM     22  O   LIG    1        3.672   1.075  -1.675  0.00  0.00    -0.476 OA
BRANCH  22  23
ATOM     23  C   LIG    1        5.033   0.742  -1.812  0.00  0.00    +0.231 C 
BRANCH  23  24
ATOM     24  C   LIG    1        5.765   0.607  -0.508  0.00  0.00    +0.041 C 
BRANCH  24  25
ATOM     25  C   LIG    1        7.226   0.250  -0.721  0.00  0.00    -0.000 C 
ATOM     26  C   LIG    1        7.955   1.298  -1.532  0.00  0.00    +0.004 C 
ENDBRANCH  24  25
ENDBRANCH  23  24
ENDBRANCH  22  23
ENDBRANCH   9  22
TORSDOF 10
