REMARK  Name = molecules/PURKAOJPTOLRMP-UHFFFAOYSA-N.pdb
REMARK                            x       y       z     vdW  Elec       q    Type
REMARK                         _______ _______ _______ _____ _____    ______ ____
ROOT
ATOM      1  C   LIG    1       -1.431  -0.682  -0.438  0.00  0.00    -0.020 A 
ATOM      2  C   LIG    1       -0.639   0.334   0.070  0.00  0.00    +0.041 A 
ATOM      3  C   LIG    1       -1.216   1.553   0.367  0.00  0.00    +0.069 A 
ATOM      4  C   LIG    1       -2.578   1.757   0.159  0.00  0.00    +0.122 A 
ATOM      5  C   LIG    1       -3.386   0.773  -0.341  0.00  0.00    -0.000 A 
ATOM      6  C   LIG    1       -2.771  -0.430  -0.626  0.00  0.00    +0.013 A 
ENDROOT
BRANCH   1   7
ATOM      7  C   LIG    1       -0.971  -2.034  -0.806  0.00  0.00    -0.011 C 
ATOM      8  C   LIG    1       -0.534  -2.734   0.473  0.00  0.00    +0.015 C 
ATOM      9  C   LIG    1       -2.128  -2.894  -1.333  0.00  0.00    +0.015 C 
ATOM     10  C   LIG    1        0.129  -2.115  -1.792  0.00  0.00    +0.015 C 
ENDBRANCH   1   7
BRANCH   5  11
ATOM     11  C   LIG    1       -4.817   1.014  -0.549  0.00  0.00    -0.009 C 
ATOM     12  C   LIG    1       -5.561   1.364   0.706  0.00  0.00    +0.015 C 
ATOM     13  C   LIG    1       -5.473  -0.184  -1.202  0.00  0.00    +0.015 C 
ATOM     14  C   LIG    1       -4.997   2.172  -1.538  0.00  0.00    +0.015 C 
ENDBRANCH   5  11
BRANCH   2  15
ATOM     15  N   LIG    1        0.710   0.067   0.264  0.00  0.00    -0.281 N 
ATOM     16  C   LIG    1        1.674   0.965   0.737  0.00  0.00    +0.253 C 
ATOM     17  O   LIG    1        1.393   2.142   1.042  0.00  0.00    -0.270 OA
ATOM     18  H   LIG    1        1.079  -0.903   0.047  0.00  0.00    +0.155 HD
BRANCH  16  19
ATOM     19  C   LIG    1        3.089   0.550   0.899  0.00  0.00    +0.100 A 
ATOM     20  C   LIG    1        3.456  -0.571   1.592  0.00  0.00    +0.100 A 
ATOM     21  N   LIG    1        4.763  -0.931   1.722  0.00  0.00    -0.360 N 
ATOM     22  H   LIG    1        5.049  -1.783   2.247  0.00  0.00    +0.165 HD
ATOM     23  C   LIG    1        5.746  -0.190   1.169  0.00  0.00    +0.050 A 
ATOM     24  C   LIG    1        7.080  -0.554   1.298  0.00  0.00    +0.026 A 
ATOM     25  C   LIG    1        8.037   0.237   0.714  0.00  0.00    +0.002 A 
ATOM     26  C   LIG    1        7.704   1.375   0.009  0.00  0.00    +0.001 A 
ATOM     27  C   LIG    1        6.362   1.717  -0.106  0.00  0.00    +0.014 A 
ATOM     28  C   LIG    1        5.374   0.941   0.471  0.00  0.00    +0.046 A 
ATOM     29  C   LIG    1        4.048   1.337   0.320  0.00  0.00    +0.201 A 
ATOM     30  O   LIG    1        3.763   2.395  -0.338  0.00  0.00    -0.286 OA
ENDBRANCH  16  19
ENDBRANCH   2  15
BRANCH   4  31
ATOM     31  O   LIG    1       -3.162   2.977   0.456  0.00  0.00    -0.506 OA
ATOM     32  H   LIG    1       -2.565   3.702   0.825  0.00  0.00    +0.292 HD
ENDBRANCH   4  31
TORSDOF 5
