REMARK  Name = molecules/PUXBGTOOZJQSKH-QMMMGPOBSA-N.pdb
REMARK                            x       y       z     vdW  Elec       q    Type
REMARK                         _______ _______ _______ _____ _____    ______ ____
ROOT
ATOM      1 CL   LIG    1        5.940   1.759   1.281  0.00  0.00    -0.084 Cl
ATOM      2  C   LIG    1        4.631   0.652   0.949  0.00  0.00    +0.042 A 
ATOM      3  C   LIG    1        4.792  -0.713   0.876  0.00  0.00    +0.022 A 
ATOM      4  C   LIG    1        3.719  -1.553   0.609  0.00  0.00    +0.027 A 
ATOM      5  C   LIG    1        2.449  -1.032   0.407  0.00  0.00    +0.048 A 
ATOM      6  C   LIG    1        2.322   0.337   0.487  0.00  0.00    +0.009 A 
ATOM      7  C   LIG    1        0.979   0.588   0.252  0.00  0.00    +0.007 A 
ATOM      8  C   LIG    1        0.271   1.762   0.206  0.00  0.00    +0.011 A 
ATOM      9  C   LIG    1       -1.088   1.720  -0.055  0.00  0.00    +0.005 A 
ATOM     10  C   LIG    1       -1.769   0.555  -0.272  0.00  0.00    -0.032 A 
ATOM     11  C   LIG    1       -1.064  -0.629  -0.228  0.00  0.00    +0.030 A 
ATOM     12  C   LIG    1        0.311  -0.609   0.034  0.00  0.00    +0.048 A 
ATOM     13  N   LIG    1        1.244  -1.572   0.138  0.00  0.00    -0.354 N 
ATOM     14  H   LIG    1        1.051  -2.593   0.024  0.00  0.00    +0.166 HD
ATOM     15  C   LIG    1        3.376   1.182   0.751  0.00  0.00    +0.030 A 
ENDROOT
BRANCH  10  16
ATOM     16  C   LIG    1       -3.202   0.569  -0.543  0.00  0.00    +0.124 C 
ATOM     17  C   LIG    1       -4.015  -0.257   0.417  0.00  0.00    +0.024 C 
BRANCH  16  18
ATOM     18  C   LIG    1       -3.444   0.006  -1.916  0.00  0.00    +0.312 C 
ATOM     19  O   LIG    1       -4.006   0.702  -2.815  0.00  0.00    -0.250 OA
BRANCH  18  20
ATOM     20  O   LIG    1       -3.075  -1.275  -2.268  0.00  0.00    -0.480 OA
ATOM     21  H   LIG    1       -3.531  -2.110  -1.974  0.00  0.00    +0.295 HD
ENDBRANCH  18  20
ENDBRANCH  16  18
ENDBRANCH  10  16
TORSDOF 3
