REMARK  Name = molecules/PVLJETXTTWAYEW-UHFFFAOYSA-N.pdb
REMARK                            x       y       z     vdW  Elec       q    Type
REMARK                         _______ _______ _______ _____ _____    ______ ____
ROOT
ATOM      1  N   LIG    1       -2.465  -0.834  -0.690  0.00  0.00    -0.307 N 
ATOM      2  C   LIG    1       -1.200  -1.050  -0.260  0.00  0.00    +0.200 A 
ATOM      3  N   LIG    1       -1.193  -2.305   0.240  0.00  0.00    -0.214 NA
ATOM      4  C   LIG    1       -2.425  -2.841   0.117  0.00  0.00    +0.091 A 
ATOM      5  C   LIG    1       -2.969  -4.061   0.451  0.00  0.00    +0.030 A 
ATOM      6  C   LIG    1       -4.291  -4.308   0.188  0.00  0.00    +0.002 A 
ATOM      7  C   LIG    1       -5.127  -3.385  -0.406  0.00  0.00    +0.002 A 
ATOM      8  C   LIG    1       -4.581  -2.161  -0.742  0.00  0.00    +0.028 A 
ATOM      9  C   LIG    1       -3.254  -1.893  -0.485  0.00  0.00    +0.070 A 
ENDROOT
BRANCH   2  10
ATOM     10  N   LIG    1       -0.096  -0.147  -0.310  0.00  0.00    -0.301 N 
ATOM     11  C   LIG    1        0.523   0.396   0.884  0.00  0.00    +0.109 C 
ATOM     12  C   LIG    1        2.034   0.132   0.821  0.00  0.00    +0.038 C 
ATOM     13  C   LIG    1        2.546   0.803  -0.440  0.00  0.00    +0.063 C 
ATOM     14  C   LIG    1        1.949  -0.011  -1.589  0.00  0.00    +0.038 C 
ATOM     15  C   LIG    1        0.461   0.278  -1.584  0.00  0.00    +0.109 C 
BRANCH  13  16
ATOM     16  N   LIG    1        3.973   0.801  -0.514  0.00  0.00    -0.259 NA
ATOM     17  C   LIG    1        4.638   1.444  -1.612  0.00  0.00    +0.109 C 
BRANCH  16  18
ATOM     18  C   LIG    1        4.719   0.160   0.506  0.00  0.00    +0.242 C 
ATOM     19  N   LIG    1        5.149   0.883   1.576  0.00  0.00    -0.274 N 
ATOM     20  C   LIG    1        5.844   0.334   2.571  0.00  0.00    +0.225 C 
ATOM     21  O   LIG    1        6.256   0.969   3.570  0.00  0.00    -0.275 OA
ATOM     22  C   LIG    1        6.155  -1.010   2.540  0.00  0.00    +0.133 C 
ATOM     23  C   LIG    1        5.701  -1.725   1.429  0.00  0.00    +0.095 C 
ATOM     24  H   LIG    1        4.921   1.899   1.605  0.00  0.00    +0.152 HD
ATOM     25  N   LIG    1        5.004  -1.154   0.444  0.00  0.00    -0.250 NA
ENDBRANCH  16  18
ENDBRANCH  13  16
ENDBRANCH   2  10
BRANCH   1  26
ATOM     26  C   LIG    1       -2.837   0.421  -1.287  0.00  0.00    +0.160 C 
BRANCH  26  27
ATOM     27  C   LIG    1       -3.376   1.428  -0.377  0.00  0.00    -0.027 A 
ATOM     28  C   LIG    1       -3.074   1.467   0.948  0.00  0.00    +0.008 A 
ATOM     29  C   LIG    1       -3.634   2.434   1.751  0.00  0.00    +0.038 A 
ATOM     30  C   LIG    1       -4.501   3.363   1.205  0.00  0.00    +0.123 A 
ATOM     31  F   LIG    1       -5.060   4.326   1.996  0.00  0.00    -0.205 F 
ATOM     32  C   LIG    1       -4.824   3.349  -0.126  0.00  0.00    +0.038 A 
ATOM     33  C   LIG    1       -4.239   2.355  -0.911  0.00  0.00    +0.008 A 
ENDBRANCH  26  27
ENDBRANCH   1  26
TORSDOF 5
