REMARK  Name = molecules/PWACSDKDOHSSQD-IUTFFREVSA-N.pdb
REMARK                            x       y       z     vdW  Elec       q    Type
REMARK                         _______ _______ _______ _____ _____    ______ ____
ROOT
ATOM      1  C   LIG    1        0.202   0.347   0.415  0.00  0.00    +0.005 C 
ATOM      2  C   LIG    1        1.319   1.002   0.463  0.00  0.00    -0.001 C 
ENDROOT
BRANCH   1   3
ATOM      3  C   LIG    1        0.187  -1.120   0.414  0.00  0.00    -0.016 A 
ATOM      4  C   LIG    1       -0.912  -1.754   0.939  0.00  0.00    +0.009 A 
ATOM      5  C   LIG    1       -1.087  -3.144   0.894  0.00  0.00    +0.004 A 
ATOM      6  C   LIG    1       -0.113  -3.908   0.298  0.00  0.00    -0.050 A 
ATOM      7  C   LIG    1       -0.214  -5.398   0.206  0.00  0.00    +0.044 C 
ATOM      8  C   LIG    1        0.974  -3.281  -0.220  0.00  0.00    +0.004 A 
ATOM      9  C   LIG    1        1.142  -1.892  -0.174  0.00  0.00    +0.009 A 
ENDBRANCH   1   3
BRANCH   1  10
ATOM     10  C   LIG    1       -1.074   1.067   0.206  0.00  0.00    +0.072 A 
ATOM     11  C   LIG    1       -1.112   2.424   0.168  0.00  0.00    +0.028 A 
ATOM     12  C   LIG    1       -2.317   3.120  -0.020  0.00  0.00    +0.004 A 
ATOM     13  C   LIG    1       -3.454   2.353  -0.164  0.00  0.00    +0.028 A 
ATOM     14  C   LIG    1       -3.422   0.979  -0.126  0.00  0.00    +0.065 A 
ATOM     15  N   LIG    1       -2.228   0.399   0.058  0.00  0.00    -0.247 NA
BRANCH  14  16
ATOM     16  C   LIG    1       -4.640   0.205  -0.281  0.00  0.00    +0.035 C 
ATOM     17  C   LIG    1       -5.836   0.689  -0.463  0.00  0.00    +0.093 C 
BRANCH  17  18
ATOM     18  C   LIG    1       -7.019  -0.189  -0.610  0.00  0.00    +0.330 C 
ATOM     19  O   LIG    1       -6.876  -1.440  -0.560  0.00  0.00    -0.246 OA
BRANCH  18  20
ATOM     20  O   LIG    1       -8.276   0.356  -0.802  0.00  0.00    -0.478 OA
ATOM     21  H   LIG    1       -8.540   1.225  -0.331  0.00  0.00    +0.295 HD
ENDBRANCH  18  20
ENDBRANCH  17  18
ENDBRANCH  14  16
ENDBRANCH   1  10
BRANCH   2  22
ATOM     22  C   LIG    1        2.683   0.507   0.672  0.00  0.00    +0.112 C 
BRANCH  22  23
ATOM     23  N   LIG    1        3.487   0.804  -0.485  0.00  0.00    -0.299 NA
ATOM     24  C   LIG    1        4.846   0.347  -0.357  0.00  0.00    +0.085 C 
ATOM     25  C   LIG    1        5.756   1.489  -0.663  0.00  0.00    +0.017 C 
ATOM     26  C   LIG    1        4.897   2.553  -1.264  0.00  0.00    +0.017 C 
ATOM     27  C   LIG    1        3.504   2.187  -0.838  0.00  0.00    +0.085 C 
ENDBRANCH  22  23
ENDBRANCH   2  22
TORSDOF 7
