REMARK  Name = molecules/PWAJCNITSBZRBL-FQEVSTJZSA-N.pdb
REMARK                            x       y       z     vdW  Elec       q    Type
REMARK                         _______ _______ _______ _____ _____    ______ ____
ROOT
ATOM      1  O   LIG    1        0.399  -2.474  -2.825  0.00  0.00    -0.270 OA
ATOM      2  C   LIG    1       -0.106  -2.108  -1.715  0.00  0.00    +0.246 C 
ATOM      3  C   LIG    1       -0.795  -3.067  -0.861  0.00  0.00    +0.108 C 
ATOM      4  C   LIG    1       -1.309  -2.679   0.276  0.00  0.00    +0.103 C 
ATOM      5  C   LIG    1       -2.023  -3.650   1.173  0.00  0.00    +0.086 C 
ATOM      6  O   LIG    1       -1.206  -1.380   0.672  0.00  0.00    -0.464 OA
ATOM      7  C   LIG    1       -0.459  -0.357   0.047  0.00  0.00    +0.235 C 
ATOM      8  C   LIG    1        0.658   0.113   0.894  0.00  0.00    +0.042 A 
ATOM      9  C   LIG    1        0.274   0.141   2.210  0.00  0.00    +0.031 A 
ATOM     10  C   LIG    1        1.107   0.538   3.235  0.00  0.00    +0.042 A 
ATOM     11 CL   LIG    1        0.534   0.545   4.898  0.00  0.00    -0.084 Cl
ATOM     12  C   LIG    1        2.380   0.918   2.886  0.00  0.00    +0.022 A 
ATOM     13  C   LIG    1        2.785   0.896   1.563  0.00  0.00    +0.025 A 
ATOM     14  C   LIG    1        1.938   0.497   0.560  0.00  0.00    +0.045 A 
ATOM     15  N   LIG    1        2.564   0.553  -0.713  0.00  0.00    -0.273 N 
ATOM     16  C   LIG    1        3.958   0.939  -0.749  0.00  0.00    +0.138 C 
ATOM     17  C   LIG    1        1.964   0.267  -1.977  0.00  0.00    +0.237 C 
ATOM     18  C   LIG    1        0.541   0.069  -2.290  0.00  0.00    +0.208 C 
ATOM     19  O   LIG    1        2.807   0.180  -2.932  0.00  0.00    -0.274 OA
ATOM     20  N   LIG    1       -0.027  -0.772  -1.258  0.00  0.00    -0.243 N 
ENDROOT
BRANCH   7  21
ATOM     21  C   LIG    1       -1.444   0.759  -0.185  0.00  0.00    +0.019 A 
ATOM     22  C   LIG    1       -1.246   2.036   0.231  0.00  0.00    +0.009 A 
ATOM     23  C   LIG    1       -2.215   3.005  -0.031  0.00  0.00    +0.000 A 
ATOM     24  C   LIG    1       -3.382   2.709  -0.706  0.00  0.00    +0.000 A 
ATOM     25  C   LIG    1       -3.552   1.395  -1.117  0.00  0.00    +0.000 A 
ATOM     26  C   LIG    1       -2.591   0.431  -0.858  0.00  0.00    +0.009 A 
ENDBRANCH   7  21
TORSDOF 1
