REMARK  Name = molecules/PWHROYKAGRUWDQ-UHFFFAOYSA-N.pdb
REMARK                            x       y       z     vdW  Elec       q    Type
REMARK                         _______ _______ _______ _____ _____    ______ ____
ROOT
ATOM      1  C   LIG    1        0.149  -0.071  -0.018  0.00  0.00    -0.039 A 
ATOM      2  C   LIG    1       -0.548  -0.955   0.752  0.00  0.00    +0.005 A 
ATOM      3  C   LIG    1       -1.942  -1.061   0.657  0.00  0.00    +0.009 A 
ATOM      4  C   LIG    1       -2.583  -0.247  -0.236  0.00  0.00    -0.018 A 
ATOM      5  C   LIG    1       -1.907   0.661  -1.033  0.00  0.00    +0.009 A 
ATOM      6  C   LIG    1       -0.521   0.732  -0.904  0.00  0.00    +0.005 A 
ENDROOT
BRANCH   4   7
ATOM      7  C   LIG    1       -4.043  -0.350  -0.337  0.00  0.00    -0.018 A 
ATOM      8  C   LIG    1       -4.684  -1.550  -0.118  0.00  0.00    +0.008 A 
ATOM      9  C   LIG    1       -6.049  -1.678  -0.201  0.00  0.00    +0.001 A 
ATOM     10  C   LIG    1       -6.787  -0.552  -0.517  0.00  0.00    +0.000 A 
ATOM     11  C   LIG    1       -6.156   0.648  -0.738  0.00  0.00    +0.001 A 
ATOM     12  C   LIG    1       -4.791   0.783  -0.656  0.00  0.00    +0.008 A 
ENDBRANCH   4   7
BRANCH   1  13
ATOM     13  C   LIG    1        1.617   0.026   0.096  0.00  0.00    +0.131 C 
BRANCH  13  14
ATOM     14  C   LIG    1        1.948   1.036   1.128  0.00  0.00    +0.223 C 
ATOM     15  O   LIG    1        0.964   1.613   1.708  0.00  0.00    -0.275 OA
ATOM     16  N   LIG    1        3.266   1.389   1.500  0.00  0.00    -0.270 N 
ATOM     17  H   LIG    1        3.414   2.107   2.233  0.00  0.00    +0.156 HD
BRANCH  16  18
ATOM     18  C   LIG    1        4.362   0.767   0.874  0.00  0.00    +0.125 A 
ATOM     19  C   LIG    1        5.678   1.095   1.221  0.00  0.00    +0.044 A 
ATOM     20  C   LIG    1        6.747   0.481   0.604  0.00  0.00    +0.005 A 
ATOM     21  C   LIG    1        6.539  -0.471  -0.370  0.00  0.00    +0.020 A 
ATOM     22  C   LIG    1        5.242  -0.783  -0.700  0.00  0.00    +0.113 A 
ATOM     23  N   LIG    1        4.233  -0.163  -0.076  0.00  0.00    -0.240 NA
ENDBRANCH  16  18
ENDBRANCH  13  14
ENDBRANCH   1  13
TORSDOF 4
