REMARK  Name = molecules/PWKSKIMOESPYIA-BYPYZUCNSA-N.pdb
REMARK                            x       y       z     vdW  Elec       q    Type
REMARK                         _______ _______ _______ _____ _____    ______ ____
ROOT
ATOM      1  CA  CYS A  1       -0.884  -0.232   0.073  0.00  0.00    +0.191 C 
ENDROOT
BRANCH   1   5
ATOM      2  C   UNK A  0        2.956  -0.234   0.418  0.00  0.00    +0.109 C 
ATOM      3  C   UNK A  0        1.507  -0.373   0.729  0.00  0.00    +0.211 C 
ATOM      4  O   UNK A  0        1.149  -0.752   1.892  0.00  0.00    -0.276 OA
ATOM      5  N   CYS A  1        0.532  -0.093  -0.242  0.00  0.00    -0.302 N 
ATOM      6  H   CYS A  1        0.829   0.214  -1.187  0.00  0.00    +0.150 HD
ENDBRANCH   1   5
BRANCH   1   7
ATOM      7  C   CYS A  1       -1.498  -1.266  -0.783  0.00  0.00    +0.326 C 
ATOM      8  O   CYS A  1       -0.829  -1.905  -1.651  0.00  0.00    -0.249 OA
BRANCH   7   9
ATOM      9  OXT CYS A  1       -2.859  -1.524  -0.607  0.00  0.00    -0.479 OA
ATOM     10  HXT CYS A  1       -3.407  -1.839  -1.399  0.00  0.00    +0.295 HD
ENDBRANCH   7   9
ENDBRANCH   1   7
BRANCH   1  11
ATOM     11  CB  CYS A  1       -1.564   1.108  -0.047  0.00  0.00    +0.099 C 
BRANCH  11  12
ATOM     12  SG  CYS A  1       -0.790   2.256   1.113  0.00  0.00    -0.176 S 
ATOM     13  HG  CYS A  1       -0.048   3.230   0.448  0.00  0.00    +0.102 HD
ENDBRANCH  11  12
ENDBRANCH   1  11
TORSDOF 5
