REMARK  Name = molecules/PWVXXGRKLHYWKM-LJQANCHMSA-N.pdb
REMARK                            x       y       z     vdW  Elec       q    Type
REMARK                         _______ _______ _______ _____ _____    ______ ____
ROOT
ATOM      1  C   LIG    1       -2.384   1.060  -0.144  0.00  0.00    -0.021 A 
ATOM      2  C   LIG    1       -2.992   2.105   0.472  0.00  0.00    +0.087 A 
ATOM      3  N   LIG    1       -2.035   2.827   1.082  0.00  0.00    -0.360 N 
ATOM      4  H   LIG    1       -2.181   3.712   1.653  0.00  0.00    +0.165 HD
ATOM      5  C   LIG    1       -0.833   2.299   0.889  0.00  0.00    +0.047 A 
ATOM      6  C   LIG    1        0.465   2.624   1.280  0.00  0.00    +0.026 A 
ATOM      7  C   LIG    1        1.538   1.842   0.900  0.00  0.00    +0.006 A 
ATOM      8  C   LIG    1        1.360   0.713   0.122  0.00  0.00    -0.045 A 
ATOM      9  C   LIG    1        0.073   0.402  -0.256  0.00  0.00    +0.014 A 
ATOM     10  C   LIG    1       -1.030   1.179   0.116  0.00  0.00    +0.003 A 
ENDROOT
BRANCH   1  11
ATOM     11  C   LIG    1       -2.929  -0.049  -0.958  0.00  0.00    +0.056 C 
BRANCH  11  17
ATOM     12  C   LIG    1       -4.561  -0.722   1.174  0.00  0.00    +0.105 C 
ATOM     13  N   LIG    1       -5.165  -0.056   0.074  0.00  0.00    -0.302 NA
ATOM     14  C   LIG    1       -6.449  -0.666  -0.247  0.00  0.00    +0.084 C 
ATOM     15  C   LIG    1       -6.304  -1.311  -1.587  0.00  0.00    +0.017 C 
ATOM     16  C   LIG    1       -4.836  -1.265  -1.851  0.00  0.00    +0.020 C 
ATOM     17  C   LIG    1       -4.411   0.001  -1.121  0.00  0.00    +0.061 C 
ENDBRANCH  11  17
ENDBRANCH   1  11
BRANCH   8  18
ATOM     18  C   LIG    1        2.523  -0.120  -0.278  0.00  0.00    +0.058 C 
BRANCH  18  19
ATOM     19  C   LIG    1        2.814  -1.213   0.728  0.00  0.00    +0.176 C 
BRANCH  19  20
ATOM     20  S   LIG    1        4.215  -2.122   0.129  0.00  0.00    -0.003 S 
ATOM     21  O   LIG    1        4.571  -3.250   1.052  0.00  0.00    -0.169 OA
ATOM     22  O   LIG    1        3.878  -2.613  -1.248  0.00  0.00    -0.169 OA
BRANCH  20  23
ATOM     23  C   LIG    1        5.549  -0.973   0.003  0.00  0.00    +0.088 A 
ATOM     24  C   LIG    1        6.371  -0.800   1.104  0.00  0.00    +0.027 A 
ATOM     25  C   LIG    1        7.417   0.102   1.003  0.00  0.00    +0.002 A 
ATOM     26  C   LIG    1        7.665   0.827  -0.143  0.00  0.00    +0.000 A 
ATOM     27  C   LIG    1        6.818   0.621  -1.219  0.00  0.00    +0.002 A 
ATOM     28  C   LIG    1        5.764  -0.268  -1.161  0.00  0.00    +0.027 A 
ENDBRANCH  20  23
ENDBRANCH  19  20
ENDBRANCH  18  19
ENDBRANCH   8  18
TORSDOF 6
