REMARK  Name = molecules/PXBFSRVXEKCBFP-UHFFFAOYSA-N.pdb
REMARK                            x       y       z     vdW  Elec       q    Type
REMARK                         _______ _______ _______ _____ _____    ______ ____
ROOT
ATOM      1  C   LIG    1       -0.671  -1.041   0.245  0.00  0.00    +0.273 C 
ENDROOT
BRANCH   1   2
ATOM      2  O   LIG    1       -2.081  -1.058   0.121  0.00  0.00    -0.458 OA
BRANCH   2   3
ATOM      3  C   LIG    1       -2.931  -1.674   1.005  0.00  0.00    +0.343 C 
ATOM      4  O   LIG    1       -2.423  -2.262   1.992  0.00  0.00    -0.245 OA
BRANCH   3   6
ATOM      5  C   LIG    1       -4.948  -1.048  -0.203  0.00  0.00    +0.146 A 
ATOM      6  C   LIG    1       -4.372  -1.687   0.868  0.00  0.00    +0.101 A 
ATOM      7  C   LIG    1       -5.161  -2.332   1.795  0.00  0.00    +0.018 A 
ATOM      8  C   LIG    1       -6.542  -2.325   1.627  0.00  0.00    +0.001 A 
ATOM      9  C   LIG    1       -7.120  -1.685   0.554  0.00  0.00    +0.004 A 
ATOM     10  C   LIG    1       -6.327  -1.038  -0.376  0.00  0.00    +0.047 A 
BRANCH   5  11
ATOM     11  O   LIG    1       -4.112  -0.415  -1.106  0.00  0.00    -0.425 OA
BRANCH  11  12
ATOM     12  C   LIG    1       -3.740   0.920  -0.978  0.00  0.00    +0.309 C 
ATOM     13  O   LIG    1       -4.207   1.534   0.018  0.00  0.00    -0.251 OA
ATOM     14  C   LIG    1       -2.847   1.617  -1.932  0.00  0.00    +0.136 C 
ENDBRANCH  11  12
ENDBRANCH   5  11
ENDBRANCH   3   6
ENDBRANCH   2   3
ENDBRANCH   1   2
BRANCH   1  15
ATOM     15  C   LIG    1       -0.174  -0.385   1.486  0.00  0.00    +0.270 C 
BRANCH  15  16
ATOM     16  O   LIG    1        1.189  -0.385   1.593  0.00  0.00    -0.489 OA
BRANCH  16  17
ATOM     17  C   LIG    1        2.219   0.135   0.905  0.00  0.00    +0.121 A 
ATOM     18  C   LIG    1        3.517  -0.154   1.373  0.00  0.00    +0.047 A 
ATOM     19  C   LIG    1        4.652   0.320   0.757  0.00  0.00    +0.027 A 
ATOM     20  C   LIG    1        4.556   1.108  -0.361  0.00  0.00    +0.034 A 
ATOM     21  C   LIG    1        3.292   1.421  -0.858  0.00  0.00    +0.027 A 
ATOM     22  C   LIG    1        2.191   0.930  -0.215  0.00  0.00    +0.047 A 
BRANCH  20  23
ATOM     23  N   LIG    1        5.709   1.579  -1.029  0.00  0.00    -0.286 N 
ATOM     24  C   LIG    1        6.975   1.019  -0.873  0.00  0.00    +0.214 C 
ATOM     25  O   LIG    1        7.301   0.051  -0.158  0.00  0.00    -0.276 OA
ATOM     26  C   LIG    1        8.095   1.660  -1.665  0.00  0.00    +0.109 C 
ATOM     27  H   LIG    1        5.571   2.412  -1.680  0.00  0.00    +0.155 HD
ENDBRANCH  20  23
ENDBRANCH  16  17
ENDBRANCH  15  16
ENDBRANCH   1  15
TORSDOF 9
