REMARK  Name = molecules/PXUIZULXJVRBPC-AREMUKBSSA-N.pdb
REMARK                            x       y       z     vdW  Elec       q    Type
REMARK                         _______ _______ _______ _____ _____    ______ ____
ROOT
ATOM      1  C   LIG    1       -0.988   0.784  -0.070  0.00  0.00    +0.035 C 
ENDROOT
BRANCH   1   2
ATOM      2  C   LIG    1        0.306   0.769   0.782  0.00  0.00    +0.086 C 
BRANCH   2  16
ATOM      3  O   LIG    1        4.221  -2.536   0.746  0.00  0.00    -0.274 OA
ATOM      4  C   LIG    1        4.360  -1.308   0.735  0.00  0.00    +0.235 C 
ATOM      5  N   LIG    1        5.538  -0.594   1.159  0.00  0.00    -0.298 N 
ATOM      6  H   LIG    1        6.337  -0.902   1.727  0.00  0.00    +0.150 HD
ATOM      7  C   LIG    1        5.405   0.756   0.605  0.00  0.00    +0.144 C 
ATOM      8  C   LIG    1        6.687   1.141  -0.062  0.00  0.00    +0.038 C 
ATOM      9  C   LIG    1        7.104  -0.012  -0.939  0.00  0.00    +0.004 C 
ATOM     10  C   LIG    1        5.949  -0.429  -1.800  0.00  0.00    +0.016 C 
ATOM     11  C   LIG    1        4.712   0.384  -1.643  0.00  0.00    +0.087 C 
ATOM     12  N   LIG    1        4.314   0.700  -0.319  0.00  0.00    -0.271 NA
ATOM     13  C   LIG    1        3.421  -0.238   0.311  0.00  0.00    +0.102 C 
ATOM     14  C   LIG    1        2.901   0.425   1.562  0.00  0.00    +0.047 C 
ATOM     15  C   LIG    1        1.798  -0.400   2.125  0.00  0.00    +0.086 C 
ATOM     16  N   LIG    1        0.695  -0.554   1.174  0.00  0.00    -0.302 NA
ATOM     17  C   LIG    1        1.167  -1.341   0.037  0.00  0.00    +0.086 C 
ATOM     18  C   LIG    1        2.367  -0.713  -0.628  0.00  0.00    +0.047 C 
ENDBRANCH   2  16
ENDBRANCH   1   2
BRANCH   1  19
ATOM     19  C   LIG    1       -2.068   0.235   0.741  0.00  0.00    +0.112 C 
BRANCH  19  20
ATOM     20  N   LIG    1       -3.400   0.110   0.345  0.00  0.00    -0.300 N 
ATOM     21  C   LIG    1       -4.207   1.287   0.278  0.00  0.00    +0.039 A 
ATOM     22  C   LIG    1       -3.539   2.402   0.693  0.00  0.00    +0.043 A 
ATOM     23  C   LIG    1       -4.141   3.671   0.702  0.00  0.00    +0.043 A 
ATOM     24 CL   LIG    1       -3.175   5.008   1.251  0.00  0.00    -0.083 Cl
ATOM     25  C   LIG    1       -5.434   3.768   0.280  0.00  0.00    +0.020 A 
ATOM     26  C   LIG    1       -6.135   2.657  -0.144  0.00  0.00    +0.007 A 
ATOM     27  C   LIG    1       -5.544   1.417  -0.152  0.00  0.00    -0.026 A 
ATOM     28  C   LIG    1       -6.456   0.336  -0.605  0.00  0.00    +0.042 C 
ATOM     29  C   LIG    1       -6.442  -0.821   0.381  0.00  0.00    +0.042 C 
ATOM     30  C   LIG    1       -5.257  -1.656   0.027  0.00  0.00    -0.026 A 
ATOM     31  C   LIG    1       -5.538  -2.949  -0.323  0.00  0.00    +0.005 A 
ATOM     32  C   LIG    1       -4.481  -3.781  -0.698  0.00  0.00    +0.000 A 
ATOM     33  C   LIG    1       -3.177  -3.331  -0.722  0.00  0.00    +0.002 A 
ATOM     34  C   LIG    1       -2.912  -2.007  -0.361  0.00  0.00    +0.024 A 
ATOM     35  C   LIG    1       -3.939  -1.190   0.007  0.00  0.00    +0.037 A 
ENDBRANCH  19  20
ENDBRANCH   1  19
TORSDOF 4
