REMARK  Name = molecules/PXWLVJLKJGVOKE-UHFFFAOYSA-N.pdb
REMARK                            x       y       z     vdW  Elec       q    Type
REMARK                         _______ _______ _______ _____ _____    ______ ____
ROOT
ATOM      1  O   LIG    1        0.071   1.145   1.806  0.00  0.00    -0.266 OA
ATOM      2  C   LIG    1        0.293   0.436   0.788  0.00  0.00    +0.275 A 
ATOM      3  C   LIG    1        1.516   0.098   0.174  0.00  0.00    +0.042 A 
ATOM      4  C   LIG    1        1.254  -0.688  -0.888  0.00  0.00    +0.042 A 
ATOM      5  N   LIG    1       -0.099  -0.824  -0.918  0.00  0.00    -0.284 N 
ATOM      6  C   LIG    1       -0.819  -1.666  -1.895  0.00  0.00    +0.171 C 
ATOM      7  C   LIG    1        2.160  -1.368  -1.857  0.00  0.00    +0.065 C 
ATOM      8  N   LIG    1       -0.669  -0.156   0.063  0.00  0.00    -0.217 N 
ENDROOT
BRANCH   8   9
ATOM      9  C   LIG    1       -2.075   0.035   0.249  0.00  0.00    +0.067 A 
ATOM     10  C   LIG    1       -2.970  -0.933   0.605  0.00  0.00    +0.028 A 
ATOM     11  C   LIG    1       -4.303  -0.660   0.746  0.00  0.00    +0.002 A 
ATOM     12  C   LIG    1       -4.783   0.613   0.528  0.00  0.00    +0.000 A 
ATOM     13  C   LIG    1       -3.933   1.641   0.165  0.00  0.00    +0.002 A 
ATOM     14  C   LIG    1       -2.584   1.307   0.036  0.00  0.00    +0.028 A 
ENDBRANCH   8   9
BRANCH   3  15
ATOM     15  C   LIG    1        2.802   0.444   0.727  0.00  0.00    +0.020 C 
ATOM     16  C   LIG    1        2.848   0.580   2.217  0.00  0.00    +0.012 C 
ATOM     17  C   LIG    1        3.574   1.522  -0.029  0.00  0.00    +0.012 C 
ENDBRANCH   3  15
TORSDOF 2
