REMARK  Name = molecules/PXZDWASDNFWKSD-UHFFFAOYSA-N.pdb
REMARK                            x       y       z     vdW  Elec       q    Type
REMARK                         _______ _______ _______ _____ _____    ______ ____
ROOT
ATOM      1  C   LIG    1       -2.043   1.123  -0.388  0.00  0.00    +0.092 C 
ENDROOT
BRANCH   1   2
ATOM      2  C   LIG    1       -0.893   0.292  -0.751  0.00  0.00    +0.173 A 
ATOM      3  N   LIG    1        0.220   0.105   0.020  0.00  0.00    -0.196 NA
ATOM      4  C   LIG    1        1.073  -0.704  -0.607  0.00  0.00    +0.229 A 
ATOM      5  O   LIG    1        0.490  -1.013  -1.754  0.00  0.00    -0.338 OA
ATOM      6  N   LIG    1       -0.661  -0.441  -1.858  0.00  0.00    -0.061 NA
BRANCH   4   7
ATOM      7  C   LIG    1        2.406  -1.184  -0.153  0.00  0.00    +0.114 C 
BRANCH   7   8
ATOM      8  C   LIG    1        3.436  -0.184  -0.638  0.00  0.00    +0.094 C 
BRANCH   8   9
ATOM      9  N   LIG    1        4.775  -0.522  -0.269  0.00  0.00    -0.302 NA
ATOM     10  C   LIG    1        4.945  -0.405   1.155  0.00  0.00    +0.084 C 
ATOM     11  C   LIG    1        6.365  -0.689   1.589  0.00  0.00    +0.015 C 
ATOM     12  C   LIG    1        7.381   0.077   0.779  0.00  0.00    +0.002 C 
ATOM     13  C   LIG    1        6.628   1.080  -0.078  0.00  0.00    +0.015 C 
ATOM     14  C   LIG    1        5.682   0.338  -0.993  0.00  0.00    +0.084 C 
ENDBRANCH   8   9
ENDBRANCH   7   8
ENDBRANCH   4   7
ENDBRANCH   1   2
BRANCH   1  15
ATOM     15  C   LIG    1       -3.119   0.380   0.367  0.00  0.00    +0.056 C 
BRANCH  15  16
ATOM     16  C   LIG    1       -4.261   1.251   0.713  0.00  0.00    -0.040 A 
ATOM     17  C   LIG    1       -4.886   1.173   1.960  0.00  0.00    +0.004 A 
ATOM     18  C   LIG    1       -5.948   1.971   2.304  0.00  0.00    +0.000 A 
ATOM     19  C   LIG    1       -6.436   2.888   1.412  0.00  0.00    +0.000 A 
ATOM     20  C   LIG    1       -5.844   2.986   0.181  0.00  0.00    +0.000 A 
ATOM     21  C   LIG    1       -4.793   2.192  -0.150  0.00  0.00    +0.004 A 
ENDBRANCH  15  16
BRANCH  15  22
ATOM     22  C   LIG    1       -3.528  -0.888  -0.279  0.00  0.00    -0.040 A 
ATOM     23  C   LIG    1       -3.826  -2.017   0.454  0.00  0.00    +0.004 A 
ATOM     24  C   LIG    1       -4.210  -3.212  -0.117  0.00  0.00    +0.000 A 
ATOM     25  C   LIG    1       -4.297  -3.267  -1.490  0.00  0.00    +0.000 A 
ATOM     26  C   LIG    1       -4.008  -2.158  -2.254  0.00  0.00    +0.000 A 
ATOM     27  C   LIG    1       -3.626  -0.978  -1.649  0.00  0.00    +0.004 A 
ENDBRANCH  15  22
ENDBRANCH   1  15
TORSDOF 7
