REMARK  Name = molecules/PYNXFZCZUAOOQC-UTKZUKDTSA-N.pdb
REMARK                            x       y       z     vdW  Elec       q    Type
REMARK                         _______ _______ _______ _____ _____    ______ ____
ROOT
ATOM      1  C   LIG    1       -1.553   0.314   1.051  0.00  0.00    +0.078 C 
ENDROOT
BRANCH   1   2
ATOM      2  N   LIG    1       -1.146   1.581   0.467  0.00  0.00    -0.312 N 
ATOM      3  C   LIG    1       -1.916   2.781   0.617  0.00  0.00    +0.214 C 
ATOM      4  O   LIG    1       -2.979   2.689   1.287  0.00  0.00    -0.276 OA
ATOM      5  H   LIG    1       -0.268   1.635  -0.080  0.00  0.00    +0.149 HD
BRANCH   3   6
ATOM      6  C   LIG    1       -1.481   4.061   0.014  0.00  0.00    +0.107 C 
BRANCH   6   7
ATOM      7  C   LIG    1       -2.489   5.114   0.344  0.00  0.00    +0.129 C 
BRANCH   7   8
ATOM      8  C   LIG    1       -2.111   6.438  -0.236  0.00  0.00    +0.305 C 
ATOM      9  O   LIG    1       -2.819   7.461  -0.078  0.00  0.00    -0.251 OA
BRANCH   8  10
ATOM     10  O   LIG    1       -0.943   6.548  -0.972  0.00  0.00    -0.481 OA
ATOM     11  H   LIG    1       -0.164   7.099  -0.625  0.00  0.00    +0.295 HD
ENDBRANCH   8  10
ENDBRANCH   7   8
ENDBRANCH   6   7
ENDBRANCH   3   6
ENDBRANCH   1   2
BRANCH   1  12
ATOM     12  C   LIG    1       -0.510  -0.163   2.028  0.00  0.00    +0.057 C 
BRANCH  12  16
ATOM     13  C   LIG    1        3.391  -0.464   0.325  0.00  0.00    -0.018 A 
ATOM     14  C   LIG    1        2.934   0.721   0.853  0.00  0.00    +0.009 A 
ATOM     15  C   LIG    1        1.668   0.752   1.389  0.00  0.00    +0.004 A 
ATOM     16  C   LIG    1        0.821  -0.349   1.429  0.00  0.00    -0.046 A 
ATOM     17  C   LIG    1        1.312  -1.510   0.894  0.00  0.00    +0.004 A 
ATOM     18  C   LIG    1        2.590  -1.577   0.343  0.00  0.00    +0.009 A 
BRANCH  13  21
ATOM     19  C   LIG    1        6.523   0.463  -1.434  0.00  0.00    +0.001 A 
ATOM     20  C   LIG    1        5.277   0.523  -0.879  0.00  0.00    +0.008 A 
ATOM     21  C   LIG    1        4.731  -0.560  -0.261  0.00  0.00    -0.018 A 
ATOM     22  C   LIG    1        5.438  -1.742  -0.188  0.00  0.00    +0.008 A 
ATOM     23  C   LIG    1        6.701  -1.822  -0.743  0.00  0.00    +0.001 A 
ATOM     24  C   LIG    1        7.242  -0.708  -1.370  0.00  0.00    +0.000 A 
ENDBRANCH  13  21
ENDBRANCH  12  16
ENDBRANCH   1  12
BRANCH   1  25
ATOM     25  C   LIG    1       -1.795  -0.629  -0.070  0.00  0.00    +0.037 C 
BRANCH  25  26
ATOM     26  C   LIG    1       -2.303  -1.981   0.349  0.00  0.00    +0.096 C 
ATOM     27  C   LIG    1       -3.630  -1.891   1.078  0.00  0.00    +0.019 C 
BRANCH  26  28
ATOM     28  C   LIG    1       -2.505  -2.852  -0.833  0.00  0.00    +0.310 C 
ATOM     29  O   LIG    1       -1.877  -3.935  -0.946  0.00  0.00    -0.251 OA
BRANCH  28  30
ATOM     30  O   LIG    1       -3.377  -2.538  -1.864  0.00  0.00    -0.465 OA
BRANCH  30  31
ATOM     31  C   LIG    1       -3.542  -3.411  -2.991  0.00  0.00    +0.229 C 
ATOM     32  C   LIG    1       -4.032  -4.760  -2.553  0.00  0.00    +0.048 C 
ENDBRANCH  30  31
ENDBRANCH  28  30
ENDBRANCH  26  28
ENDBRANCH  25  26
ENDBRANCH   1  25
TORSDOF 13
