REMARK  Name = molecules/PYZRQGJRPPTADH-UHFFFAOYSA-N.pdb
REMARK                            x       y       z     vdW  Elec       q    Type
REMARK                         _______ _______ _______ _____ _____    ______ ____
ROOT
ATOM      1  C   LIG    1       -1.341   0.148  -0.760  0.00  0.00    +0.148 A 
ATOM      2  C   LIG    1       -0.484  -0.019   0.287  0.00  0.00    +0.134 A 
ATOM      3  N   LIG    1       -1.039  -0.262   1.516  0.00  0.00    -0.142 NA
ATOM      4  N   LIG    1       -2.346  -0.324   1.653  0.00  0.00    -0.113 NA
ATOM      5  C   LIG    1       -3.203  -0.162   0.632  0.00  0.00    +0.234 A 
ATOM      6  N   LIG    1       -2.700   0.076  -0.586  0.00  0.00    -0.197 NA
ENDROOT
BRANCH   2   7
ATOM      7  C   LIG    1        0.982   0.046   0.170  0.00  0.00    +0.025 A 
ATOM      8  C   LIG    1        1.732  -1.050   0.515  0.00  0.00    +0.069 A 
ATOM      9 CL   LIG    1        0.870  -2.525   0.990  0.00  0.00    -0.081 Cl
ATOM     10  C   LIG    1        3.118  -1.037   0.495  0.00  0.00    +0.060 A 
ATOM     11 CL   LIG    1        3.989  -2.465   0.976  0.00  0.00    -0.082 Cl
ATOM     12  C   LIG    1        3.744   0.145   0.102  0.00  0.00    +0.021 A 
ATOM     13  C   LIG    1        2.996   1.258  -0.253  0.00  0.00    +0.002 A 
ATOM     14  C   LIG    1        1.627   1.215  -0.220  0.00  0.00    +0.012 A 
ENDBRANCH   2   7
BRANCH   1  15
ATOM     15  N   LIG    1       -0.892   0.385  -2.077  0.00  0.00    -0.341 N 
ATOM     16  H   LIG    1       -0.344   1.227  -2.309  0.00  0.00    +0.144 HD
ATOM     17  H   LIG    1       -1.123  -0.297  -2.817  0.00  0.00    +0.144 HD
ENDBRANCH   1  15
BRANCH   5  18
ATOM     18  N   LIG    1       -4.610  -0.241   0.836  0.00  0.00    -0.326 N 
ATOM     19  H   LIG    1       -5.097  -1.041   1.280  0.00  0.00    +0.145 HD
ATOM     20  H   LIG    1       -5.213   0.545   0.528  0.00  0.00    +0.145 HD
ENDBRANCH   5  18
TORSDOF 3
