REMARK  Name = molecules/PZBCKZWLPGJMAO-UHFFFAOYSA-N.pdb
REMARK                            x       y       z     vdW  Elec       q    Type
REMARK                         _______ _______ _______ _____ _____    ______ ____
ROOT
ATOM      1  C   LIG    1       -0.153  -3.086  -1.364  0.00  0.00    +0.017 A 
ATOM      2  C   LIG    1       -1.371  -2.631  -0.909  0.00  0.00    +0.050 A 
ATOM      3  C   LIG    1       -1.395  -1.448  -0.204  0.00  0.00    +0.164 A 
ATOM      4  C   LIG    1       -0.238  -0.744   0.038  0.00  0.00    +0.188 A 
ATOM      5  C   LIG    1        1.002  -1.203  -0.423  0.00  0.00    +0.123 A 
ATOM      6  N   LIG    1        2.185  -0.527  -0.204  0.00  0.00    -0.212 NA
ATOM      7  C   LIG    1        3.401  -0.888  -0.605  0.00  0.00    +0.204 A 
ATOM      8  N   LIG    1        3.502  -2.095  -1.336  0.00  0.00    -0.296 N 
ATOM      9  C   LIG    1        2.312  -2.849  -1.601  0.00  0.00    +0.141 A 
ATOM     10  N   LIG    1        2.573  -3.918  -2.280  0.00  0.00    -0.265 NA
ATOM     11  C   LIG    1        3.962  -4.024  -2.555  0.00  0.00    +0.165 C 
ATOM     12  C   LIG    1        4.622  -2.803  -1.911  0.00  0.00    +0.150 C 
ATOM     13  C   LIG    1        1.011  -2.378  -1.121  0.00  0.00    +0.046 A 
ENDROOT
BRANCH   7  14
ATOM     14  N   LIG    1        4.447  -0.024  -0.253  0.00  0.00    -0.252 N 
ATOM     15  H   LIG    1        4.113   0.860   0.326  0.00  0.00    +0.158 HD
ATOM     16  C   LIG    1        5.818   0.007  -0.455  0.00  0.00    +0.253 C 
ATOM     17  O   LIG    1        6.421  -0.877  -1.094  0.00  0.00    -0.270 OA
BRANCH  16  18
ATOM     18  C   LIG    1        6.649   1.113   0.088  0.00  0.00    +0.073 A 
ATOM     19  C   LIG    1        6.269   1.822   1.181  0.00  0.00    +0.129 A 
ATOM     20  N   LIG    1        7.074   2.819   1.647  0.00  0.00    -0.222 NA
ATOM     21  C   LIG    1        8.230   3.081   1.015  0.00  0.00    +0.213 A 
ATOM     22  N   LIG    1        8.637   2.404  -0.065  0.00  0.00    -0.222 NA
ATOM     23  C   LIG    1        7.830   1.398  -0.540  0.00  0.00    +0.129 A 
BRANCH  21  24
ATOM     24  N   LIG    1        9.035   4.128   1.540  0.00  0.00    -0.327 N 
ATOM     25  H   LIG    1        9.966   3.880   1.915  0.00  0.00    +0.145 HD
ATOM     26  H   LIG    1        8.740   5.127   1.568  0.00  0.00    +0.145 HD
ENDBRANCH  21  24
ENDBRANCH  16  18
ENDBRANCH   7  14
BRANCH   4  27
ATOM     27  O   LIG    1       -0.201   0.453   0.742  0.00  0.00    -0.489 OA
ATOM     28  C   LIG    1       -0.026   0.500   2.147  0.00  0.00    +0.277 C 
ENDBRANCH   4  27
BRANCH   3  29
ATOM     29  O   LIG    1       -2.602  -0.941   0.281  0.00  0.00    -0.488 OA
BRANCH  29  30
ATOM     30  C   LIG    1       -3.794  -1.661   0.037  0.00  0.00    +0.230 C 
BRANCH  30  31
ATOM     31  C   LIG    1       -4.960  -0.929   0.650  0.00  0.00    +0.056 C 
BRANCH  31  32
ATOM     32  C   LIG    1       -5.038   0.446   0.008  0.00  0.00    +0.088 C 
BRANCH  32  33
ATOM     33  N   LIG    1       -6.136   1.152   0.578  0.00  0.00    -0.298 NA
ATOM     34  C   LIG    1       -5.952   2.553   0.489  0.00  0.00    +0.112 C 
ATOM     35  C   LIG    1       -7.041   3.316  -0.198  0.00  0.00    +0.175 C 
ATOM     36  O   LIG    1       -8.291   2.781   0.147  0.00  0.00    -0.377 OA
ATOM     37  C   LIG    1       -8.350   1.536  -0.439  0.00  0.00    +0.175 C 
ATOM     38  C   LIG    1       -7.392   0.610   0.225  0.00  0.00    +0.112 C 
ENDBRANCH  32  33
ENDBRANCH  31  32
ENDBRANCH  30  31
ENDBRANCH  29  30
ENDBRANCH   3  29
TORSDOF 9
