REMARK  Name = molecules/PZBPKYOVPCNPJY-AWEZNQCLSA-N.pdb
REMARK                            x       y       z     vdW  Elec       q    Type
REMARK                         _______ _______ _______ _____ _____    ______ ____
ROOT
ATOM      1  C   LIG    1        0.122  -0.189  -0.267  0.00  0.00    +0.170 C 
ENDROOT
BRANCH   1   2
ATOM      2  C   LIG    1        0.377  -1.090  -1.462  0.00  0.00    +0.001 A 
ATOM      3  C   LIG    1        1.537  -1.718  -1.739  0.00  0.00    +0.048 A 
ATOM      4 CL   LIG    1        2.895  -1.592  -0.636  0.00  0.00    -0.083 Cl
ATOM      5  C   LIG    1        1.714  -2.491  -2.859  0.00  0.00    +0.040 A 
ATOM      6  C   LIG    1        0.704  -2.677  -3.781  0.00  0.00    +0.042 A 
ATOM      7  C   LIG    1       -0.494  -2.048  -3.523  0.00  0.00    +0.020 A 
ATOM      8 CL   LIG    1        0.857  -3.644  -5.227  0.00  0.00    -0.083 Cl
ATOM      9  C   LIG    1       -0.652  -1.277  -2.396  0.00  0.00    +0.009 A 
ENDBRANCH   1   2
BRANCH   1  10
ATOM     10  C   LIG    1       -1.371  -0.045  -0.076  0.00  0.00    +0.159 C 
BRANCH  10  11
ATOM     11  N   LIG    1       -1.684   0.598   1.182  0.00  0.00    -0.334 N 
ATOM     12  C   LIG    1       -1.830  -0.082   2.344  0.00  0.00    +0.107 A 
ATOM     13  C   LIG    1       -2.157   0.813   3.330  0.00  0.00    +0.130 A 
ATOM     14  N   LIG    1       -2.196   2.022   2.719  0.00  0.00    -0.244 NA
ATOM     15  C   LIG    1       -1.912   1.901   1.423  0.00  0.00    +0.199 A 
ENDBRANCH  10  11
ENDBRANCH   1  10
BRANCH   1  16
ATOM     16  O   LIG    1        0.817   0.937  -0.292  0.00  0.00    -0.366 OA
BRANCH  16  17
ATOM     17  C   LIG    1        1.772   1.388   0.479  0.00  0.00    +0.187 C 
BRANCH  17  18
ATOM     18  C   LIG    1        1.319   1.475   1.913  0.00  0.00    -0.007 C 
ATOM     19  C   LIG    1        1.302   2.611   2.588  0.00  0.00    +0.006 C 
ENDBRANCH  17  18
ENDBRANCH  16  17
ENDBRANCH   1  16
TORSDOF 6
