REMARK  Name = molecules/PZJBWSQQDMRZHY-FZQKWOKYSA-N.pdb
REMARK                            x       y       z     vdW  Elec       q    Type
REMARK                         _______ _______ _______ _____ _____    ______ ____
ROOT
ATOM      1  C   LIG    1        0.381  -0.678  -0.925  0.00  0.00    +0.037 C 
ATOM      2  C   LIG    1        0.002  -1.886  -0.175  0.00  0.00    +0.058 C 
ATOM      3  C   LIG    1        0.380  -1.984   1.254  0.00  0.00    +0.024 C 
ATOM      4  N   LIG    1       -1.484  -1.794  -0.189  0.00  0.00    -0.310 NA
ATOM      5  C   LIG    1       -1.583  -0.425   0.330  0.00  0.00    +0.058 C 
ATOM      6  H   LIG    1       -1.800  -1.783  -1.190  0.00  0.00    +0.122 HD
ATOM      7  C   LIG    1       -0.758   0.329  -0.678  0.00  0.00    +0.028 C 
ENDROOT
BRANCH   1   8
ATOM      8  C   LIG    1        1.635  -0.009  -0.618  0.00  0.00    -0.043 A 
ATOM      9  C   LIG    1        2.676  -0.651  -0.002  0.00  0.00    +0.005 A 
ATOM     10  C   LIG    1        3.837   0.031   0.272  0.00  0.00    +0.020 A 
ATOM     11  C   LIG    1        3.951   1.358  -0.073  0.00  0.00    +0.041 A 
ATOM     12 CL   LIG    1        5.471   2.183   0.307  0.00  0.00    -0.084 Cl
ATOM     13  C   LIG    1        2.927   2.050  -0.697  0.00  0.00    +0.020 A 
ATOM     14  C   LIG    1        1.782   1.328  -0.953  0.00  0.00    +0.005 A 
ENDBRANCH   1   8
BRANCH   5  15
ATOM     15  C   LIG    1       -2.986   0.024   0.489  0.00  0.00    +0.006 C 
ATOM     16  C   LIG    1       -3.321   1.380   1.010  0.00  0.00    +0.005 C 
ATOM     17  C   LIG    1       -3.609   0.965  -0.438  0.00  0.00    +0.005 C 
ENDBRANCH   5  15
TORSDOF 2
