REMARK  Name = molecules/PZRHRDRVRGEVNW-UHFFFAOYSA-N.pdb
REMARK                            x       y       z     vdW  Elec       q    Type
REMARK                         _______ _______ _______ _____ _____    ______ ____
ROOT
ATOM      1  C   LIG    1       -2.019  -0.515  -0.957  0.00  0.00    +0.064 C 
ATOM      2  C   LIG    1       -0.558  -0.533  -1.170  0.00  0.00    +0.024 A 
ATOM      3  C   LIG    1        0.320  -0.096  -0.209  0.00  0.00    +0.003 A 
ATOM      4  C   LIG    1        1.709  -0.129  -0.418  0.00  0.00    +0.034 A 
ATOM      5  C   LIG    1        2.209  -0.607  -1.605  0.00  0.00    +0.116 A 
ATOM      6  C   LIG    1        1.306  -1.040  -2.552  0.00  0.00    +0.266 A 
ATOM      7  O   LIG    1        1.715  -1.487  -3.659  0.00  0.00    -0.267 OA
ATOM      8  N   LIG    1       -0.021  -1.002  -2.337  0.00  0.00    -0.325 N 
ATOM      9  H   LIG    1       -0.683  -1.330  -3.060  0.00  0.00    +0.169 HD
ENDROOT
BRANCH   3  10
ATOM     10  C   LIG    1       -0.196   0.420   1.040  0.00  0.00    -0.013 A 
ATOM     11  C   LIG    1        0.246   0.017   2.285  0.00  0.00    +0.028 A 
ATOM     12  C   LIG    1       -0.285   0.540   3.450  0.00  0.00    +0.111 A 
ATOM     13  N   LIG    1       -1.249   1.457   3.351  0.00  0.00    -0.263 NA
ATOM     14  C   LIG    1       -1.726   1.895   2.183  0.00  0.00    +0.111 A 
ATOM     15  C   LIG    1       -1.191   1.368   1.001  0.00  0.00    +0.028 A 
ENDBRANCH   3  10
BRANCH   5  16
ATOM     16  C   LIG    1        3.642  -0.652  -1.845  0.00  0.00    +0.105 C 
ATOM     17  N   LIG    1        4.776  -0.687  -2.056  0.00  0.00    -0.191 NA
ENDBRANCH   5  16
TORSDOF 2
