REMARK  Name = molecules/QADHLRWLCPCEKT-LOVVWNRFSA-N.pdb
REMARK                            x       y       z     vdW  Elec       q    Type
REMARK                         _______ _______ _______ _____ _____    ______ ____
ROOT
ATOM      1  C   LIG    1        1.463  -1.637   0.775  0.00  0.00    +0.016 C 
ATOM      2  C   LIG    1        1.553  -0.433  -0.148  0.00  0.00    -0.008 C 
ATOM      3  C   LIG    1        2.266   0.691   0.492  0.00  0.00    -0.065 C 
ATOM      4  C   LIG    1        3.717   0.546   0.843  0.00  0.00    +0.062 C 
ATOM      5  C   LIG    1        4.465   0.061  -0.358  0.00  0.00    +0.119 C 
ATOM      6  C   LIG    1        3.799  -1.181  -0.915  0.00  0.00    +0.032 C 
ATOM      7  C   LIG    1        1.674   1.839   0.793  0.00  0.00    -0.027 C 
ATOM      8  C   LIG    1        0.244   2.143   0.532  0.00  0.00    +0.031 C 
ATOM      9  C   LIG    1       -0.470   0.779   0.476  0.00  0.00    +0.000 C 
ATOM     10  C   LIG    1       -1.893   1.047   0.169  0.00  0.00    +0.001 C 
ATOM     11  C   LIG    1       -2.740   1.466   1.324  0.00  0.00    +0.007 C 
ATOM     12  C   LIG    1       -4.166   1.103   0.902  0.00  0.00    +0.032 C 
ATOM     13  C   LIG    1       -4.009   0.358  -0.431  0.00  0.00    +0.121 C 
ATOM     14  C   LIG    1       -2.642  -0.222  -0.269  0.00  0.00    -0.003 C 
ATOM     15  C   LIG    1       -2.583  -1.250   0.847  0.00  0.00    +0.014 C 
ATOM     16  C   LIG    1       -1.997  -0.694  -1.521  0.00  0.00    +0.010 C 
ATOM     17  C   LIG    1       -0.575  -1.109  -1.183  0.00  0.00    +0.005 C 
ATOM     18  C   LIG    1        0.216   0.032  -0.609  0.00  0.00    +0.003 C 
ATOM     19  C   LIG    1        2.392  -0.928  -1.341  0.00  0.00    +0.014 C 
ENDROOT
BRANCH   5  20
ATOM     20  O   LIG    1        5.747  -0.315   0.043  0.00  0.00    -0.391 OA
ATOM     21  H   LIG    1        6.237  -0.776  -0.683  0.00  0.00    +0.210 HD
ENDBRANCH   5  20
BRANCH  13  22
ATOM     22  O   LIG    1       -4.998  -0.567  -0.630  0.00  0.00    -0.391 OA
ATOM     23  H   LIG    1       -5.787  -0.081  -1.028  0.00  0.00    +0.210 HD
ENDBRANCH  13  22
TORSDOF 2
