REMARK  Name = molecules/QAIOVDNCIZSSSF-RFAJLIJZSA-N.pdb
REMARK                            x       y       z     vdW  Elec       q    Type
REMARK                         _______ _______ _______ _____ _____    ______ ____
ROOT
ATOM      1  C   LIG    1        2.050  -0.754  -0.125  0.00  0.00    +0.215 C 
ATOM      2  C   LIG    1        0.789  -0.038   0.141  0.00  0.00    +0.024 C 
ATOM      3  C   LIG    1        0.850   0.630   1.489  0.00  0.00    +0.016 C 
ATOM      4  C   LIG    1       -0.242  -1.142   0.082  0.00  0.00    +0.003 C 
ATOM      5  C   LIG    1        0.421  -2.290   0.671  0.00  0.00    +0.009 C 
ATOM      6  C   LIG    1       -1.509  -0.614   0.626  0.00  0.00    -0.000 C 
ATOM      7  C   LIG    1       -2.431  -1.686   1.129  0.00  0.00    +0.008 C 
ATOM      8  C   LIG    1       -3.648  -0.989   1.698  0.00  0.00    +0.032 C 
ATOM      9  C   LIG    1       -4.268  -0.343   0.463  0.00  0.00    -0.056 C 
ATOM     10  C   LIG    1       -5.409  -0.757   0.026  0.00  0.00    +0.051 C 
ATOM     11  C   LIG    1       -6.056  -0.254  -1.196  0.00  0.00    +0.179 C 
ATOM     12  O   LIG    1       -7.164  -0.678  -1.588  0.00  0.00    -0.288 OA
ATOM     13  C   LIG    1       -5.306   0.768  -1.905  0.00  0.00    +0.047 C 
ATOM     14  C   LIG    1       -4.156   1.155  -1.420  0.00  0.00    -0.012 C 
ATOM     15  C   LIG    1       -3.472   0.701  -0.214  0.00  0.00    +0.013 C 
ATOM     16  C   LIG    1       -3.542   1.907   0.740  0.00  0.00    +0.020 C 
ATOM     17  C   LIG    1       -2.076   0.261  -0.473  0.00  0.00    +0.035 C 
ATOM     18  C   LIG    1       -1.105   1.345  -0.763  0.00  0.00    +0.120 C 
ATOM     19  C   LIG    1        0.333   0.964  -0.874  0.00  0.00    +0.043 C 
ATOM     20  C   LIG    1        1.665  -2.266  -0.240  0.00  0.00    +0.061 C 
ENDROOT
BRANCH   1  21
ATOM     21  C   LIG    1        3.035  -0.776   0.980  0.00  0.00    +0.352 C 
ATOM     22  O   LIG    1        2.654  -1.057   2.130  0.00  0.00    -0.246 OA
BRANCH  21  23
ATOM     23  O   LIG    1        4.364  -0.494   0.781  0.00  0.00    -0.462 OA
BRANCH  23  24
ATOM     24  C   LIG    1        5.319  -0.516   1.849  0.00  0.00    +0.229 C 
ATOM     25  C   LIG    1        6.684  -0.165   1.305  0.00  0.00    +0.048 C 
ENDBRANCH  23  24
ENDBRANCH  21  23
ENDBRANCH   1  21
BRANCH  18  26
ATOM     26  O   LIG    1       -1.276   2.492   0.040  0.00  0.00    -0.391 OA
ATOM     27  H   LIG    1       -0.541   3.116  -0.049  0.00  0.00    +0.210 HD
ENDBRANCH  18  26
BRANCH   1  28
ATOM     28  O   LIG    1        2.733  -0.394  -1.310  0.00  0.00    -0.444 OA
BRANCH  28  29
ATOM     29  C   LIG    1        3.438   0.777  -1.438  0.00  0.00    +0.341 C 
ATOM     30  O   LIG    1        3.536   1.615  -0.509  0.00  0.00    -0.248 OA
BRANCH  29  31
ATOM     31  C   LIG    1        4.147   1.140  -2.715  0.00  0.00    +0.279 C 
ATOM     32 CL   LIG    1        4.969   2.708  -2.582  0.00  0.00    -0.092 Cl
ATOM     33 CL   LIG    1        5.379  -0.108  -3.064  0.00  0.00    -0.092 Cl
ENDBRANCH  29  31
ENDBRANCH  28  29
ENDBRANCH   1  28
TORSDOF 7
