REMARK  Name = molecules/QAJQUUOBVOKLOD-UHFFFAOYSA-N.pdb
REMARK                            x       y       z     vdW  Elec       q    Type
REMARK                         _______ _______ _______ _____ _____    ______ ____
ROOT
ATOM      1  C   LIG    1        1.299  -1.212   0.859  0.00  0.00    +0.094 A 
ATOM      2  C   LIG    1        0.448  -0.281   1.405  0.00  0.00    +0.029 A 
ATOM      3  C   LIG    1       -0.862  -0.135   0.973  0.00  0.00    +0.025 A 
ATOM      4  C   LIG    1       -1.387  -0.913  -0.028  0.00  0.00    +0.033 A 
ATOM      5  C   LIG    1       -0.512  -1.869  -0.589  0.00  0.00    +0.025 A 
ATOM      6  C   LIG    1        0.776  -1.997  -0.149  0.00  0.00    +0.029 A 
ENDROOT
BRANCH   4   7
ATOM      7  N   LIG    1       -2.716  -0.833  -0.516  0.00  0.00    -0.285 N 
ATOM      8  C   LIG    1       -3.719  -0.069   0.104  0.00  0.00    +0.218 C 
ATOM      9  O   LIG    1       -3.601   0.615   1.125  0.00  0.00    -0.275 OA
ATOM     10  H   LIG    1       -2.930  -1.387  -1.396  0.00  0.00    +0.155 HD
BRANCH   8  11
ATOM     11  C   LIG    1       -5.082  -0.084  -0.539  0.00  0.00    +0.107 C 
BRANCH  11  12
ATOM     12  C   LIG    1       -5.993   0.781   0.266  0.00  0.00    +0.129 C 
BRANCH  12  13
ATOM     13  C   LIG    1       -7.360   0.853  -0.258  0.00  0.00    +0.305 C 
ATOM     14  O   LIG    1       -7.671   0.222  -1.290  0.00  0.00    -0.251 OA
BRANCH  13  15
ATOM     15  O   LIG    1       -8.308   1.614   0.383  0.00  0.00    -0.481 OA
ATOM     16  H   LIG    1       -9.216   1.278   0.655  0.00  0.00    +0.295 HD
ENDBRANCH  13  15
ENDBRANCH  12  13
ENDBRANCH  11  12
ENDBRANCH   8  11
ENDBRANCH   4   7
BRANCH   1  17
ATOM     17  S   LIG    1        2.946  -1.384   1.413  0.00  0.00    +0.025 S 
ATOM     18  O   LIG    1        3.042  -0.968   2.866  0.00  0.00    -0.164 OA
ATOM     19  O   LIG    1        3.395  -2.820   1.353  0.00  0.00    -0.164 OA
BRANCH  17  20
ATOM     20  C   LIG    1        4.034  -0.353   0.511  0.00  0.00    +0.094 A 
ATOM     21  C   LIG    1        4.271   0.922   0.965  0.00  0.00    +0.029 A 
ATOM     22  C   LIG    1        5.137   1.700   0.222  0.00  0.00    +0.024 A 
ATOM     23  C   LIG    1        5.759   1.273  -0.923  0.00  0.00    +0.025 A 
ATOM     24  C   LIG    1        5.508  -0.006  -1.361  0.00  0.00    +0.024 A 
ATOM     25  C   LIG    1        4.640  -0.821  -0.636  0.00  0.00    +0.029 A 
BRANCH  23  26
ATOM     26  N   LIG    1        6.653   2.108  -1.671  0.00  0.00    -0.358 N 
ATOM     27  H   LIG    1        7.597   1.778  -1.938  0.00  0.00    +0.142 HD
ATOM     28  H   LIG    1        6.355   3.070  -1.958  0.00  0.00    +0.142 HD
ENDBRANCH  23  26
ENDBRANCH  17  20
ENDBRANCH   1  17
TORSDOF 8
