REMARK  Name = molecules/QBPFLULOKWLNNW-UHFFFAOYSA-N.pdb
REMARK                            x       y       z     vdW  Elec       q    Type
REMARK                         _______ _______ _______ _____ _____    ______ ____
ROOT
ATOM      1  O   LIG    1       -0.013   2.383  -0.200  0.00  0.00    -0.286 OA
ATOM      2  C   LIG    1       -0.061   1.135  -0.095  0.00  0.00    +0.202 C 
ATOM      3  C   LIG    1       -1.345   0.436  -0.032  0.00  0.00    +0.075 A 
ATOM      4  C   LIG    1       -1.334  -0.956   0.085  0.00  0.00    +0.037 A 
ATOM      5  C   LIG    1       -2.532  -1.658   0.148  0.00  0.00    +0.012 A 
ATOM      6  C   LIG    1       -3.750  -1.015   0.098  0.00  0.00    +0.004 A 
ATOM      7  C   LIG    1       -3.764   0.349  -0.017  0.00  0.00    +0.046 A 
ATOM      8  C   LIG    1       -0.046  -1.635   0.138  0.00  0.00    +0.195 C 
ATOM      9  O   LIG    1       -0.028  -2.893   0.243  0.00  0.00    -0.287 OA
ATOM     10  C   LIG    1        1.241  -0.958   0.076  0.00  0.00    +0.037 A 
ATOM     11  C   LIG    1        2.447  -1.644   0.130  0.00  0.00    +0.012 A 
ATOM     12  C   LIG    1        3.642  -0.954   0.068  0.00  0.00    +0.004 A 
ATOM     13  C   LIG    1        3.647   0.427  -0.048  0.00  0.00    +0.046 A 
ATOM     14  C   LIG    1        2.434   1.075  -0.098  0.00  0.00    +0.128 A 
ATOM     15  C   LIG    1       -2.563   1.088  -0.083  0.00  0.00    +0.128 A 
ATOM     16  C   LIG    1        1.227   0.413  -0.039  0.00  0.00    +0.075 A 
ENDROOT
BRANCH  14  17
ATOM     17  O   LIG    1        2.400   2.446  -0.213  0.00  0.00    -0.506 OA
ATOM     18  H   LIG    1        3.251   2.961  -0.259  0.00  0.00    +0.292 HD
ENDBRANCH  14  17
BRANCH  15  19
ATOM     19  O   LIG    1       -2.626   2.443  -0.197  0.00  0.00    -0.506 OA
ATOM     20  H   LIG    1       -1.996   3.144  -0.258  0.00  0.00    +0.292 HD
ENDBRANCH  15  19
TORSDOF 2
