REMARK  Name = molecules/QCDFBFJGMNKBDO-UHFFFAOYSA-N.pdb
REMARK                            x       y       z     vdW  Elec       q    Type
REMARK                         _______ _______ _______ _____ _____    ______ ____
ROOT
ATOM      1  C   LIG    1        1.522   0.698   0.004  0.00  0.00    +0.156 A 
ATOM      2  C   LIG    1        0.149   0.632   0.037  0.00  0.00    +0.115 A 
ATOM      3  N   LIG    1       -0.636   1.729   0.131  0.00  0.00    -0.251 NA
ATOM      4  C   LIG    1       -1.980   1.650   0.162  0.00  0.00    +0.111 A 
ATOM      5  C   LIG    1       -2.632   0.437   0.100  0.00  0.00    +0.020 A 
ATOM      6  C   LIG    1       -1.853  -0.697   0.005  0.00  0.00    +0.013 A 
ATOM      7  C   LIG    1       -0.462  -0.603  -0.027  0.00  0.00    +0.022 A 
ATOM      8  C   LIG    1        0.337  -1.738  -0.123  0.00  0.00    +0.051 A 
ATOM      9  C   LIG    1        1.718  -1.640  -0.154  0.00  0.00    +0.038 A 
ATOM     10 CL   LIG    1       -0.427  -3.299  -0.205  0.00  0.00    -0.083 Cl
ATOM     11  C   LIG    1        2.339  -0.410  -0.090  0.00  0.00    +0.058 A 
ATOM     12  I   LIG    1        4.441  -0.258  -0.138  0.00  0.00    -0.040 I 
ENDROOT
BRANCH   1  13
ATOM     13  O   LIG    1        2.127   1.942   0.070  0.00  0.00    -0.504 OA
ATOM     14  H   LIG    1        1.627   2.816   0.141  0.00  0.00    +0.292 HD
ENDBRANCH   1  13
TORSDOF 1
