REMARK  Name = molecules/QCDWFXQBSFUVSP-UHFFFAOYSA-N.pdb
REMARK                            x       y       z     vdW  Elec       q    Type
REMARK                         _______ _______ _______ _____ _____    ______ ____
ROOT
ATOM      1  C   LIG    1        0.634   0.441   0.056  0.00  0.00    +0.121 A 
ATOM      2  C   LIG    1        1.645   1.356   0.286  0.00  0.00    +0.045 A 
ATOM      3  C   LIG    1        2.943   0.981   0.015  0.00  0.00    +0.004 A 
ATOM      4  C   LIG    1        3.269  -0.277  -0.477  0.00  0.00    +0.000 A 
ATOM      5  C   LIG    1        2.264  -1.194  -0.708  0.00  0.00    +0.004 A 
ATOM      6  C   LIG    1        0.969  -0.808  -0.434  0.00  0.00    +0.045 A 
ENDROOT
BRANCH   1   7
ATOM      7  O   LIG    1       -0.703   0.775   0.316  0.00  0.00    -0.490 OA
BRANCH   7   8
ATOM      8  C   LIG    1       -1.700  -0.193   0.066  0.00  0.00    +0.256 C 
BRANCH   8   9
ATOM      9  C   LIG    1       -3.070   0.333   0.398  0.00  0.00    +0.196 C 
BRANCH   9  10
ATOM     10  O   LIG    1       -4.014  -0.656   0.135  0.00  0.00    -0.392 OA
ATOM     11  H   LIG    1       -4.685  -0.701   0.860  0.00  0.00    +0.210 HD
ENDBRANCH   9  10
ENDBRANCH   8   9
ENDBRANCH   7   8
ENDBRANCH   1   7
TORSDOF 4
