REMARK  Name = molecules/QCTBMLYLENLHLA-UHFFFAOYSA-N.pdb
REMARK                            x       y       z     vdW  Elec       q    Type
REMARK                         _______ _______ _______ _____ _____    ______ ____
ROOT
ATOM      1  C   LIG    1       -1.058  -0.101  -0.142  0.00  0.00    -0.034 A 
ATOM      2  C   LIG    1       -0.432   0.152   1.056  0.00  0.00    +0.006 A 
ATOM      3  C   LIG    1        0.942   0.123   1.171  0.00  0.00    +0.015 A 
ATOM      4  C   LIG    1        1.737  -0.167   0.060  0.00  0.00    +0.059 A 
ATOM      5  C   LIG    1        1.086  -0.417  -1.129  0.00  0.00    +0.015 A 
ATOM      6  C   LIG    1       -0.277  -0.388  -1.241  0.00  0.00    +0.006 A 
ENDROOT
BRANCH   4   7
ATOM      7  C   LIG    1        3.184  -0.203   0.152  0.00  0.00    +0.337 C 
ATOM      8  O   LIG    1        3.849  -0.469  -0.876  0.00  0.00    -0.245 OA
BRANCH   7   9
ATOM      9  O   LIG    1        3.873   0.042   1.325  0.00  0.00    -0.477 OA
ATOM     10  H   LIG    1        4.385   0.916   1.432  0.00  0.00    +0.295 HD
ENDBRANCH   7   9
ENDBRANCH   4   7
BRANCH   1  11
ATOM     11  C   LIG    1       -2.523  -0.086  -0.330  0.00  0.00    +0.113 C 
BRANCH  11  12
ATOM     12  N   LIG    1       -3.237   0.224   0.882  0.00  0.00    -0.326 NA
ATOM     13  H   LIG    1       -3.086   1.198   1.196  0.00  0.00    +0.119 HD
ATOM     14  H   LIG    1       -4.243   0.039   0.711  0.00  0.00    +0.119 HD
ENDBRANCH  11  12
ENDBRANCH   1  11
TORSDOF 4
