REMARK  Name = molecules/QEFAQIPZVLVERP-UHFFFAOYSA-N.pdb
REMARK                            x       y       z     vdW  Elec       q    Type
REMARK                         _______ _______ _______ _____ _____    ______ ____
ROOT
ATOM      1  C   LIG    1       -2.241   0.196   0.705  0.00  0.00    -0.017 A 
ATOM      2  C   LIG    1       -2.018   1.579   0.946  0.00  0.00    +0.006 A 
ATOM      3  C   LIG    1       -0.743   2.076   0.841  0.00  0.00    +0.001 A 
ATOM      4  C   LIG    1        0.317   1.266   0.504  0.00  0.00    +0.013 A 
ATOM      5  C   LIG    1        0.122  -0.104   0.260  0.00  0.00    +0.043 A 
ATOM      6  C   LIG    1       -1.191  -0.586   0.380  0.00  0.00    +0.039 A 
ENDROOT
BRANCH   6   7
ATOM      7  N   LIG    1       -1.368  -2.000   0.263  0.00  0.00    -0.357 N 
ATOM      8  H   LIG    1       -0.594  -2.697   0.381  0.00  0.00    +0.142 HD
ATOM      9  H   LIG    1       -2.284  -2.438   0.064  0.00  0.00    +0.142 HD
ENDBRANCH   6   7
BRANCH   5  10
ATOM     10  C   LIG    1        1.180  -0.903  -0.262  0.00  0.00    +0.195 C 
ATOM     11  O   LIG    1        1.044  -2.052  -0.785  0.00  0.00    -0.287 OA
BRANCH  10  12
ATOM     12  C   LIG    1        2.595  -0.470  -0.255  0.00  0.00    +0.022 A 
ATOM     13  C   LIG    1        3.170   0.102   0.853  0.00  0.00    +0.012 A 
ATOM     14  C   LIG    1        4.514   0.408   0.824  0.00  0.00    +0.001 A 
ATOM     15  C   LIG    1        5.312   0.157  -0.299  0.00  0.00    +0.000 A 
ATOM     16  C   LIG    1        4.723  -0.418  -1.398  0.00  0.00    +0.001 A 
ATOM     17  C   LIG    1        3.383  -0.720  -1.357  0.00  0.00    +0.012 A 
ENDBRANCH  10  12
ENDBRANCH   5  10
BRANCH   1  18
ATOM     18  C   LIG    1       -3.645  -0.262   0.768  0.00  0.00    +0.132 C 
BRANCH  18  20
ATOM     19  N   LIG    1       -5.115   0.658  -1.124  0.00  0.00    -0.329 N 
ATOM     20  C   LIG    1       -4.313  -0.399  -0.536  0.00  0.00    +0.215 C 
ATOM     21  O   LIG    1       -4.209  -1.448  -1.206  0.00  0.00    -0.276 OA
ATOM     22  H   LIG    1       -5.083   1.617  -0.734  0.00  0.00    +0.145 HD
ATOM     23  H   LIG    1       -5.703   0.398  -1.940  0.00  0.00    +0.145 HD
ENDBRANCH  18  20
ENDBRANCH   1  18
TORSDOF 5
