REMARK  Name = molecules/QELSKZZBTMNZEB-UHFFFAOYSA-N.pdb
REMARK                            x       y       z     vdW  Elec       q    Type
REMARK                         _______ _______ _______ _____ _____    ______ ____
ROOT
ATOM      1  C   LIG    1       -1.247  -0.246   0.175  0.00  0.00    +0.059 A 
ATOM      2  C   LIG    1       -2.117   0.035   1.204  0.00  0.00    +0.018 A 
ATOM      3  C   LIG    1       -3.489   0.109   1.014  0.00  0.00    +0.046 A 
ATOM      4  C   LIG    1       -4.031  -0.103  -0.237  0.00  0.00    +0.117 A 
ATOM      5  C   LIG    1       -3.145  -0.384  -1.256  0.00  0.00    +0.046 A 
ATOM      6  C   LIG    1       -1.778  -0.458  -1.073  0.00  0.00    +0.018 A 
ENDROOT
BRANCH   1   7
ATOM      7  C   LIG    1        0.197  -0.311   0.435  0.00  0.00    +0.339 C 
ATOM      8  O   LIG    1        0.643  -0.110   1.594  0.00  0.00    -0.245 OA
BRANCH   7   9
ATOM      9  O   LIG    1        1.066  -0.593  -0.599  0.00  0.00    -0.461 OA
BRANCH   9  10
ATOM     10  C   LIG    1        2.457  -0.666  -0.415  0.00  0.00    +0.232 C 
BRANCH  10  11
ATOM     11  C   LIG    1        3.043   0.623   0.052  0.00  0.00    +0.038 C 
ATOM     12  C   LIG    1        4.542   0.544   0.247  0.00  0.00    +0.007 C 
ENDBRANCH  10  11
ENDBRANCH   9  10
ENDBRANCH   7   9
ENDBRANCH   1   7
BRANCH   4  13
ATOM     13  O   LIG    1       -5.412  -0.036  -0.460  0.00  0.00    -0.507 OA
ATOM     14  H   LIG    1       -5.811   0.863  -0.715  0.00  0.00    +0.292 HD
ENDBRANCH   4  13
TORSDOF 5
