REMARK  Name = molecules/QEVHRUUCFGRFIF-MDEJGZGSSA-N.pdb
REMARK                            x       y       z     vdW  Elec       q    Type
REMARK                         _______ _______ _______ _____ _____    ______ ____
ROOT
ATOM      1  C   LIG    1        0.369  -0.479  -1.462  0.00  0.00    +0.133 C 
ATOM      2  C   LIG    1        1.310  -0.956  -0.413  0.00  0.00    +0.012 C 
ATOM      3  C   LIG    1        0.547  -1.782   0.593  0.00  0.00    +0.011 C 
ATOM      4  C   LIG    1        1.420  -2.270   1.716  0.00  0.00    +0.089 C 
ATOM      5  N   LIG    1        2.791  -1.823   1.607  0.00  0.00    -0.293 NA
ATOM      6  C   LIG    1        2.923  -0.436   1.388  0.00  0.00    +0.104 C 
ATOM      7  C   LIG    1        4.336  -0.018   1.370  0.00  0.00    +0.038 A 
ATOM      8  N   LIG    1        5.011   1.067   1.859  0.00  0.00    -0.356 N 
ATOM      9  H   LIG    1        4.558   1.854   2.386  0.00  0.00    +0.166 HD
ATOM     10  C   LIG    1        6.322   0.976   1.568  0.00  0.00    +0.050 A 
ATOM     11  C   LIG    1        7.428   1.768   1.811  0.00  0.00    +0.071 A 
ATOM     12  C   LIG    1        8.675   1.396   1.372  0.00  0.00    +0.122 A 
ATOM     13  C   LIG    1        8.786   0.205   0.679  0.00  0.00    +0.046 A 
ATOM     14  C   LIG    1        7.707  -0.614   0.416  0.00  0.00    +0.014 A 
ATOM     15  C   LIG    1        6.469  -0.220   0.866  0.00  0.00    +0.003 A 
ATOM     16  C   LIG    1        5.249  -0.831   0.744  0.00  0.00    -0.016 A 
ATOM     17  C   LIG    1        4.744  -2.085   0.129  0.00  0.00    +0.053 C 
ATOM     18  C   LIG    1        3.646  -2.711   0.936  0.00  0.00    +0.090 C 
ATOM     19  C   LIG    1       -0.686  -1.081   1.126  0.00  0.00    +0.052 C 
ATOM     20  C   LIG    1       -1.577  -0.732  -0.046  0.00  0.00    +0.206 C 
ATOM     21  C   LIG    1        2.144   0.110   0.213  0.00  0.00    +0.030 C 
ATOM     22  C   LIG    1       -0.792   0.317  -0.850  0.00  0.00    +0.172 C 
ENDROOT
BRANCH   1  23
ATOM     23  C   LIG    1        0.976   0.224  -2.591  0.00  0.00    +0.313 C 
ATOM     24  O   LIG    1        2.193   0.448  -2.775  0.00  0.00    -0.250 OA
BRANCH  23  25
ATOM     25  O   LIG    1        0.113   0.701  -3.579  0.00  0.00    -0.468 OA
ATOM     26  C   LIG    1        0.631   1.403  -4.722  0.00  0.00    +0.280 C 
ENDBRANCH  23  25
ENDBRANCH   1  23
BRANCH  12  27
ATOM     27  O   LIG    1        9.809   2.195   1.614  0.00  0.00    -0.495 OA
ATOM     28  C   LIG    1       11.072   1.792   1.154  0.00  0.00    +0.277 C 
ENDBRANCH  12  27
BRANCH  22  29
ATOM     29  O   LIG    1       -1.554   0.846  -1.863  0.00  0.00    -0.375 OA
ATOM     30  C   LIG    1       -1.666   2.221  -1.641  0.00  0.00    +0.194 C 
ENDBRANCH  22  29
BRANCH  20  31
ATOM     31  O   LIG    1       -2.845  -0.280   0.294  0.00  0.00    -0.455 OA
BRANCH  31  32
ATOM     32  C   LIG    1       -3.962  -0.951  -0.172  0.00  0.00    +0.340 C 
ATOM     33  O   LIG    1       -3.784  -1.963  -0.898  0.00  0.00    -0.245 OA
BRANCH  32  34
ATOM     34  C   LIG    1       -5.320  -0.555   0.127  0.00  0.00    +0.066 A 
ATOM     35  C   LIG    1       -5.544   0.544   0.919  0.00  0.00    +0.064 A 
ATOM     36  C   LIG    1       -6.839   0.968   1.236  0.00  0.00    +0.166 A 
ATOM     37  C   LIG    1       -7.891   0.235   0.720  0.00  0.00    +0.204 A 
ATOM     38  C   LIG    1       -7.702  -0.869  -0.074  0.00  0.00    +0.166 A 
ATOM     39  C   LIG    1       -6.396  -1.248  -0.359  0.00  0.00    +0.064 A 
BRANCH  36  40
ATOM     40  O   LIG    1       -7.074   2.075   2.032  0.00  0.00    -0.491 OA
ATOM     41  C   LIG    1       -6.003   2.823   2.558  0.00  0.00    +0.277 C 
ENDBRANCH  36  40
BRANCH  37  42
ATOM     42  O   LIG    1       -9.185   0.631   1.017  0.00  0.00    -0.488 OA
ATOM     43  C   LIG    1       -9.873   1.556   0.172  0.00  0.00    +0.277 C 
ENDBRANCH  37  42
BRANCH  38  44
ATOM     44  O   LIG    1       -8.791  -1.559  -0.559  0.00  0.00    -0.491 OA
ATOM     45  C   LIG    1       -8.686  -2.694  -1.375  0.00  0.00    +0.277 C 
ENDBRANCH  38  44
ENDBRANCH  32  34
ENDBRANCH  31  32
ENDBRANCH  20  31
TORSDOF 10
