REMARK  Name = molecules/QFFGVLORLPOAEC-SNVBAGLBSA-N.pdb
REMARK                            x       y       z     vdW  Elec       q    Type
REMARK                         _______ _______ _______ _____ _____    ______ ____
ROOT
ATOM      1 CL   LIG    1        0.170  -1.538   1.109  0.00  0.00    -0.079 Cl
ATOM      2  C   LIG    1        0.517  -0.115   0.190  0.00  0.00    +0.089 A 
ATOM      3  C   LIG    1        1.819   0.327   0.070  0.00  0.00    +0.074 A 
ATOM      4  N   LIG    1        2.833  -0.363   0.660  0.00  0.00    -0.341 N 
ATOM      5  C   LIG    1        4.080   0.126   0.516  0.00  0.00    +0.105 A 
ATOM      6  C   LIG    1        4.359   1.272  -0.193  0.00  0.00    +0.122 A 
ATOM      7  C   LIG    1        3.324   1.953  -0.782  0.00  0.00    +0.203 A 
ATOM      8  O   LIG    1        3.498   3.013  -1.450  0.00  0.00    -0.286 OA
ATOM      9  C   LIG    1        2.026   1.487  -0.659  0.00  0.00    +0.050 A 
ATOM     10  C   LIG    1        0.984   2.204  -1.262  0.00  0.00    +0.054 A 
ATOM     11  C   LIG    1       -0.287   1.704  -1.102  0.00  0.00    +0.147 A 
ATOM     12  F   LIG    1       -1.301   2.373  -1.671  0.00  0.00    -0.203 F 
ATOM     13  C   LIG    1       -0.555   0.572  -0.398  0.00  0.00    +0.086 A 
ENDROOT
BRANCH  13  14
ATOM     14  N   LIG    1       -1.860   0.062  -0.236  0.00  0.00    -0.325 N 
ATOM     15  C   LIG    1       -2.580   0.552   0.933  0.00  0.00    +0.123 C 
ATOM     16  C   LIG    1       -4.037   0.800   0.615  0.00  0.00    +0.068 C 
ATOM     17  C   LIG    1       -4.810  -0.472   0.781  0.00  0.00    +0.020 C 
ATOM     18  C   LIG    1       -4.749  -1.217  -0.546  0.00  0.00    +0.003 C 
ATOM     19  C   LIG    1       -3.364  -1.832  -0.639  0.00  0.00    +0.019 C 
ATOM     20  C   LIG    1       -2.353  -0.879  -1.221  0.00  0.00    +0.105 C 
BRANCH  16  21
ATOM     21  N   LIG    1       -4.529   1.857   1.469  0.00  0.00    -0.326 NA
ATOM     22  H   LIG    1       -3.838   2.640   1.488  0.00  0.00    +0.119 HD
ATOM     23  H   LIG    1       -5.422   2.279   1.101  0.00  0.00    +0.119 HD
ENDBRANCH  16  21
ENDBRANCH  13  14
BRANCH   4  24
ATOM     24  C   LIG    1        2.616  -1.594   1.407  0.00  0.00    +0.087 C 
ATOM     25  C   LIG    1        3.893  -2.477   1.474  0.00  0.00    +0.027 C 
ATOM     26  C   LIG    1        2.660  -2.925   0.786  0.00  0.00    +0.027 C 
ENDBRANCH   4  24
BRANCH   6  27
ATOM     27  C   LIG    1        5.739   1.770  -0.325  0.00  0.00    +0.342 C 
ATOM     28  O   LIG    1        6.692   1.171   0.200  0.00  0.00    -0.245 OA
BRANCH  27  29
ATOM     29  O   LIG    1        6.011   2.927  -1.041  0.00  0.00    -0.477 OA
ATOM     30  H   LIG    1        6.594   2.939  -1.869  0.00  0.00    +0.295 HD
ENDBRANCH  27  29
ENDBRANCH   6  27
TORSDOF 5
