REMARK  Name = molecules/QFLZIWVSQDZLNW-CYBMUJFWSA-N.pdb
REMARK                            x       y       z     vdW  Elec       q    Type
REMARK                         _______ _______ _______ _____ _____    ______ ____
ROOT
ATOM      1 BR   LIG    1        5.828  -1.555   0.975  0.00  0.00    -0.050 Br
ATOM      2  C   LIG    1        4.208  -0.760   0.329  0.00  0.00    +0.019 A 
ATOM      3  C   LIG    1        3.067  -0.869   1.084  0.00  0.00    +0.027 A 
ATOM      4  C   LIG    1        1.890  -0.295   0.621  0.00  0.00    +0.030 A 
ATOM      5  C   LIG    1        0.568  -0.276   1.236  0.00  0.00    +0.179 C 
ATOM      6  O   LIG    1        0.199  -1.016   2.179  0.00  0.00    -0.291 OA
ATOM      7  C   LIG    1       -0.248   0.768   0.548  0.00  0.00    +0.161 C 
ATOM      8  C   LIG    1        0.434   0.858  -0.754  0.00  0.00    +0.179 C 
ATOM      9  O   LIG    1       -0.012   1.256  -1.864  0.00  0.00    -0.291 OA
ATOM     10  C   LIG    1        1.800   0.387  -0.570  0.00  0.00    +0.029 A 
ATOM     11  C   LIG    1        2.970   0.481  -1.313  0.00  0.00    +0.013 A 
ATOM     12  C   LIG    1        4.149  -0.083  -0.870  0.00  0.00    +0.016 A 
ENDROOT
BRANCH   7  13
ATOM     13  C   LIG    1       -1.663   0.390   0.446  0.00  0.00    -0.029 A 
ATOM     14  C   LIG    1       -2.658   1.197   0.957  0.00  0.00    +0.005 A 
ATOM     15  C   LIG    1       -3.999   0.859   0.871  0.00  0.00    +0.000 A 
ATOM     16  C   LIG    1       -4.378  -0.316   0.259  0.00  0.00    +0.000 A 
ATOM     17  C   LIG    1       -3.399  -1.138  -0.259  0.00  0.00    +0.000 A 
ATOM     18  C   LIG    1       -2.050  -0.780  -0.163  0.00  0.00    +0.005 A 
ENDBRANCH   7  13
TORSDOF 1
