REMARK  Name = molecules/QFVHZQCOUORWEI-ZQHSETAFSA-N.pdb
REMARK                            x       y       z     vdW  Elec       q    Type
REMARK                         _______ _______ _______ _____ _____    ______ ____
ROOT
ATOM      1  N   LIG    1       -0.803  -0.148  -1.369  0.00  0.00    -0.149 NA
ATOM      2  N   LIG    1       -1.547  -0.143  -0.366  0.00  0.00    -0.148 NA
ENDROOT
BRANCH   1  10
ATOM      3  C   LIG    1        3.416  -0.311  -0.909  0.00  0.00    +0.041 A 
ATOM      4  C   LIG    1        2.656  -1.413  -0.712  0.00  0.00    +0.033 A 
ATOM      5  C   LIG    1        3.273  -2.587  -0.289  0.00  0.00    +0.126 A 
ATOM      6  C   LIG    1        2.370  -3.651  -0.047  0.00  0.00    +0.030 A 
ATOM      7  C   LIG    1        1.035  -3.592  -0.196  0.00  0.00    +0.003 A 
ATOM      8  C   LIG    1        0.460  -2.438  -0.609  0.00  0.00    +0.011 A 
ATOM      9  C   LIG    1        1.282  -1.342  -0.865  0.00  0.00    +0.013 A 
ATOM     10  C   LIG    1        0.639  -0.175  -1.217  0.00  0.00    +0.094 A 
ATOM     11  C   LIG    1        1.379   0.958  -1.422  0.00  0.00    +0.032 A 
ATOM     12  C   LIG    1        2.729   0.880  -1.269  0.00  0.00    +0.026 A 
BRANCH   5  13
ATOM     13  S   LIG    1        4.949  -2.846  -0.097  0.00  0.00    +0.110 S 
ATOM     14  O   LIG    1        5.610  -2.027   0.975  0.00  0.00    -0.142 OA
ATOM     15  O   LIG    1        5.108  -4.215   0.560  0.00  0.00    -0.142 OA
BRANCH  13  16
ATOM     16  O   LIG    1        5.861  -3.105  -1.465  0.00  0.00    -0.250 OA
ATOM     17  H   LIG    1        5.243  -3.196  -2.228  0.00  0.00    +0.245 HD
ENDBRANCH  13  16
ENDBRANCH   5  13
BRANCH   3  18
ATOM     18  N   LIG    1        4.801  -0.229  -0.938  0.00  0.00    -0.314 N 
ATOM     19  H   LIG    1        5.389  -0.903  -1.292  0.00  0.00    +0.152 HD
BRANCH  18  20
ATOM     20  C   LIG    1        5.407   0.986  -0.528  0.00  0.00    +0.031 A 
ATOM     21  C   LIG    1        4.866   1.884   0.368  0.00  0.00    +0.023 A 
ATOM     22  C   LIG    1        5.545   3.026   0.741  0.00  0.00    +0.002 A 
ATOM     23  C   LIG    1        6.793   3.320   0.234  0.00  0.00    +0.000 A 
ATOM     24  C   LIG    1        7.356   2.441  -0.663  0.00  0.00    +0.002 A 
ATOM     25  C   LIG    1        6.656   1.315  -1.012  0.00  0.00    +0.023 A 
ENDBRANCH  18  20
ENDBRANCH   3  18
ENDBRANCH   1  10
BRANCH   2  26
ATOM     26  C   LIG    1       -2.986  -0.117  -0.460  0.00  0.00    +0.099 A 
ATOM     27  C   LIG    1       -3.758   0.349   0.584  0.00  0.00    +0.051 A 
ATOM     28  C   LIG    1       -3.138   0.797   1.735  0.00  0.00    +0.129 A 
ATOM     29  C   LIG    1       -3.885   1.269   2.795  0.00  0.00    +0.075 A 
ATOM     30  C   LIG    1       -5.264   1.318   2.765  0.00  0.00    +0.121 A 
ATOM     31  C   LIG    1       -5.884   0.872   1.617  0.00  0.00    +0.038 A 
ATOM     32  C   LIG    1       -5.137   0.397   0.550  0.00  0.00    -0.009 A 
ATOM     33  C   LIG    1       -5.766  -0.051  -0.605  0.00  0.00    +0.038 A 
ATOM     34  C   LIG    1       -5.025  -0.524  -1.667  0.00  0.00    +0.120 A 
ATOM     35  C   LIG    1       -3.636  -0.555  -1.592  0.00  0.00    +0.059 A 
BRANCH  30  36
ATOM     36  S   LIG    1       -6.187   1.925   4.132  0.00  0.00    +0.110 S 
ATOM     37  O   LIG    1       -5.341   2.942   4.824  0.00  0.00    -0.142 OA
ATOM     38  O   LIG    1       -7.409   2.622   3.613  0.00  0.00    -0.142 OA
BRANCH  36  39
ATOM     39  O   LIG    1       -6.556   0.686   5.177  0.00  0.00    -0.250 OA
ATOM     40  H   LIG    1       -5.898   0.682   5.912  0.00  0.00    +0.245 HD
ENDBRANCH  36  39
ENDBRANCH  30  36
BRANCH  34  41
ATOM     41  S   LIG    1       -5.857  -1.078  -3.099  0.00  0.00    +0.110 S 
ATOM     42  O   LIG    1       -7.234  -1.570  -2.691  0.00  0.00    -0.142 OA
ATOM     43  O   LIG    1       -5.093  -2.179  -3.763  0.00  0.00    -0.142 OA
BRANCH  41  44
ATOM     44  O   LIG    1       -6.093   0.151  -4.206  0.00  0.00    -0.250 OA
ATOM     45  H   LIG    1       -5.818   1.032  -3.858  0.00  0.00    +0.245 HD
ENDBRANCH  41  44
ENDBRANCH  34  41
BRANCH  28  46
ATOM     46  O   LIG    1       -1.743   0.750   1.773  0.00  0.00    -0.506 OA
ATOM     47  H   LIG    1       -1.201   1.049   2.555  0.00  0.00    +0.292 HD
ENDBRANCH  28  46
ENDBRANCH   2  26
TORSDOF 11
