REMARK  Name = molecules/QFWPJPIVLCBXFJ-UHFFFAOYSA-N.pdb
REMARK                            x       y       z     vdW  Elec       q    Type
REMARK                         _______ _______ _______ _____ _____    ______ ____
ROOT
ATOM      1  N   LIG    1       -2.290  -2.337  -0.719  0.00  0.00    -0.184 N 
ATOM      2  H   LIG    1       -2.453  -3.332  -0.419  0.00  0.00    +0.177 HD
ENDROOT
BRANCH   1   3
ATOM      3  C   LIG    1       -1.040  -1.714  -0.489  0.00  0.00    +0.235 A 
ATOM      4  N   LIG    1       -0.026  -2.374   0.121  0.00  0.00    -0.218 NA
ATOM      5  C   LIG    1        1.178  -1.817   0.358  0.00  0.00    +0.161 A 
ATOM      6  C   LIG    1        1.400  -0.515  -0.033  0.00  0.00    +0.157 A 
ATOM      7  C   LIG    1        0.386   0.177  -0.655  0.00  0.00    +0.161 A 
ATOM      8  N   LIG    1       -0.799  -0.452  -0.859  0.00  0.00    -0.218 NA
BRANCH   6   9
ATOM      9  O   LIG    1        2.628   0.064   0.205  0.00  0.00    -0.487 OA
BRANCH   9  10
ATOM     10  C   LIG    1        3.689  -0.621   0.841  0.00  0.00    +0.257 C 
BRANCH  10  11
ATOM     11  C   LIG    1        4.909   0.268   0.964  0.00  0.00    +0.200 C 
BRANCH  11  12
ATOM     12  O   LIG    1        5.313   0.653  -0.335  0.00  0.00    -0.380 OA
ATOM     13  C   LIG    1        6.441   1.472  -0.173  0.00  0.00    +0.194 C 
ENDBRANCH  11  12
ENDBRANCH  10  11
ENDBRANCH   9  10
ENDBRANCH   6   9
ENDBRANCH   1   3
BRANCH   1  14
ATOM     14  S   LIG    1       -3.579  -1.499  -1.492  0.00  0.00    +0.075 S 
ATOM     15  O   LIG    1       -4.762  -2.399  -1.708  0.00  0.00    -0.150 OA
ATOM     16  O   LIG    1       -3.140  -0.970  -2.849  0.00  0.00    -0.150 OA
BRANCH  14  17
ATOM     17  C   LIG    1       -4.003  -0.127  -0.506  0.00  0.00    +0.109 A 
ATOM     18  C   LIG    1       -4.846  -0.205   0.588  0.00  0.00    +0.029 A 
ATOM     19  C   LIG    1       -5.170   0.902   1.341  0.00  0.00    +0.002 A 
ATOM     20  C   LIG    1       -4.659   2.140   1.026  0.00  0.00    +0.000 A 
ATOM     21  C   LIG    1       -3.821   2.237  -0.056  0.00  0.00    +0.002 A 
ATOM     22  C   LIG    1       -3.503   1.120  -0.804  0.00  0.00    +0.029 A 
ENDBRANCH  14  17
ENDBRANCH   1  14
TORSDOF 7
