REMARK  Name = molecules/QGFORSXNKQLDNO-RXMQYKEDSA-N.pdb
REMARK                            x       y       z     vdW  Elec       q    Type
REMARK                         _______ _______ _______ _____ _____    ______ ____
ROOT
ATOM      1  N   LIG    1       -0.813   1.153  -0.308  0.00  0.00    -0.304 N 
ATOM      2  C   LIG    1        0.323   0.326  -0.483  0.00  0.00    +0.223 C 
ATOM      3  O   LIG    1        0.299  -0.881  -0.151  0.00  0.00    -0.275 OA
ATOM      4  H   LIG    1       -0.782   2.151  -0.585  0.00  0.00    +0.149 HD
ENDROOT
BRANCH   1   5
ATOM      5  C   LIG    1       -2.014   0.620   0.254  0.00  0.00    +0.151 C 
ATOM      6  C   LIG    1       -2.470   1.326   1.467  0.00  0.00    +0.209 C 
ATOM      7  O   LIG    1       -1.804   1.924   2.248  0.00  0.00    -0.283 OA
ATOM      8  S   LIG    1       -4.237   1.088   1.507  0.00  0.00    -0.086 S 
ATOM      9  C   LIG    1       -4.379   0.198  -0.104  0.00  0.00    +0.079 C 
ATOM     10  C   LIG    1       -3.109   0.703  -0.776  0.00  0.00    +0.042 C 
ENDBRANCH   1   5
BRANCH   2  11
ATOM     11  C   LIG    1        1.598   0.851  -1.069  0.00  0.00    +0.165 C 
BRANCH  11  12
ATOM     12  S   LIG    1        2.852  -0.445  -1.158  0.00  0.00    -0.140 S 
BRANCH  12  13
ATOM     13  C   LIG    1        3.367  -0.977   0.504  0.00  0.00    +0.189 C 
BRANCH  13  14
ATOM     14  C   LIG    1        4.382  -2.032   0.434  0.00  0.00    +0.315 C 
ATOM     15  O   LIG    1        4.837  -2.501   1.497  0.00  0.00    -0.250 OA
BRANCH  14  16
ATOM     16  O   LIG    1        4.872  -2.544  -0.761  0.00  0.00    -0.480 OA
ATOM     17  H   LIG    1        5.188  -3.498  -0.803  0.00  0.00    +0.295 HD
ENDBRANCH  14  16
ENDBRANCH  13  14
ENDBRANCH  12  13
ENDBRANCH  11  12
ENDBRANCH   2  11
TORSDOF 6
