REMARK  Name = molecules/QGJUIPDUBHWZPV-YQBUGCKMSA-N.pdb
REMARK                            x       y       z     vdW  Elec       q    Type
REMARK                         _______ _______ _______ _____ _____    ______ ____
ROOT
ATOM      1  C   LIG    1        0.405   0.004  -1.030  0.00  0.00    +0.144 C 
ENDROOT
BRANCH   1   2
ATOM      2  C   LIG    1       -0.949   0.108  -0.423  0.00  0.00    -0.002 C 
ATOM      3  C   LIG    1       -0.908  -0.446   0.982  0.00  0.00    +0.012 C 
ATOM      4  C   LIG    1       -2.293  -0.540   1.589  0.00  0.00    -0.007 C 
ATOM      5  C   LIG    1       -2.819   0.878   1.697  0.00  0.00    +0.038 C 
ATOM      6  C   LIG    1       -2.861   1.452   0.319  0.00  0.00    +0.067 C 
ATOM      7  C   LIG    1       -3.856   0.671  -0.499  0.00  0.00    +0.038 C 
ATOM      8  C   LIG    1       -3.302  -0.728  -0.679  0.00  0.00    -0.007 C 
ATOM      9  C   LIG    1       -3.155  -1.363   0.679  0.00  0.00    +0.007 C 
ATOM     10  C   LIG    1       -1.482   1.510  -0.329  0.00  0.00    +0.043 C 
ATOM     11  C   LIG    1       -1.926  -0.653  -1.295  0.00  0.00    +0.012 C 
BRANCH   6  12
ATOM     12  O   LIG    1       -3.300   2.783   0.419  0.00  0.00    -0.389 OA
ATOM     13  H   LIG    1       -3.878   2.916   1.208  0.00  0.00    +0.210 HD
ENDBRANCH   6  12
ENDBRANCH   1   2
BRANCH   1  14
ATOM     14  C   LIG    1        1.443   0.832  -0.404  0.00  0.00    +0.234 C 
ATOM     15  N   LIG    1        2.623   0.234   0.071  0.00  0.00    -0.281 N 
ATOM     16  C   LIG    1        3.730   0.904   0.695  0.00  0.00    +0.179 C 
ATOM     17  C   LIG    1        4.945   0.032   0.463  0.00  0.00    +0.043 C 
ATOM     18  C   LIG    1        4.402  -1.319   0.151  0.00  0.00    +0.014 C 
ATOM     19  C   LIG    1        3.756  -1.660  -1.127  0.00  0.00    +0.028 C 
ATOM     20  C   LIG    1        2.930  -1.179   0.008  0.00  0.00    +0.081 C 
ATOM     21  O   LIG    1        1.345   2.082  -0.257  0.00  0.00    -0.274 OA
BRANCH  16  22
ATOM     22  C   LIG    1        3.881   2.229   0.086  0.00  0.00    +0.085 C 
ATOM     23  N   LIG    1        3.984   3.277  -0.387  0.00  0.00    -0.195 NA
ENDBRANCH  16  22
ENDBRANCH   1  14
BRANCH   1  24
ATOM     24  N   LIG    1        0.883  -1.355  -1.110  0.00  0.00    -0.319 NA
ATOM     25  H   LIG    1        0.206  -2.016  -0.725  0.00  0.00    +0.119 HD
ATOM     26  H   LIG    1        1.038  -1.678  -2.113  0.00  0.00    +0.119 HD
ENDBRANCH   1  24
TORSDOF 5
