REMARK  Name = molecules/QGPKADBNRMWEQR-QMMMGPOBSA-N.pdb
REMARK                            x       y       z     vdW  Elec       q    Type
REMARK                         _______ _______ _______ _____ _____    ______ ____
ROOT
ATOM      1 CL   LIG    1       -0.517   1.654   0.083  0.00  0.00    -0.079 Cl
ATOM      2  C   LIG    1       -0.111  -0.014  -0.091  0.00  0.00    +0.089 A 
ATOM      3  C   LIG    1        1.211  -0.372   0.062  0.00  0.00    +0.074 A 
ATOM      4  N   LIG    1        2.125   0.586   0.280  0.00  0.00    -0.341 N 
ATOM      5  C   LIG    1        3.415   0.170   0.437  0.00  0.00    +0.105 A 
ATOM      6  C   LIG    1        3.792  -1.149   0.378  0.00  0.00    +0.122 A 
ATOM      7  C   LIG    1        2.855  -2.118   0.153  0.00  0.00    +0.203 A 
ATOM      8  O   LIG    1        3.127  -3.353   0.084  0.00  0.00    -0.286 OA
ATOM      9  C   LIG    1        1.555  -1.713  -0.005  0.00  0.00    +0.050 A 
ATOM     10  C   LIG    1        0.576  -2.644  -0.224  0.00  0.00    +0.054 A 
ATOM     11  C   LIG    1       -0.753  -2.242  -0.376  0.00  0.00    +0.147 A 
ATOM     12  F   LIG    1       -1.615  -3.254  -0.604  0.00  0.00    -0.203 F 
ATOM     13  C   LIG    1       -1.152  -0.926  -0.317  0.00  0.00    +0.086 A 
ENDROOT
BRANCH  13  14
ATOM     14  N   LIG    1       -2.493  -0.544  -0.521  0.00  0.00    -0.325 N 
ATOM     15  C   LIG    1       -3.638  -1.439  -0.593  0.00  0.00    +0.107 C 
ATOM     16  C   LIG    1       -4.531  -0.815   0.511  0.00  0.00    +0.039 C 
ATOM     17  C   LIG    1       -4.090   0.654   0.542  0.00  0.00    +0.069 C 
ATOM     18  C   LIG    1       -3.167   0.725  -0.659  0.00  0.00    +0.123 C 
BRANCH  17  19
ATOM     19  N   LIG    1       -5.274   1.446   0.369  0.00  0.00    -0.326 NA
ATOM     20  H   LIG    1       -5.976   1.153   1.065  0.00  0.00    +0.119 HD
ATOM     21  H   LIG    1       -5.080   2.451   0.317  0.00  0.00    +0.119 HD
ENDBRANCH  17  19
ENDBRANCH  13  14
BRANCH   4  22
ATOM     22  C   LIG    1        1.843   2.016   0.330  0.00  0.00    +0.087 C 
ATOM     23  C   LIG    1        3.090   2.869  -0.063  0.00  0.00    +0.027 C 
ATOM     24  C   LIG    1        1.843   2.882  -0.851  0.00  0.00    +0.027 C 
ENDBRANCH   4  22
BRANCH   6  25
ATOM     25  C   LIG    1        5.187  -1.517   0.554  0.00  0.00    +0.342 C 
ATOM     26  O   LIG    1        5.518  -2.715   0.499  0.00  0.00    -0.245 OA
BRANCH  25  27
ATOM     27  O   LIG    1        6.140  -0.530   0.783  0.00  0.00    -0.477 OA
ATOM     28  H   LIG    1        6.713  -0.237  -0.018  0.00  0.00    +0.295 HD
ENDBRANCH  25  27
ENDBRANCH   6  25
TORSDOF 5
