REMARK  Name = molecules/QHMWCHQXCUNUAK-QFIPXVFZSA-N.pdb
REMARK                            x       y       z     vdW  Elec       q    Type
REMARK                         _______ _______ _______ _____ _____    ______ ____
ROOT
ATOM      1  C   LIG    1        0.018  -0.083  -0.323  0.00  0.00    +0.125 C 
ENDROOT
BRANCH   1   2
ATOM      2  C   LIG    1        1.368  -0.382   0.217  0.00  0.00    -0.013 A 
ATOM      3  C   LIG    1        2.171   0.525   0.870  0.00  0.00    +0.009 A 
ATOM      4  C   LIG    1        3.444   0.210   1.345  0.00  0.00    +0.039 A 
ATOM      5  C   LIG    1        3.940  -1.063   1.162  0.00  0.00    +0.123 A 
ATOM      6  F   LIG    1        5.184  -1.411   1.614  0.00  0.00    -0.205 F 
ATOM      7  C   LIG    1        3.173  -1.995   0.517  0.00  0.00    +0.039 A 
ATOM      8  C   LIG    1        1.935  -1.652   0.066  0.00  0.00    +0.009 A 
ENDBRANCH   1   2
BRANCH   1   9
ATOM      9  C   LIG    1       -0.356   1.288   0.151  0.00  0.00    +0.022 A 
ATOM     10  C   LIG    1       -0.424   1.498   1.535  0.00  0.00    +0.129 A 
ATOM     11  F   LIG    1       -0.151   0.502   2.429  0.00  0.00    -0.205 F 
ATOM     12  C   LIG    1       -0.780   2.733   1.988  0.00  0.00    +0.039 A 
ATOM     13  C   LIG    1       -1.071   3.762   1.128  0.00  0.00    +0.003 A 
ATOM     14  C   LIG    1       -1.003   3.548  -0.225  0.00  0.00    +0.001 A 
ATOM     15  C   LIG    1       -0.644   2.304  -0.711  0.00  0.00    +0.009 A 
ENDBRANCH   1   9
BRANCH   1  16
ATOM     16  C   LIG    1       -1.060  -0.974   0.175  0.00  0.00    -0.013 A 
ATOM     17  C   LIG    1       -0.836  -1.946   1.107  0.00  0.00    +0.006 A 
ATOM     18  C   LIG    1       -1.897  -2.726   1.542  0.00  0.00    +0.000 A 
ATOM     19  C   LIG    1       -3.157  -2.533   1.051  0.00  0.00    +0.000 A 
ATOM     20  C   LIG    1       -3.396  -1.555   0.110  0.00  0.00    +0.000 A 
ATOM     21  C   LIG    1       -2.341  -0.784  -0.318  0.00  0.00    +0.006 A 
ENDBRANCH   1  16
BRANCH   1  22
ATOM     22  N   LIG    1        0.042  -0.120  -1.756  0.00  0.00    -0.319 N 
ATOM     23  C   LIG    1       -0.677  -0.921  -2.544  0.00  0.00    +0.200 A 
ATOM     24  N   LIG    1       -0.359  -0.691  -3.856  0.00  0.00    -0.244 NA
ATOM     25  C   LIG    1        0.579   0.271  -3.896  0.00  0.00    +0.130 A 
ATOM     26  C   LIG    1        0.818   0.616  -2.600  0.00  0.00    +0.108 A 
ENDBRANCH   1  22
TORSDOF 4
