REMARK  Name = molecules/QIALRBLEEWJACW-INIZCTEOSA-N.pdb
REMARK                            x       y       z     vdW  Elec       q    Type
REMARK                         _______ _______ _______ _____ _____    ______ ____
ROOT
ATOM      1  C   LIG    1        1.344   0.432   0.098  0.00  0.00    +0.213 C 
ATOM      2  C   LIG    1        0.852  -0.923  -0.234  0.00  0.00    +0.015 A 
ATOM      3  C   LIG    1       -0.459  -1.408  -0.161  0.00  0.00    +0.049 A 
ATOM      4  N   LIG    1       -1.602  -0.610   0.245  0.00  0.00    -0.224 N 
ATOM      5  C   LIG    1       -2.472  -1.224   1.128  0.00  0.00    +0.308 C 
ATOM      6  N   LIG    1       -3.648  -0.696   1.737  0.00  0.00    -0.313 N 
ATOM      7  H   LIG    1       -3.587   0.166   2.296  0.00  0.00    +0.147 HD
ATOM      8  H   LIG    1       -4.566  -1.169   1.639  0.00  0.00    +0.147 HD
ATOM      9  O   LIG    1       -2.228  -2.440   1.492  0.00  0.00    -0.252 OA
ATOM     10  C   LIG    1       -1.786   0.737  -0.231  0.00  0.00    +0.046 A 
ATOM     11  C   LIG    1       -3.103   1.038  -0.241  0.00  0.00    +0.024 A 
ATOM     12  C   LIG    1       -3.471   2.305  -0.624  0.00  0.00    +0.002 A 
ATOM     13  C   LIG    1       -2.510   3.234  -0.989  0.00  0.00    +0.000 A 
ATOM     14  C   LIG    1       -1.199   2.877  -0.964  0.00  0.00    +0.005 A 
ATOM     15  C   LIG    1       -0.751   1.600  -0.583  0.00  0.00    -0.022 A 
ATOM     16  C   LIG    1       -0.805  -2.695  -0.457  0.00  0.00    +0.024 A 
ATOM     17  C   LIG    1        0.183  -3.583  -0.854  0.00  0.00    +0.002 A 
ATOM     18  C   LIG    1        1.494  -3.117  -0.933  0.00  0.00    +0.000 A 
ATOM     19  C   LIG    1        1.837  -1.825  -0.636  0.00  0.00    +0.009 A 
ATOM     20  C   LIG    1        0.706   1.478  -0.719  0.00  0.00    +0.086 C 
ENDROOT
BRANCH   1  21
ATOM     21  O   LIG    1        2.753   0.387  -0.040  0.00  0.00    -0.456 OA
BRANCH  21  22
ATOM     22  C   LIG    1        3.622   0.523   1.028  0.00  0.00    +0.305 C 
ATOM     23  O   LIG    1        3.111   0.694   2.161  0.00  0.00    -0.251 OA
ATOM     24  C   LIG    1        5.090   0.479   0.906  0.00  0.00    +0.136 C 
ENDBRANCH  21  22
ENDBRANCH   1  21
TORSDOF 2
