REMARK  Name = molecules/QIFJTEYRIMDFPK-UHFFFAOYSA-N.pdb
REMARK                            x       y       z     vdW  Elec       q    Type
REMARK                         _______ _______ _______ _____ _____    ______ ____
ROOT
ATOM      1  C   LIG    1       -1.758  -0.398  -0.457  0.00  0.00    +0.064 A 
ATOM      2  C   LIG    1       -2.376  -0.133   0.744  0.00  0.00    +0.057 A 
ATOM      3  I   LIG    1       -1.421  -0.556   2.589  0.00  0.00    -0.040 I 
ATOM      4  C   LIG    1       -3.653   0.424   0.772  0.00  0.00    +0.053 A 
ATOM      5  C   LIG    1       -4.335   0.727  -0.381  0.00  0.00    +0.036 A 
ATOM      6  I   LIG    1       -6.284   1.572  -0.355  0.00  0.00    -0.042 I 
ATOM      7  C   LIG    1       -3.717   0.463  -1.587  0.00  0.00    +0.032 A 
ATOM      8  C   LIG    1       -2.460  -0.086  -1.607  0.00  0.00    +0.037 A 
ATOM      9  I   LIG    1       -1.567  -0.462  -3.473  0.00  0.00    -0.042 I 
ENDROOT
BRANCH   1  10
ATOM     10  N   LIG    1       -0.451  -0.968  -0.508  0.00  0.00    -0.273 N 
ATOM     11  C   LIG    1       -0.284  -2.432  -0.468  0.00  0.00    +0.138 C 
ATOM     12  C   LIG    1        0.727  -0.174  -0.596  0.00  0.00    +0.220 C 
ATOM     13  O   LIG    1        0.547   1.086  -0.579  0.00  0.00    -0.275 OA
BRANCH  12  14
ATOM     14  C   LIG    1        2.054  -0.802  -0.702  0.00  0.00    +0.097 C 
BRANCH  14  15
ATOM     15  C   LIG    1        3.206   0.127  -0.652  0.00  0.00    +0.020 C 
BRANCH  15  16
ATOM     16  C   LIG    1        3.243   0.859   0.674  0.00  0.00    +0.121 C 
BRANCH  16  17
ATOM     17  C   LIG    1        4.419   1.788   0.678  0.00  0.00    +0.305 C 
ATOM     18  O   LIG    1        4.584   2.645  -0.244  0.00  0.00    -0.251 OA
BRANCH  17  19
ATOM     19  O   LIG    1        5.342   1.706   1.708  0.00  0.00    -0.481 OA
ATOM     20  H   LIG    1        5.110   1.130   2.518  0.00  0.00    +0.295 HD
ENDBRANCH  17  19
ENDBRANCH  16  17
ENDBRANCH  15  16
ENDBRANCH  14  15
ENDBRANCH  12  14
ENDBRANCH   1  10
BRANCH   4  21
ATOM     21  N   LIG    1       -4.281   0.690   2.014  0.00  0.00    -0.356 N 
ATOM     22  H   LIG    1       -4.460  -0.127   2.636  0.00  0.00    +0.142 HD
ATOM     23  H   LIG    1       -4.554   1.654   2.304  0.00  0.00    +0.142 HD
ENDBRANCH   4  21
TORSDOF 7
