REMARK  Name = molecules/QIQXTHQIDYTFRH-UHFFFAOYSA-N.pdb
REMARK                            x       y       z     vdW  Elec       q    Type
REMARK                         _______ _______ _______ _____ _____    ______ ____
ROOT
ATOM      1  C   LIG    1       -1.266   1.796   0.789  0.00  0.00    -0.000 C 
ENDROOT
BRANCH   1   2
ATOM      2  C   LIG    1       -2.328   2.345  -0.104  0.00  0.00    +0.000 C 
BRANCH   2   3
ATOM      3  C   LIG    1       -3.281   1.251  -0.557  0.00  0.00    +0.000 C 
BRANCH   3   4
ATOM      4  C   LIG    1       -3.948   0.617   0.635  0.00  0.00    +0.000 C 
BRANCH   4   5
ATOM      5  C   LIG    1       -4.867  -0.478   0.171  0.00  0.00    +0.001 C 
BRANCH   5   6
ATOM      6  C   LIG    1       -5.910   0.075  -0.724  0.00  0.00    +0.011 C 
BRANCH   6   7
ATOM      7  C   LIG    1       -6.896  -0.951  -1.222  0.00  0.00    +0.120 C 
BRANCH   7   8
ATOM      8  C   LIG    1       -7.656  -1.637  -0.187  0.00  0.00    +0.305 C 
ATOM      9  O   LIG    1       -7.600  -1.481   1.040  0.00  0.00    -0.251 OA
BRANCH   8  10
ATOM     10  O   LIG    1       -8.576  -2.604  -0.638  0.00  0.00    -0.481 OA
ATOM     11  H   LIG    1       -9.562  -2.482  -0.542  0.00  0.00    +0.295 HD
ENDBRANCH   8  10
ENDBRANCH   7   8
ENDBRANCH   6   7
ENDBRANCH   5   6
ENDBRANCH   4   5
ENDBRANCH   3   4
ENDBRANCH   2   3
ENDBRANCH   1   2
BRANCH   1  12
ATOM     12  C   LIG    1       -0.437   0.719   0.073  0.00  0.00    -0.000 C 
BRANCH  12  13
ATOM     13  C   LIG    1        0.590   0.248   1.068  0.00  0.00    -0.000 C 
BRANCH  13  14
ATOM     14  C   LIG    1        1.498  -0.814   0.539  0.00  0.00    -0.000 C 
BRANCH  14  15
ATOM     15  C   LIG    1        2.259  -0.313  -0.665  0.00  0.00    -0.000 C 
BRANCH  15  16
ATOM     16  C   LIG    1        3.186  -1.349  -1.232  0.00  0.00    -0.000 C 
BRANCH  16  17
ATOM     17  C   LIG    1        4.226  -1.823  -0.272  0.00  0.00    -0.000 C 
BRANCH  17  18
ATOM     18  C   LIG    1        5.127  -0.713   0.217  0.00  0.00    -0.000 C 
BRANCH  18  19
ATOM     19  C   LIG    1        5.875  -0.035  -0.892  0.00  0.00    -0.000 C 
BRANCH  19  20
ATOM     20  C   LIG    1        6.733   1.048  -0.266  0.00  0.00    -0.003 C 
ATOM     21  C   LIG    1        7.700   0.447   0.716  0.00  0.00    +0.004 C 
ENDBRANCH  19  20
ENDBRANCH  18  19
ENDBRANCH  17  18
ENDBRANCH  16  17
ENDBRANCH  15  16
ENDBRANCH  14  15
ENDBRANCH  13  14
ENDBRANCH  12  13
ENDBRANCH   1  12
TORSDOF 17
