REMARK  Name = molecules/QIRAYNIFEOXSPW-FXAWDEMLSA-N.pdb
REMARK                            x       y       z     vdW  Elec       q    Type
REMARK                         _______ _______ _______ _____ _____    ______ ____
ROOT
ATOM      1  C   LIG    1       -0.557  -0.061   0.056  0.00  0.00    +0.048 C 
ENDROOT
BRANCH   1   2
ATOM      2  C   LIG    1       -1.015  -0.224   1.531  0.00  0.00    -0.034 A 
ATOM      3  C   LIG    1       -0.206   0.229   2.561  0.00  0.00    +0.004 A 
ATOM      4  C   LIG    1       -0.560   0.099   3.906  0.00  0.00    +0.000 A 
ATOM      5  C   LIG    1       -1.755  -0.501   4.200  0.00  0.00    +0.000 A 
ATOM      6  C   LIG    1       -2.572  -0.956   3.209  0.00  0.00    +0.000 A 
ATOM      7  C   LIG    1       -2.182  -0.806   1.895  0.00  0.00    +0.004 A 
ENDBRANCH   1   2
BRANCH   1   8
ATOM      8  C   LIG    1       -1.058   1.326  -0.255  0.00  0.00    -0.034 A 
ATOM      9  C   LIG    1       -2.188   1.863   0.337  0.00  0.00    +0.004 A 
ATOM     10  C   LIG    1       -2.658   3.126   0.048  0.00  0.00    +0.000 A 
ATOM     11  C   LIG    1       -2.010   3.926  -0.862  0.00  0.00    +0.000 A 
ATOM     12  C   LIG    1       -0.886   3.437  -1.476  0.00  0.00    +0.000 A 
ATOM     13  C   LIG    1       -0.448   2.169  -1.160  0.00  0.00    +0.004 A 
ENDBRANCH   1   8
BRANCH   1  14
ATOM     14  C   LIG    1        0.884  -0.118   0.203  0.00  0.00    +0.037 C 
BRANCH  14  15
ATOM     15  C   LIG    1        1.937  -0.239  -0.776  0.00  0.00    +0.054 C 
ATOM     16  C   LIG    1        2.035  -1.655  -1.375  0.00  0.00    +0.024 C 
BRANCH  15  17
ATOM     17  N   LIG    1        3.248  -0.204  -0.025  0.00  0.00    -0.306 NA
ATOM     18  C   LIG    1        3.379  -1.312   0.850  0.00  0.00    +0.104 C 
ATOM     19  C   LIG    1        4.333  -0.100  -0.930  0.00  0.00    +0.104 C 
ENDBRANCH  15  17
ENDBRANCH  14  15
ENDBRANCH   1  14
BRANCH   1  20
ATOM     20  C   LIG    1       -1.362  -1.080  -0.611  0.00  0.00    +0.129 C 
BRANCH  20  21
ATOM     21  O   LIG    1       -1.279  -2.265   0.120  0.00  0.00    -0.391 OA
ATOM     22  H   LIG    1       -1.508  -3.068  -0.400  0.00  0.00    +0.210 HD
ENDBRANCH  20  21
BRANCH  20  23
ATOM     23  C   LIG    1       -1.220  -1.466  -2.026  0.00  0.00    +0.029 C 
ATOM     24  C   LIG    1       -1.434  -0.328  -3.027  0.00  0.00    +0.006 C 
ENDBRANCH  20  23
ENDBRANCH   1  20
TORSDOF 8
