REMARK  Name = molecules/QIVBCDIJIAJPQS-VIFPVBQESA-N.pdb
REMARK                            x       y       z     vdW  Elec       q    Type
REMARK                         _______ _______ _______ _____ _____    ______ ____
ROOT
ATOM      1  CG  TRP A  1        0.109   0.029   0.084  0.00  0.00    -0.020 A 
ATOM      2  CD2 TRP A  1       -1.219  -0.280   0.302  0.00  0.00    +0.003 A 
ATOM      3  CE3 TRP A  1       -1.880  -1.160   1.141  0.00  0.00    +0.010 A 
ATOM      4  CZ3 TRP A  1       -3.244  -1.274   1.160  0.00  0.00    +0.001 A 
ATOM      5  CH2 TRP A  1       -4.008  -0.495   0.325  0.00  0.00    +0.002 A 
ATOM      6  CZ2 TRP A  1       -3.380   0.387  -0.518  0.00  0.00    +0.026 A 
ATOM      7  CE2 TRP A  1       -2.011   0.488  -0.525  0.00  0.00    +0.047 A 
ATOM      8  NE1 TRP A  1       -1.168   1.270  -1.252  0.00  0.00    -0.360 N 
ATOM      9  HE1 TRP A  1       -1.505   1.952  -1.962  0.00  0.00    +0.165 HD
ATOM     10  CD1 TRP A  1        0.094   0.994  -0.888  0.00  0.00    +0.087 A 
ENDROOT
BRANCH   1  11
ATOM     11  CB  TRP A  1        1.206  -0.614   0.808  0.00  0.00    +0.067 C 
BRANCH  11  12
ATOM     12  CA  TRP A  1        2.573  -0.185   0.418  0.00  0.00    +0.165 C 
BRANCH  12  13
ATOM     13  N   TRP A  1        2.900   1.166   0.783  0.00  0.00    -0.318 NA
ATOM     14  H1  TRP A  1        2.111   1.677   1.232  0.00  0.00    +0.119 HD
ATOM     15  H2  TRP A  1        3.354   1.699   0.010  0.00  0.00    +0.119 HD
ENDBRANCH  12  13
BRANCH  12  16
ATOM     16  C   TRP A  1        2.923  -0.426  -0.983  0.00  0.00    +0.322 C 
ATOM     17  OXT TRP A  1        2.697  -1.536  -1.519  0.00  0.00    -0.249 OA
BRANCH  16  18
ATOM     18  O   TRP A  1        3.509   0.578  -1.732  0.00  0.00    -0.480 OA
ATOM     19  H   TRP A  1        4.501   0.670  -1.896  0.00  0.00    +0.295 HD
ENDBRANCH  16  18
ENDBRANCH  12  16
ENDBRANCH  11  12
ENDBRANCH   1  11
TORSDOF 5
