REMARK  Name = molecules/QJFSABGVXDWMIW-UHFFFAOYSA-N.pdb
REMARK                            x       y       z     vdW  Elec       q    Type
REMARK                         _______ _______ _______ _____ _____    ______ ____
ROOT
ATOM      1  N   LIG    1       -1.607   1.837   0.845  0.00  0.00    -0.289 N 
ATOM      2  C   LIG    1       -1.447   3.074   1.358  0.00  0.00    +0.299 A 
ATOM      3  N   LIG    1       -2.104   3.969   0.616  0.00  0.00    -0.195 NA
ATOM      4  C   LIG    1       -2.701   3.305  -0.393  0.00  0.00    +0.094 A 
ATOM      5  C   LIG    1       -3.512   3.735  -1.418  0.00  0.00    +0.030 A 
ATOM      6  C   LIG    1       -4.025   2.827  -2.314  0.00  0.00    +0.003 A 
ATOM      7  C   LIG    1       -3.752   1.509  -2.215  0.00  0.00    +0.017 A 
ATOM      8  C   LIG    1       -2.921   1.081  -1.164  0.00  0.00    +0.085 A 
ATOM      9  C   LIG    1       -2.383   1.966  -0.240  0.00  0.00    +0.086 A 
ENDROOT
BRANCH   8  10
ATOM     10  C   LIG    1       -2.623  -0.341  -1.058  0.00  0.00    +0.342 C 
ATOM     11  O   LIG    1       -1.515  -0.822  -1.347  0.00  0.00    -0.245 OA
BRANCH  10  12
ATOM     12  O   LIG    1       -3.589  -1.251  -0.617  0.00  0.00    -0.453 OA
BRANCH  12  13
ATOM     13  C   LIG    1       -3.285  -2.626  -0.519  0.00  0.00    +0.310 C 
BRANCH  13  14
ATOM     14  C   LIG    1       -4.455  -3.368  -0.035  0.00  0.00    +0.187 A 
ATOM     15  O   LIG    1       -5.617  -2.873   0.272  0.00  0.00    -0.392 OA
ATOM     16  C   LIG    1       -6.436  -3.816   0.671  0.00  0.00    +0.521 A 
ATOM     17  O   LIG    1       -7.643  -3.731   1.049  0.00  0.00    -0.202 OA
ATOM     18  O   LIG    1       -5.749  -4.942   0.609  0.00  0.00    -0.396 OA
ATOM     19  C   LIG    1       -4.524  -4.722   0.181  0.00  0.00    +0.151 A 
ATOM     20  C   LIG    1       -3.484  -5.761  -0.008  0.00  0.00    +0.090 C 
ENDBRANCH  13  14
ENDBRANCH  12  13
ENDBRANCH  10  12
ENDBRANCH   8  10
BRANCH   1  21
ATOM     21  C   LIG    1       -1.002   0.661   1.366  0.00  0.00    +0.162 C 
BRANCH  21  22
ATOM     22  C   LIG    1        0.423   0.492   0.950  0.00  0.00    -0.028 A 
ATOM     23  C   LIG    1        1.336   0.007   1.897  0.00  0.00    +0.006 A 
ATOM     24  C   LIG    1        2.675  -0.143   1.612  0.00  0.00    +0.009 A 
ATOM     25  C   LIG    1        3.182   0.179   0.368  0.00  0.00    -0.017 A 
ATOM     26  C   LIG    1        2.282   0.656  -0.563  0.00  0.00    +0.009 A 
ATOM     27  C   LIG    1        0.937   0.807  -0.276  0.00  0.00    +0.006 A 
BRANCH  25  28
ATOM     28  C   LIG    1        4.602   0.034   0.057  0.00  0.00    -0.007 A 
ATOM     29  C   LIG    1        5.507   0.936   0.641  0.00  0.00    +0.009 A 
ATOM     30  C   LIG    1        6.840   0.865   0.383  0.00  0.00    +0.001 A 
ATOM     31  C   LIG    1        7.294  -0.117  -0.472  0.00  0.00    +0.001 A 
ATOM     32  C   LIG    1        6.408  -0.993  -1.039  0.00  0.00    +0.012 A 
ATOM     33  C   LIG    1        5.038  -0.945  -0.792  0.00  0.00    +0.028 A 
BRANCH  33  34
ATOM     34  C   LIG    1        4.115  -1.880  -1.379  0.00  0.00    +0.183 A 
ATOM     35  N   LIG    1        2.802  -1.964  -1.179  0.00  0.00    -0.054 NA
ATOM     36  O   LIG    1        2.298  -2.959  -1.889  0.00  0.00    -0.295 OA
ATOM     37  C   LIG    1        3.259  -3.531  -2.553  0.00  0.00    +0.440 A 
ATOM     38  O   LIG    1        3.117  -4.506  -3.321  0.00  0.00    -0.221 OA
ATOM     39  N   LIG    1        4.399  -2.871  -2.247  0.00  0.00    -0.271 N 
ATOM     40  H   LIG    1        5.325  -3.136  -2.653  0.00  0.00    +0.174 HD
ENDBRANCH  33  34
ENDBRANCH  25  28
ENDBRANCH  21  22
ENDBRANCH   1  21
BRANCH   2  41
ATOM     41  O   LIG    1       -0.706   3.418   2.503  0.00  0.00    -0.464 OA
BRANCH  41  42
ATOM     42  C   LIG    1       -0.614   4.759   2.939  0.00  0.00    +0.229 C 
ATOM     43  C   LIG    1        0.014   5.648   1.872  0.00  0.00    +0.048 C 
ENDBRANCH  41  42
ENDBRANCH   2  41
TORSDOF 10
