REMARK  Name = molecules/QJJXYPPXXYFBGM-ORTURWRLSA-N.pdb
REMARK                            x       y       z     vdW  Elec       q    Type
REMARK                         _______ _______ _______ _____ _____    ______ ____
ROOT
ATOM      1  C   LIG    1       -2.830  -2.174   0.959  0.00  0.00    +0.240 C 
ATOM      2  C   LIG    1       -1.857  -2.529   2.014  0.00  0.00    +0.276 C 
ATOM      3  O   LIG    1       -1.940  -1.831   3.089  0.00  0.00    -0.281 OA
ATOM      4  C   LIG    1       -0.834  -3.554   1.993  0.00  0.00    +0.288 C 
ATOM      5  O   LIG    1       -0.837  -4.422   2.994  0.00  0.00    -0.267 OA
ATOM      6  N   LIG    1        0.195  -3.780   1.048  0.00  0.00    -0.282 N 
ATOM      7  C   LIG    1        1.219  -2.905   0.575  0.00  0.00    +0.185 C 
ATOM      8  C   LIG    1        0.822  -1.517   0.264  0.00  0.00    +0.328 C 
ATOM      9  O   LIG    1        0.187  -0.904   1.178  0.00  0.00    -0.249 OA
ATOM     10  O   LIG    1        1.114  -0.925  -0.927  0.00  0.00    -0.455 OA
ATOM     11  C   LIG    1        2.233  -0.326  -1.454  0.00  0.00    +0.207 C 
ATOM     12  C   LIG    1        1.837   1.048  -1.991  0.00  0.00    +0.060 C 
ATOM     13  C   LIG    1        1.162   1.938  -1.028  0.00  0.00    +0.128 C 
ATOM     14  C   LIG    1        0.037   2.762  -1.682  0.00  0.00    +0.106 C 
ATOM     15  C   LIG    1       -0.256   3.852  -0.736  0.00  0.00    +0.139 C 
ATOM     16  O   LIG    1        0.523   4.213   0.127  0.00  0.00    -0.297 OA
ATOM     17  C   LIG    1       -1.559   4.611  -0.766  0.00  0.00    +0.063 C 
ATOM     18  C   LIG    1       -1.942   4.913   0.658  0.00  0.00    +0.010 C 
ATOM     19  C   LIG    1       -2.165   3.941   1.537  0.00  0.00    -0.022 C 
ATOM     20  C   LIG    1       -1.850   4.226   2.966  0.00  0.00    +0.012 C 
ATOM     21  C   LIG    1       -2.718   2.609   1.097  0.00  0.00    +0.011 C 
ATOM     22  C   LIG    1       -4.199   2.646   1.174  0.00  0.00    -0.011 C 
ATOM     23  C   LIG    1       -4.667   2.288   2.583  0.00  0.00    +0.007 C 
ATOM     24  C   LIG    1       -4.936   1.877   0.149  0.00  0.00    +0.037 C 
ATOM     25  C   LIG    1       -4.388   0.661  -0.429  0.00  0.00    +0.149 C 
ATOM     26  C   LIG    1       -4.357  -0.629   0.251  0.00  0.00    +0.179 C 
ATOM     27  C   LIG    1       -5.494  -1.128   1.034  0.00  0.00    +0.150 C 
ATOM     28  C   LIG    1       -5.343  -2.661   1.064  0.00  0.00    +0.043 C 
ATOM     29  C   LIG    1        0.985   0.783  -3.221  0.00  0.00    +0.014 C 
ATOM     30  C   LIG    1        1.874  -3.563  -0.630  0.00  0.00    +0.034 C 
ATOM     31  C   LIG    1        0.866  -4.008  -1.644  0.00  0.00    +0.004 C 
ATOM     32  C   LIG    1        0.071  -5.127  -1.025  0.00  0.00    +0.019 C 
ATOM     33  C   LIG    1        0.273  -5.146   0.473  0.00  0.00    +0.109 C 
ATOM     34  O   LIG    1       -3.231  -0.825   1.088  0.00  0.00    -0.334 OA
ATOM     35  C   LIG    1       -3.970  -3.145   0.894  0.00  0.00    +0.056 C 
ATOM     36  C   LIG    1       -3.869  -4.048  -0.346  0.00  0.00    +0.013 C 
ENDROOT
BRANCH  11  37
ATOM     37  C   LIG    1        3.423  -0.226  -0.586  0.00  0.00    -0.036 C 
ATOM     38  C   LIG    1        3.460   0.483   0.698  0.00  0.00    +0.042 C 
ATOM     39  C   LIG    1        4.560  -0.810  -0.987  0.00  0.00    -0.021 C 
BRANCH  39  40
ATOM     40  C   LIG    1        5.808  -0.767  -0.192  0.00  0.00    +0.014 C 
ATOM     41  C   LIG    1        6.361  -2.151   0.110  0.00  0.00    +0.041 C 
ATOM     42  C   LIG    1        7.511  -1.926   1.087  0.00  0.00    +0.147 C 
ATOM     43  C   LIG    1        8.601  -1.231   0.304  0.00  0.00    +0.143 C 
ATOM     44  C   LIG    1        8.160  -0.797  -1.056  0.00  0.00    +0.034 C 
ATOM     45  C   LIG    1        6.849  -0.081  -1.090  0.00  0.00    +0.010 C 
BRANCH  42  46
ATOM     46  O   LIG    1        7.931  -3.073   1.713  0.00  0.00    -0.377 OA
ATOM     47  C   LIG    1        7.748  -2.902   3.092  0.00  0.00    +0.194 C 
ENDBRANCH  42  46
BRANCH  43  48
ATOM     48  O   LIG    1        9.097  -0.116   0.980  0.00  0.00    -0.389 OA
ATOM     49  H   LIG    1        8.651   0.722   0.730  0.00  0.00    +0.210 HD
ENDBRANCH  43  48
ENDBRANCH  39  40
ENDBRANCH  11  37
BRANCH  13  50
ATOM     50  O   LIG    1        2.071   2.836  -0.450  0.00  0.00    -0.391 OA
ATOM     51  H   LIG    1        2.550   3.255  -1.230  0.00  0.00    +0.210 HD
ENDBRANCH  13  50
BRANCH  27  52
ATOM     52  O   LIG    1       -6.761  -0.860   0.605  0.00  0.00    -0.377 OA
ATOM     53  C   LIG    1       -7.536  -0.388   1.690  0.00  0.00    +0.194 C 
ENDBRANCH  27  52
BRANCH  25  54
ATOM     54  O   LIG    1       -5.042   0.473  -1.681  0.00  0.00    -0.377 OA
ATOM     55  C   LIG    1       -4.200   0.624  -2.752  0.00  0.00    +0.194 C 
ENDBRANCH  25  54
BRANCH   1  56
ATOM     56  O   LIG    1       -2.250  -2.182  -0.321  0.00  0.00    -0.358 OA
ATOM     57  H   LIG    1       -1.634  -2.925  -0.382  0.00  0.00    +0.213 HD
ENDBRANCH   1  56
BRANCH  17  58
ATOM     58  C   LIG    1       -1.232   5.899  -1.512  0.00  0.00    +0.038 C 
BRANCH  58  59
ATOM     59  C   LIG    1       -2.399   6.784  -1.643  0.00  0.00    -0.034 C 
ATOM     60  C   LIG    1       -2.866   7.153  -2.826  0.00  0.00    +0.004 C 
ENDBRANCH  58  59
ENDBRANCH  17  58
TORSDOF 10
