REMARK  Name = molecules/QKIQJNNDIWGVEH-UHFFFAOYSA-N.pdb
REMARK                            x       y       z     vdW  Elec       q    Type
REMARK                         _______ _______ _______ _____ _____    ______ ____
ROOT
ATOM      1  C   LIG    1       -0.132  -0.728   0.261  0.00  0.00    +0.159 C 
ATOM      2  N   LIG    1        0.820   0.072   0.568  0.00  0.00    -0.119 NA
ENDROOT
BRANCH   1   3
ATOM      3  C   LIG    1       -1.521  -0.304   0.250  0.00  0.00    +0.033 A 
ATOM      4  C   LIG    1       -1.825   1.003   0.581  0.00  0.00    +0.051 A 
ATOM      5 CL   LIG    1       -0.566   2.129   1.006  0.00  0.00    -0.083 Cl
ATOM      6  C   LIG    1       -3.151   1.433   0.578  0.00  0.00    +0.021 A 
ATOM      7  C   LIG    1       -4.148   0.542   0.241  0.00  0.00    +0.003 A 
ATOM      8  C   LIG    1       -3.858  -0.781  -0.095  0.00  0.00    +0.021 A 
ATOM      9  C   LIG    1       -2.536  -1.171  -0.081  0.00  0.00    +0.051 A 
ATOM     10 CL   LIG    1       -2.167  -2.827  -0.502  0.00  0.00    -0.083 Cl
ENDBRANCH   1   3
BRANCH   2  11
ATOM     11  N   LIG    1        2.134  -0.340   0.576  0.00  0.00    -0.153 N 
ATOM     12  H   LIG    1        2.435  -1.056   1.286  0.00  0.00    +0.292 HD
BRANCH  11  13
ATOM     13  C   LIG    1        3.129   0.134  -0.313  0.00  0.00    +0.430 C 
ATOM     14  N   LIG    1        2.953   1.281  -0.868  0.00  0.00    -0.126 NA
ATOM     15  H   LIG    1        2.101   1.841  -0.666  0.00  0.00    +0.306 HD
BRANCH  13  16
ATOM     16  N   LIG    1        4.304  -0.613  -0.606  0.00  0.00    -0.140 N 
ATOM     17  H   LIG    1        4.241  -1.644  -0.736  0.00  0.00    +0.299 HD
BRANCH  16  18
ATOM     18  O   LIG    1        5.517  -0.030  -0.723  0.00  0.00    -0.233 OA
ATOM     19  H   LIG    1        5.401   0.940  -0.552  0.00  0.00    +0.262 HD
ENDBRANCH  16  18
ENDBRANCH  13  16
ENDBRANCH  11  13
ENDBRANCH   2  11
TORSDOF 5
