REMARK  Name = molecules/QLTVVOATEHFXLT-VIFPVBQESA-N.pdb
REMARK                            x       y       z     vdW  Elec       q    Type
REMARK                         _______ _______ _______ _____ _____    ______ ____
ROOT
ATOM      1  C   LIG    1       -0.736   0.970   1.225  0.00  0.00    +0.144 A 
ATOM      2  N   LIG    1       -0.173  -0.222   1.655  0.00  0.00    -0.132 NA
ATOM      3  N   LIG    1        1.124  -0.399   1.740  0.00  0.00    -0.131 NA
ATOM      4  C   LIG    1        2.018   0.575   1.414  0.00  0.00    +0.158 A 
ATOM      5  C   LIG    1        1.525   1.776   0.989  0.00  0.00    +0.050 A 
ATOM      6  C   LIG    1        0.156   1.963   0.901  0.00  0.00    +0.049 A 
ENDROOT
BRANCH   4   7
ATOM      7  N   LIG    1        3.447   0.240   1.426  0.00  0.00    -0.244 N 
ATOM      8  H   LIG    1        4.015   0.716   2.151  0.00  0.00    +0.172 HD
BRANCH   7   9
ATOM      9  N   LIG    1        3.797  -0.657   0.506  0.00  0.00    -0.200 N 
ATOM     10  H   LIG    1        5.074  -0.546   0.922  0.00  0.00    +0.176 HD
ATOM     11  C   LIG    1        4.152  -1.564  -0.424  0.00  0.00    +0.417 C 
ATOM     12  O   LIG    1        5.364  -1.926  -0.710  0.00  0.00    -0.225 OA
BRANCH  11  13
ATOM     13  O   LIG    1        3.218  -2.284  -1.222  0.00  0.00    -0.450 OA
BRANCH  13  14
ATOM     14  C   LIG    1        3.727  -3.283  -2.132  0.00  0.00    +0.230 C 
ATOM     15  C   LIG    1        4.527  -4.289  -1.328  0.00  0.00    +0.048 C 
ENDBRANCH  13  14
ENDBRANCH  11  13
ENDBRANCH   7   9
ENDBRANCH   4   7
BRANCH   1  16
ATOM     16  N   LIG    1       -2.131   0.998   0.984  0.00  0.00    -0.312 N 
BRANCH  16  17
ATOM     17  C   LIG    1       -2.886  -0.208   1.278  0.00  0.00    +0.103 C 
ATOM     18  C   LIG    1       -4.027   0.078   2.254  0.00  0.00    +0.024 C 
ENDBRANCH  16  17
BRANCH  16  19
ATOM     19  C   LIG    1       -2.790   2.072   0.288  0.00  0.00    +0.137 C 
BRANCH  19  20
ATOM     20  C   LIG    1       -2.800   1.762  -1.213  0.00  0.00    +0.129 C 
ATOM     21  C   LIG    1       -3.702   2.859  -1.833  0.00  0.00    +0.039 C 
BRANCH  20  22
ATOM     22  O   LIG    1       -3.313   0.530  -1.541  0.00  0.00    -0.391 OA
ATOM     23  H   LIG    1       -4.332   0.574  -1.597  0.00  0.00    +0.210 HD
ENDBRANCH  20  22
ENDBRANCH  19  20
ENDBRANCH  16  19
ENDBRANCH   1  16
TORSDOF 9
