REMARK  Name = molecules/QMGVPVSNSZLJIA-FVWCLLPLSA-N.pdb
REMARK                            x       y       z     vdW  Elec       q    Type
REMARK                         _______ _______ _______ _____ _____    ______ ____
ROOT
ATOM      1  O   LIG    1        1.232   3.903   0.503  0.00  0.00    -0.275 OA
ATOM      2  C   LIG    1        0.453   2.986   0.199  0.00  0.00    +0.223 C 
ATOM      3  N   LIG    1        0.966   1.681   0.129  0.00  0.00    -0.267 N 
ATOM      4  C   LIG    1       -0.016   0.604   0.208  0.00  0.00    +0.100 C 
ATOM      5  C   LIG    1        0.679  -0.667   0.032  0.00  0.00    +0.033 C 
ATOM      6  C   LIG    1        0.592  -1.442   1.361  0.00  0.00    +0.030 C 
ATOM      7  C   LIG    1        0.298  -2.865   0.975  0.00  0.00    +0.086 C 
ATOM      8  N   LIG    1       -0.495  -2.703  -0.225  0.00  0.00    -0.295 NA
ATOM      9  C   LIG    1       -1.882  -2.426   0.077  0.00  0.00    +0.115 C 
ATOM     10  C   LIG    1       -2.218  -0.970  -0.010  0.00  0.00    -0.054 C 
ATOM     11  C   LIG    1       -2.860  -0.478   1.026  0.00  0.00    +0.002 C 
ATOM     12  C   LIG    1       -3.317   0.950   1.199  0.00  0.00    +0.187 C 
ATOM     13  O   LIG    1       -2.230   1.786   1.123  0.00  0.00    -0.372 OA
ATOM     14  C   LIG    1       -1.856   2.096  -0.206  0.00  0.00    +0.133 C 
ATOM     15  C   LIG    1       -1.809  -0.221  -1.233  0.00  0.00    +0.025 C 
ATOM     16  C   LIG    1       -0.820  -1.127  -1.962  0.00  0.00    +0.028 C 
ATOM     17  C   LIG    1        2.111  -0.287  -0.102  0.00  0.00    -0.016 A 
ATOM     18  C   LIG    1        3.234  -1.058  -0.266  0.00  0.00    +0.006 A 
ATOM     19  C   LIG    1        4.507  -0.516  -0.357  0.00  0.00    +0.000 A 
ATOM     20  C   LIG    1        4.630   0.858  -0.277  0.00  0.00    +0.002 A 
ATOM     21  C   LIG    1        3.525   1.624  -0.116  0.00  0.00    +0.024 A 
ATOM     22  C   LIG    1        0.165  -1.629  -0.943  0.00  0.00    +0.070 C 
ATOM     23  C   LIG    1       -1.045   0.988  -0.835  0.00  0.00    +0.047 C 
ATOM     24  C   LIG    1        2.241   1.081  -0.024  0.00  0.00    +0.040 A 
ATOM     25  C   LIG    1       -0.969   3.326  -0.073  0.00  0.00    +0.128 C 
ENDROOT
TORSDOF 0
