REMARK  Name = molecules/QNEXFJFTGQBXBJ-MRVPVSSYSA-N.pdb
REMARK                            x       y       z     vdW  Elec       q    Type
REMARK                         _______ _______ _______ _____ _____    ______ ____
ROOT
ATOM      1  C   LIG    1       -0.888  -0.308  -0.577  0.00  0.00    +0.248 C 
ENDROOT
BRANCH   1   3
ATOM      2  C   LIG    1       -2.240   0.260   1.370  0.00  0.00    +0.029 C 
ATOM      3  C   LIG    1       -2.187  -0.607   0.134  0.00  0.00    +0.104 C 
BRANCH   3   4
ATOM      4  N   LIG    1       -3.338  -0.458  -0.710  0.00  0.00    -0.253 NA
ATOM      5  H   LIG    1       -4.164  -0.839  -0.241  0.00  0.00    +0.141 HD
BRANCH   4   6
ATOM      6  N   LIG    1       -3.485   0.843  -1.155  0.00  0.00    -0.270 NA
ATOM      7  H   LIG    1       -3.621   1.484  -0.357  0.00  0.00    +0.137 HD
ATOM      8  H   LIG    1       -2.670   1.103  -1.749  0.00  0.00    +0.137 HD
ENDBRANCH   4   6
ENDBRANCH   3   4
ENDBRANCH   1   3
BRANCH   1   9
ATOM      9  O   LIG    1        0.160  -0.488   0.353  0.00  0.00    -0.490 OA
BRANCH   9  10
ATOM     10  C   LIG    1        1.496  -0.278  -0.031  0.00  0.00    +0.121 A 
ATOM     11  C   LIG    1        2.491  -0.462   0.895  0.00  0.00    +0.045 A 
ATOM     12  C   LIG    1        3.795  -0.251   0.499  0.00  0.00    +0.004 A 
ATOM     13  C   LIG    1        4.082   0.134  -0.798  0.00  0.00    +0.000 A 
ATOM     14  C   LIG    1        3.072   0.316  -1.722  0.00  0.00    +0.004 A 
ATOM     15  C   LIG    1        1.763   0.106  -1.328  0.00  0.00    +0.045 A 
ENDBRANCH   9  10
ENDBRANCH   1   9
TORSDOF 5
