REMARK  Name = molecules/QNIUOGIMJWORNZ-UHFFFAOYSA-N.pdb
REMARK                            x       y       z     vdW  Elec       q    Type
REMARK                         _______ _______ _______ _____ _____    ______ ____
ROOT
ATOM      1  C   LIG    1        0.357   0.297  -1.276  0.00  0.00    +0.059 A 
ATOM      2  C   LIG    1        1.202   1.278  -0.821  0.00  0.00    +0.018 A 
ATOM      3  C   LIG    1        2.555   1.050  -0.590  0.00  0.00    +0.046 A 
ATOM      4  C   LIG    1        3.112  -0.184  -0.809  0.00  0.00    +0.121 A 
ATOM      5  C   LIG    1        2.224  -1.170  -1.275  0.00  0.00    +0.046 A 
ATOM      6  C   LIG    1        0.893  -0.940  -1.502  0.00  0.00    +0.018 A 
ENDROOT
BRANCH   1   7
ATOM      7  C   LIG    1       -1.047   0.553  -1.512  0.00  0.00    +0.339 C 
ATOM      8  O   LIG    1       -1.511   1.706  -1.301  0.00  0.00    -0.245 OA
BRANCH   7   9
ATOM      9  O   LIG    1       -1.895  -0.422  -1.960  0.00  0.00    -0.460 OA
BRANCH   9  10
ATOM     10  C   LIG    1       -3.263  -0.200  -2.196  0.00  0.00    +0.248 C 
BRANCH  10  11
ATOM     11  C   LIG    1       -4.047   0.234  -1.008  0.00  0.00    +0.125 C 
BRANCH  11  12
ATOM     12  N   LIG    1       -4.070  -0.641   0.090  0.00  0.00    -0.300 NA
BRANCH  12  13
ATOM     13  C   LIG    1       -3.963  -0.072   1.391  0.00  0.00    +0.081 C 
ATOM     14  C   LIG    1       -5.212   0.726   1.696  0.00  0.00    +0.020 C 
ENDBRANCH  12  13
BRANCH  12  15
ATOM     15  C   LIG    1       -4.744  -1.878  -0.022  0.00  0.00    +0.081 C 
ATOM     16  C   LIG    1       -6.252  -1.768  -0.143  0.00  0.00    +0.020 C 
ENDBRANCH  12  15
ENDBRANCH  11  12
ENDBRANCH  10  11
ENDBRANCH   9  10
ENDBRANCH   7   9
ENDBRANCH   1   7
BRANCH   4  17
ATOM     17  O   LIG    1        4.420  -0.510  -0.609  0.00  0.00    -0.492 OA
BRANCH  17  18
ATOM     18  C   LIG    1        5.416   0.308  -0.119  0.00  0.00    +0.229 C 
BRANCH  18  19
ATOM     19  C   LIG    1        5.187   0.708   1.299  0.00  0.00    +0.041 C 
BRANCH  19  20
ATOM     20  C   LIG    1        6.360   1.615   1.688  0.00  0.00    -0.000 C 
ATOM     21  C   LIG    1        7.622   0.823   1.528  0.00  0.00    +0.004 C 
ENDBRANCH  19  20
ENDBRANCH  18  19
ENDBRANCH  17  18
ENDBRANCH   4  17
TORSDOF 11
