REMARK  Name = molecules/QNIVIMYXGGFTAK-QMMMGPOBSA-N.pdb
REMARK                            x       y       z     vdW  Elec       q    Type
REMARK                         _______ _______ _______ _____ _____    ______ ____
ROOT
ATOM      1  C   LIG    1        1.533  -0.316  -0.983  0.00  0.00    +0.018 C 
ENDROOT
BRANCH   1   2
ATOM      2  C   LIG    1        2.179   0.246   0.245  0.00  0.00    +0.048 C 
ATOM      3  C   LIG    1        3.635  -0.222   0.199  0.00  0.00    +0.023 C 
BRANCH   2   4
ATOM      4  N   LIG    1        1.567  -0.174   1.489  0.00  0.00    -0.328 NA
ATOM      5  H   LIG    1        1.353   0.642   2.118  0.00  0.00    +0.118 HD
ATOM      6  H   LIG    1        2.112  -0.914   1.984  0.00  0.00    +0.118 HD
ENDBRANCH   2   4
ENDBRANCH   1   2
BRANCH   1   7
ATOM      7  C   LIG    1        0.108   0.003  -1.208  0.00  0.00    +0.002 C 
BRANCH   7   8
ATOM      8  C   LIG    1       -0.835  -0.466  -0.135  0.00  0.00    +0.003 C 
BRANCH   8  10
ATOM      9  C   LIG    1       -2.315   1.405  -0.641  0.00  0.00    +0.007 C 
ATOM     10  C   LIG    1       -2.281  -0.101  -0.513  0.00  0.00    -0.017 C 
ATOM     11  C   LIG    1       -3.251  -0.601   0.505  0.00  0.00    +0.007 C 
ENDBRANCH   8  10
ENDBRANCH   7   8
ENDBRANCH   1   7
TORSDOF 5
