REMARK  Name = molecules/QNQZBKQEIFTHFZ-GOSISDBHSA-N.pdb
REMARK                            x       y       z     vdW  Elec       q    Type
REMARK                         _______ _______ _______ _____ _____    ______ ____
ROOT
ATOM      1  C   LIG    1        0.519  -0.637   0.002  0.00  0.00    +0.160 C 
ENDROOT
BRANCH   1   2
ATOM      2  N   LIG    1        1.898  -0.115  -0.058  0.00  0.00    -0.300 N 
ATOM      3  C   LIG    1        2.773  -0.200   1.030  0.00  0.00    +0.245 C 
ATOM      4  O   LIG    1        2.402  -0.725   2.097  0.00  0.00    -0.270 OA
ATOM      5  H   LIG    1        2.187   0.325  -0.936  0.00  0.00    +0.150 HD
BRANCH   3   6
ATOM      6  C   LIG    1        4.127   0.320   0.940  0.00  0.00    +0.038 A 
ATOM      7  C   LIG    1        4.862   0.654   2.064  0.00  0.00    +0.034 A 
ATOM      8  C   LIG    1        6.154   1.142   1.977  0.00  0.00    +0.060 A 
ATOM      9 CL   LIG    1        7.088   1.569   3.416  0.00  0.00    -0.082 Cl
ATOM     10  C   LIG    1        6.776   1.321   0.748  0.00  0.00    +0.059 A 
ATOM     11 CL   LIG    1        8.414   1.935   0.640  0.00  0.00    -0.082 Cl
ATOM     12  C   LIG    1        6.041   0.988  -0.371  0.00  0.00    +0.022 A 
ATOM     13  C   LIG    1        4.759   0.503  -0.288  0.00  0.00    +0.014 A 
ENDBRANCH   3   6
ENDBRANCH   1   2
BRANCH   1  14
ATOM     14  C   LIG    1       -0.402   0.492  -0.219  0.00  0.00    +0.236 C 
ATOM     15  N   LIG    1       -1.784   0.557   0.040  0.00  0.00    -0.300 N 
ATOM     16  O   LIG    1        0.151   1.567  -0.713  0.00  0.00    -0.274 OA
BRANCH  15  17
ATOM     17  C   LIG    1       -2.517  -0.530   0.574  0.00  0.00    +0.108 C 
BRANCH  17  18
ATOM     18  C   LIG    1       -3.222  -1.447  -0.343  0.00  0.00    +0.019 C 
BRANCH  18  19
ATOM     19  C   LIG    1       -3.994  -2.516   0.397  0.00  0.00    +0.001 C 
BRANCH  19  20
ATOM     20  C   LIG    1       -3.102  -3.374   1.249  0.00  0.00    -0.003 C 
ATOM     21  C   LIG    1       -2.055  -4.104   0.449  0.00  0.00    +0.004 C 
ENDBRANCH  19  20
ENDBRANCH  18  19
ENDBRANCH  17  18
ENDBRANCH  15  17
BRANCH  15  22
ATOM     22  C   LIG    1       -2.445   1.841  -0.269  0.00  0.00    +0.110 C 
BRANCH  22  23
ATOM     23  C   LIG    1       -2.389   2.733   0.967  0.00  0.00    +0.047 C 
BRANCH  23  24
ATOM     24  C   LIG    1       -3.051   4.058   0.675  0.00  0.00    +0.161 C 
BRANCH  24  25
ATOM     25  O   LIG    1       -2.465   4.766  -0.358  0.00  0.00    -0.383 OA
ATOM     26  C   LIG    1       -1.141   5.072  -0.134  0.00  0.00    +0.193 C 
ENDBRANCH  24  25
ENDBRANCH  23  24
ENDBRANCH  22  23
ENDBRANCH  15  22
ENDBRANCH   1  14
BRANCH   1  27
ATOM     27  C   LIG    1        0.483  -1.699  -1.071  0.00  0.00    +0.043 C 
BRANCH  27  28
ATOM     28  C   LIG    1        0.824  -1.183  -2.449  0.00  0.00    +0.123 C 
BRANCH  28  29
ATOM     29  C   LIG    1        0.729  -2.330  -3.429  0.00  0.00    +0.305 C 
ATOM     30  O   LIG    1        0.965  -2.138  -4.649  0.00  0.00    -0.251 OA
BRANCH  29  31
ATOM     31  O   LIG    1        0.388  -3.609  -3.032  0.00  0.00    -0.481 OA
ATOM     32  H   LIG    1        0.537  -3.946  -2.094  0.00  0.00    +0.295 HD
ENDBRANCH  29  31
ENDBRANCH  28  29
ENDBRANCH  27  28
ENDBRANCH   1  27
TORSDOF 15
