REMARK  Name = molecules/QNZCBYKSOIHPEH-UHFFFAOYSA-N.pdb
REMARK                            x       y       z     vdW  Elec       q    Type
REMARK                         _______ _______ _______ _____ _____    ______ ____
ROOT
ATOM      1  O   LIG    1       -1.430   0.772  -0.547  0.00  0.00    -0.268 OA
ATOM      2  C   LIG    1       -1.373  -0.495  -0.578  0.00  0.00    +0.270 C 
ATOM      3  C   LIG    1       -2.529  -1.335  -0.208  0.00  0.00    +0.133 A 
ATOM      4  N   LIG    1       -3.762  -1.013   0.206  0.00  0.00    -0.227 N 
ATOM      5  N   LIG    1       -4.382  -2.159   0.402  0.00  0.00    -0.161 NA
ATOM      6  C   LIG    1       -3.596  -3.207   0.131  0.00  0.00    +0.151 A 
ATOM      7  C   LIG    1       -2.359  -2.697  -0.277  0.00  0.00    +0.017 A 
ATOM      8  C   LIG    1       -1.090  -3.331  -0.703  0.00  0.00    +0.059 C 
ATOM      9  C   LIG    1       -0.375  -2.418  -1.649  0.00  0.00    +0.119 C 
ATOM     10  N   LIG    1       -0.181  -1.169  -0.972  0.00  0.00    -0.266 N 
ENDROOT
BRANCH   4  11
ATOM     11  C   LIG    1       -4.235   0.302   0.380  0.00  0.00    +0.066 A 
ATOM     12  C   LIG    1       -3.696   1.171   1.298  0.00  0.00    +0.031 A 
ATOM     13  C   LIG    1       -4.212   2.458   1.430  0.00  0.00    +0.048 A 
ATOM     14  C   LIG    1       -5.269   2.894   0.654  0.00  0.00    +0.120 A 
ATOM     15  C   LIG    1       -5.805   2.017  -0.265  0.00  0.00    +0.048 A 
ATOM     16  C   LIG    1       -5.285   0.744  -0.388  0.00  0.00    +0.031 A 
BRANCH  14  17
ATOM     17  O   LIG    1       -5.769   4.198   0.813  0.00  0.00    -0.495 OA
ATOM     18  C   LIG    1       -6.850   4.666   0.035  0.00  0.00    +0.277 C 
ENDBRANCH  14  17
ENDBRANCH   4  11
BRANCH  10  19
ATOM     19  C   LIG    1        1.073  -0.582  -0.667  0.00  0.00    +0.037 A 
ATOM     20  C   LIG    1        1.246   0.403   0.288  0.00  0.00    +0.025 A 
ATOM     21  C   LIG    1        2.488   0.957   0.573  0.00  0.00    +0.025 A 
ATOM     22  C   LIG    1        3.614   0.546  -0.090  0.00  0.00    +0.036 A 
ATOM     23  C   LIG    1        3.445  -0.437  -1.045  0.00  0.00    +0.025 A 
ATOM     24  C   LIG    1        2.220  -0.990  -1.333  0.00  0.00    +0.025 A 
BRANCH  22  25
ATOM     25  N   LIG    1        4.876   1.109   0.212  0.00  0.00    -0.271 N 
ATOM     26  C   LIG    1        5.249   1.405   1.553  0.00  0.00    +0.220 C 
ATOM     27  O   LIG    1        4.445   1.384   2.518  0.00  0.00    -0.275 OA
ATOM     28  C   LIG    1        6.707   1.748   1.723  0.00  0.00    +0.096 C 
ATOM     29  C   LIG    1        7.574   0.804   0.924  0.00  0.00    +0.011 C 
ATOM     30  C   LIG    1        7.070   0.530  -0.466  0.00  0.00    +0.020 C 
ATOM     31  C   LIG    1        5.902   1.435  -0.762  0.00  0.00    +0.113 C 
ENDBRANCH  22  25
ENDBRANCH  10  19
BRANCH   6  32
ATOM     32  C   LIG    1       -3.898  -4.623   0.225  0.00  0.00    +0.262 C 
ATOM     33  O   LIG    1       -5.061  -4.991   0.606  0.00  0.00    -0.269 OA
ATOM     34  N   LIG    1       -2.935  -5.598  -0.095  0.00  0.00    -0.324 N 
ATOM     35  H   LIG    1       -2.146  -5.759   0.580  0.00  0.00    +0.145 HD
ATOM     36  H   LIG    1       -2.963  -6.178  -0.977  0.00  0.00    +0.145 HD
ENDBRANCH   6  32
TORSDOF 5
