REMARK  Name = molecules/QOBAOSCOLAGPKI-UHFFFAOYSA-N.pdb
REMARK                            x       y       z     vdW  Elec       q    Type
REMARK                         _______ _______ _______ _____ _____    ______ ____
ROOT
ATOM      1  C   LIG    1        1.660   0.265   0.547  0.00  0.00    +0.018 A 
ATOM      2  C   LIG    1        1.262   1.351   1.349  0.00  0.00    +0.012 A 
ATOM      3  C   LIG    1       -0.051   1.729   1.503  0.00  0.00    +0.010 A 
ATOM      4  C   LIG    1       -1.037   1.044   0.865  0.00  0.00    -0.010 A 
ATOM      5  C   LIG    1       -2.487   1.213   0.835  0.00  0.00    -0.009 A 
ATOM      6  C   LIG    1       -3.399   2.087   1.415  0.00  0.00    +0.009 A 
ATOM      7  C   LIG    1       -4.732   1.924   1.138  0.00  0.00    +0.001 A 
ATOM      8  C   LIG    1       -5.217   0.916   0.294  0.00  0.00    +0.008 A 
ATOM      9  C   LIG    1       -4.290   0.040  -0.286  0.00  0.00    -0.017 A 
ATOM     10  C   LIG    1       -4.627  -0.983  -1.125  0.00  0.00    +0.008 A 
ATOM     11  C   LIG    1       -3.603  -1.789  -1.641  0.00  0.00    +0.001 A 
ATOM     12  C   LIG    1       -2.271  -1.573  -1.321  0.00  0.00    +0.009 A 
ATOM     13  C   LIG    1       -1.928  -0.542  -0.473  0.00  0.00    -0.009 A 
ATOM     14  C   LIG    1       -2.958   0.229   0.013  0.00  0.00    -0.002 A 
ATOM     15  C   LIG    1       -0.664  -0.033   0.066  0.00  0.00    -0.009 A 
ATOM     16  C   LIG    1        0.652  -0.412  -0.088  0.00  0.00    +0.020 A 
ENDROOT
BRANCH   1  17
ATOM     17  C   LIG    1        3.060  -0.093   0.442  0.00  0.00    +0.164 C 
ATOM     18  O   LIG    1        3.913   0.601   1.033  0.00  0.00    -0.292 OA
BRANCH  17  19
ATOM     19  C   LIG    1        3.503  -1.256  -0.342  0.00  0.00    +0.091 C 
BRANCH  19  20
ATOM     20  C   LIG    1        5.005  -1.427  -0.304  0.00  0.00    +0.128 C 
BRANCH  20  21
ATOM     21  C   LIG    1        5.698  -0.234  -0.853  0.00  0.00    +0.305 C 
ATOM     22  O   LIG    1        5.451   0.200  -2.011  0.00  0.00    -0.251 OA
BRANCH  21  23
ATOM     23  O   LIG    1        6.653   0.456  -0.104  0.00  0.00    -0.481 OA
ATOM     24  H   LIG    1        6.797   0.137   0.848  0.00  0.00    +0.295 HD
ENDBRANCH  21  23
ENDBRANCH  20  21
ENDBRANCH  19  20
ENDBRANCH  17  19
ENDBRANCH   1  17
TORSDOF 5
