REMARK  Name = molecules/QPADNTZLUBYNEN-UHFFFAOYSA-N.pdb
REMARK                            x       y       z     vdW  Elec       q    Type
REMARK                         _______ _______ _______ _____ _____    ______ ____
ROOT
ATOM      1  C   LIG    1       -0.043  -0.354   0.041  0.00  0.00    +0.127 C 
ATOM      2  C   LIG    1        0.586   0.804   0.690  0.00  0.00    +0.236 C 
ATOM      3  O   LIG    1        1.673   0.672   1.352  0.00  0.00    -0.274 OA
ATOM      4  N   LIG    1       -0.037   2.076   0.567  0.00  0.00    -0.239 N 
ATOM      5  H   LIG    1        0.205   2.810   1.297  0.00  0.00    +0.159 HD
ATOM      6  C   LIG    1       -0.951   2.401  -0.468  0.00  0.00    +0.312 C 
ATOM      7  O   LIG    1       -1.478   3.533  -0.540  0.00  0.00    -0.252 OA
ATOM      8  N   LIG    1       -1.223   1.366  -1.404  0.00  0.00    -0.239 N 
ATOM      9  H   LIG    1       -1.891   1.571  -2.179  0.00  0.00    +0.159 HD
ATOM     10  C   LIG    1       -0.586   0.077  -1.271  0.00  0.00    +0.236 C 
ATOM     11  O   LIG    1       -0.518  -0.642  -2.306  0.00  0.00    -0.274 OA
ENDROOT
BRANCH   1  12
ATOM     12  C   LIG    1       -1.150  -0.919   0.894  0.00  0.00    +0.022 C 
ATOM     13  C   LIG    1       -2.224   0.064   1.237  0.00  0.00    +0.005 C 
ENDBRANCH   1  12
BRANCH   1  14
ATOM     14  C   LIG    1        0.933  -1.485  -0.195  0.00  0.00    +0.052 C 
BRANCH  14  15
ATOM     15  C   LIG    1        2.083  -1.114  -1.014  0.00  0.00    -0.033 C 
ATOM     16  C   LIG    1        3.330  -1.200  -0.572  0.00  0.00    +0.004 C 
ENDBRANCH  14  15
ENDBRANCH   1  14
TORSDOF 3
