REMARK  Name = molecules/QPCVHQBVMYCJOM-UHFFFAOYSA-N.pdb
REMARK                            x       y       z     vdW  Elec       q    Type
REMARK                         _______ _______ _______ _____ _____    ______ ____
ROOT
ATOM      1  C   LIG    1       -1.374  -0.018  -0.562  0.00  0.00    +0.216 C 
ENDROOT
BRANCH   1   2
ATOM      2  C   LIG    1       -1.880   0.632   0.653  0.00  0.00    -0.001 A 
ATOM      3  C   LIG    1       -1.089   1.472   1.383  0.00  0.00    +0.007 A 
ATOM      4  C   LIG    1       -1.547   2.096   2.541  0.00  0.00    +0.000 A 
ATOM      5  C   LIG    1       -2.830   1.877   2.982  0.00  0.00    +0.000 A 
ATOM      6  C   LIG    1       -3.637   1.031   2.251  0.00  0.00    +0.000 A 
ATOM      7  C   LIG    1       -3.162   0.409   1.089  0.00  0.00    +0.007 A 
ENDBRANCH   1   2
BRANCH   1   8
ATOM      8  C   LIG    1       -1.598  -1.513  -0.455  0.00  0.00    -0.001 A 
ATOM      9  C   LIG    1       -1.056  -2.268   0.550  0.00  0.00    +0.007 A 
ATOM     10  C   LIG    1       -1.303  -3.620   0.577  0.00  0.00    +0.000 A 
ATOM     11  C   LIG    1       -2.079  -4.243  -0.374  0.00  0.00    +0.000 A 
ATOM     12  C   LIG    1       -2.620  -3.476  -1.381  0.00  0.00    +0.000 A 
ATOM     13  C   LIG    1       -2.372  -2.124  -1.405  0.00  0.00    +0.007 A 
ENDBRANCH   1   8
BRANCH   1  14
ATOM     14  C   LIG    1        0.093   0.114  -0.719  0.00  0.00    +0.349 C 
ATOM     15  O   LIG    1        0.537   0.574  -1.785  0.00  0.00    -0.247 OA
BRANCH  14  16
ATOM     16  O   LIG    1        0.966  -0.257   0.279  0.00  0.00    -0.459 OA
BRANCH  16  17
ATOM     17  C   LIG    1        2.361  -0.117   0.097  0.00  0.00    +0.179 C 
ATOM     18  C   LIG    1        2.948   0.910   1.064  0.00  0.00    +0.060 C 
ATOM     19  C   LIG    1        4.334   1.254   0.561  0.00  0.00    +0.087 C 
ATOM     20  N   LIG    1        4.976   0.115  -0.051  0.00  0.00    -0.305 NA
ATOM     21  C   LIG    1        4.526  -1.080   0.643  0.00  0.00    +0.087 C 
ATOM     22  C   LIG    1        6.410   0.268   0.033  0.00  0.00    +0.104 C 
ATOM     23  C   LIG    1        3.106  -1.416   0.169  0.00  0.00    +0.060 C 
ENDBRANCH  16  17
ENDBRANCH  14  16
ENDBRANCH   1  14
BRANCH   1  24
ATOM     24  O   LIG    1       -2.102   0.423  -1.634  0.00  0.00    -0.353 OA
BRANCH  24  25
ATOM     25  C   LIG    1       -2.023   1.732  -1.976  0.00  0.00    +0.162 C 
BRANCH  25  26
ATOM     26  C   LIG    1       -2.951   1.918  -3.192  0.00  0.00    +0.025 C 
ATOM     27  C   LIG    1       -4.347   1.526  -2.744  0.00  0.00    +0.006 C 
ENDBRANCH  25  26
ENDBRANCH  24  25
ENDBRANCH   1  24
TORSDOF 8
