REMARK  Name = molecules/QPPBRPIAZZHUNT-UHFFFAOYSA-N.pdb
REMARK                            x       y       z     vdW  Elec       q    Type
REMARK                         _______ _______ _______ _____ _____    ______ ____
ROOT
ATOM      1  S   LIG    1        0.562   2.308   0.849  0.00  0.00    +0.075 S 
ATOM      2  O   LIG    1        0.434   2.248   2.365  0.00  0.00    -0.150 OA
ATOM      3  O   LIG    1        1.124   3.672   0.552  0.00  0.00    -0.150 OA
ENDROOT
BRANCH   1   4
ATOM      4  C   LIG    1        1.730   1.094   0.388  0.00  0.00    +0.109 A 
ATOM      5  C   LIG    1        1.906  -0.006   1.181  0.00  0.00    +0.030 A 
ATOM      6  C   LIG    1        2.842  -0.963   0.808  0.00  0.00    +0.024 A 
ATOM      7  C   LIG    1        3.588  -0.810  -0.347  0.00  0.00    +0.025 A 
ATOM      8  C   LIG    1        3.416   0.297  -1.151  0.00  0.00    +0.024 A 
ATOM      9  C   LIG    1        2.489   1.223  -0.761  0.00  0.00    +0.030 A 
BRANCH   7  10
ATOM     10  N   LIG    1        4.552  -1.821  -0.705  0.00  0.00    -0.358 N 
ATOM     11  H   LIG    1        5.381  -1.963  -0.104  0.00  0.00    +0.142 HD
ATOM     12  H   LIG    1        4.435  -2.403  -1.542  0.00  0.00    +0.142 HD
ENDBRANCH   7  10
ENDBRANCH   1   4
BRANCH   1  13
ATOM     13  N   LIG    1       -0.965   2.073   0.114  0.00  0.00    -0.184 N 
ATOM     14  H   LIG    1       -1.359   2.788  -0.519  0.00  0.00    +0.177 HD
BRANCH  13  20
ATOM     15  C   LIG    1       -4.996  -0.617  -0.651  0.00  0.00    +0.066 C 
ATOM     16  C   LIG    1       -3.655  -0.418   0.001  0.00  0.00    +0.043 A 
ATOM     17  C   LIG    1       -3.157  -1.390   0.840  0.00  0.00    +0.043 A 
ATOM     18  C   LIG    1       -1.917  -1.208   1.444  0.00  0.00    +0.116 A 
ATOM     19  N   LIG    1       -1.257  -0.074   1.173  0.00  0.00    -0.222 NA
ATOM     20  C   LIG    1       -1.701   0.895   0.367  0.00  0.00    +0.235 A 
ATOM     21  N   LIG    1       -2.922   0.678  -0.206  0.00  0.00    -0.219 NA
ENDBRANCH  13  20
ENDBRANCH   1  13
TORSDOF 4
