REMARK  Name = molecules/QQBDLJCYGRGAKP-UHFFFAOYSA-N.pdb
REMARK                            x       y       z     vdW  Elec       q    Type
REMARK                         _______ _______ _______ _____ _____    ______ ____
ROOT
ATOM      1  N   LIG    1        0.341   0.298  -0.541  0.00  0.00    -0.149 NA
ATOM      2  N   LIG    1       -0.495   0.291   0.395  0.00  0.00    -0.149 NA
ENDROOT
BRANCH   1   7
ATOM      3  C   LIG    1        4.027   0.090  -0.235  0.00  0.00    +0.102 A 
ATOM      4  C   LIG    1        4.401   1.394   0.006  0.00  0.00    +0.131 A 
ATOM      5  C   LIG    1        3.400   2.340   0.064  0.00  0.00    +0.048 A 
ATOM      6  C   LIG    1        2.079   1.987  -0.114  0.00  0.00    +0.033 A 
ATOM      7  C   LIG    1        1.698   0.683  -0.355  0.00  0.00    +0.087 A 
ATOM      8  C   LIG    1        2.691  -0.272  -0.415  0.00  0.00    +0.048 A 
BRANCH   3   9
ATOM      9  C   LIG    1        5.034  -0.956  -0.308  0.00  0.00    +0.340 C 
ATOM     10  O   LIG    1        4.730  -2.152  -0.525  0.00  0.00    -0.245 OA
BRANCH   9  11
ATOM     11  O   LIG    1        6.373  -0.638  -0.134  0.00  0.00    -0.477 OA
ATOM     12  H   LIG    1        6.901  -0.897   0.676  0.00  0.00    +0.295 HD
ENDBRANCH   9  11
ENDBRANCH   3   9
BRANCH   4  13
ATOM     13  O   LIG    1        5.754   1.740   0.185  0.00  0.00    -0.506 OA
ATOM     14  H   LIG    1        6.009   2.703   0.360  0.00  0.00    +0.292 HD
ENDBRANCH   4  13
ENDBRANCH   1   7
BRANCH   2  15
ATOM     15  C   LIG    1       -1.835  -0.122   0.064  0.00  0.00    +0.087 A 
ATOM     16  C   LIG    1       -2.867   0.304   0.867  0.00  0.00    +0.048 A 
ATOM     17  C   LIG    1       -4.160  -0.107   0.530  0.00  0.00    +0.102 A 
ATOM     18  C   LIG    1       -4.400  -0.906  -0.559  0.00  0.00    +0.131 A 
ATOM     19  C   LIG    1       -3.366  -1.329  -1.359  0.00  0.00    +0.048 A 
ATOM     20  C   LIG    1       -2.073  -0.932  -1.042  0.00  0.00    +0.033 A 
BRANCH  17  21
ATOM     21  C   LIG    1       -5.285   0.317   1.348  0.00  0.00    +0.340 C 
ATOM     22  O   LIG    1       -6.460  -0.033   1.075  0.00  0.00    -0.245 OA
BRANCH  21  23
ATOM     23  O   LIG    1       -5.120   1.126   2.466  0.00  0.00    -0.477 OA
ATOM     24  H   LIG    1       -5.728   1.949   2.580  0.00  0.00    +0.295 HD
ENDBRANCH  21  23
ENDBRANCH  17  21
BRANCH  18  25
ATOM     25  O   LIG    1       -5.691  -1.300  -0.872  0.00  0.00    -0.506 OA
ATOM     26  H   LIG    1       -5.939  -1.876  -1.643  0.00  0.00    +0.292 HD
ENDBRANCH  18  25
ENDBRANCH   2  15
TORSDOF 8
