REMARK  Name = molecules/QQHMKNYGKVVGCZ-WDZFZDKYSA-N.pdb
REMARK                            x       y       z     vdW  Elec       q    Type
REMARK                         _______ _______ _______ _____ _____    ______ ____
ROOT
ATOM      1  C   LIG    1        2.594   1.374   0.260  0.00  0.00    +0.327 A 
ATOM      2  O   LIG    1        2.674   2.581   0.608  0.00  0.00    -0.247 OA
ATOM      3  N   LIG    1        3.738   0.702   0.095  0.00  0.00    -0.274 N 
ATOM      4  H   LIG    1        4.681   1.143   0.244  0.00  0.00    +0.173 HD
ATOM      5  C   LIG    1        3.699  -0.584  -0.276  0.00  0.00    +0.273 A 
ATOM      6  O   LIG    1        4.734  -1.277  -0.449  0.00  0.00    -0.266 OA
ATOM      7  C   LIG    1        2.462  -1.201  -0.483  0.00  0.00    +0.128 A 
ATOM      8  C   LIG    1        1.288  -0.499  -0.310  0.00  0.00    +0.084 A 
ATOM      9 CL   LIG    1        2.426  -2.884  -0.967  0.00  0.00    -0.076 Cl
ATOM     10  N   LIG    1        1.374   0.774   0.058  0.00  0.00    -0.307 N 
ATOM     11  H   LIG    1        0.522   1.345   0.206  0.00  0.00    +0.170 HD
ENDROOT
BRANCH   8  12
ATOM     12  C   LIG    1        0.035  -1.208  -0.535  0.00  0.00    +0.281 C 
BRANCH  12  13
ATOM     13  N   LIG    1       -1.182  -0.466  -0.369  0.00  0.00    -0.219 N 
ATOM     14  C   LIG    1       -2.209  -0.712   0.617  0.00  0.00    +0.281 C 
ATOM     15  N   LIG    1       -2.197  -1.718   1.431  0.00  0.00    -0.104 NA
ATOM     16  H   LIG    1       -1.475  -2.450   1.481  0.00  0.00    +0.363 HD
ATOM     17  C   LIG    1       -3.254   0.359   0.538  0.00  0.00    +0.131 C 
ATOM     18  C   LIG    1       -2.415   1.462  -0.104  0.00  0.00    +0.056 C 
ATOM     19  C   LIG    1       -1.669   0.660  -1.133  0.00  0.00    +0.226 C 
ENDBRANCH  12  13
ENDBRANCH   8  12
TORSDOF 2
