REMARK  Name = molecules/QQODLKZGRKWIFG-BPAFIMBUSA-N.pdb
REMARK                            x       y       z     vdW  Elec       q    Type
REMARK                         _______ _______ _______ _____ _____    ______ ____
ROOT
ATOM      1  C   LIG    1        0.124   0.934  -0.364  0.00  0.00    +0.308 C 
ENDROOT
BRANCH   1   2
ATOM      2  C   LIG    1       -0.790  -0.198  -0.462  0.00  0.00    +0.010 A 
ATOM      3  C   LIG    1       -1.889  -0.226   0.406  0.00  0.00    +0.057 A 
ATOM      4  C   LIG    1       -2.830  -1.240   0.365  0.00  0.00    +0.164 A 
ATOM      5  C   LIG    1       -2.696  -2.252  -0.543  0.00  0.00    +0.165 A 
ATOM      6  F   LIG    1       -3.582  -3.288  -0.638  0.00  0.00    -0.202 F 
ATOM      7  C   LIG    1       -1.624  -2.276  -1.430  0.00  0.00    +0.042 A 
ATOM      8  C   LIG    1       -0.704  -1.232  -1.349  0.00  0.00    +0.011 A 
BRANCH   4   9
ATOM      9  O   LIG    1       -3.897  -1.231   1.238  0.00  0.00    -0.453 OA
BRANCH   9  10
ATOM     10  C   LIG    1       -5.222  -1.131   0.825  0.00  0.00    +0.129 A 
ATOM     11  C   LIG    1       -6.212  -1.164   1.768  0.00  0.00    +0.046 A 
ATOM     12  C   LIG    1       -7.548  -1.064   1.391  0.00  0.00    +0.004 A 
ATOM     13  C   LIG    1       -7.853  -0.932   0.069  0.00  0.00    +0.000 A 
ATOM     14  C   LIG    1       -6.878  -0.896  -0.914  0.00  0.00    +0.004 A 
ATOM     15  C   LIG    1       -5.559  -0.999  -0.498  0.00  0.00    +0.046 A 
ENDBRANCH   9  10
ENDBRANCH   4   9
ENDBRANCH   1   2
BRANCH   1  16
ATOM     16  C   LIG    1       -0.236   1.873  -1.459  0.00  0.00    +0.112 C 
ATOM     17  N   LIG    1       -0.534   2.598  -2.297  0.00  0.00    -0.192 NA
ENDBRANCH   1  16
BRANCH   1  18
ATOM     18  O   LIG    1        1.492   0.681  -0.354  0.00  0.00    -0.441 OA
BRANCH  18  19
ATOM     19  C   LIG    1        2.290   1.094   0.700  0.00  0.00    +0.313 C 
ATOM     20  O   LIG    1        1.659   1.693   1.648  0.00  0.00    -0.250 OA
BRANCH  19  21
ATOM     21  C   LIG    1        3.729   0.933   0.846  0.00  0.00    +0.108 C 
ATOM     22  C   LIG    1        4.618   0.090   0.081  0.00  0.00    -0.018 C 
ATOM     23  C   LIG    1        6.013  -0.254   0.564  0.00  0.00    +0.012 C 
ATOM     24  C   LIG    1        3.946  -1.089  -0.625  0.00  0.00    +0.012 C 
ATOM     25  C   LIG    1        4.465   1.433  -0.453  0.00  0.00    +0.016 C 
BRANCH  25  26
ATOM     26  C   LIG    1        5.284   2.626  -0.211  0.00  0.00    +0.038 C 
BRANCH  26  27
ATOM     27  C   LIG    1        5.960   3.610  -0.012  0.00  0.00    +0.154 C 
ATOM     28 CL   LIG    1        6.009   4.215   1.708  0.00  0.00    -0.097 Cl
ATOM     29 CL   LIG    1        6.925   4.604  -1.073  0.00  0.00    -0.097 Cl
ENDBRANCH  26  27
ENDBRANCH  25  26
ENDBRANCH  19  21
ENDBRANCH  18  19
ENDBRANCH   1  18
TORSDOF 9
