REMARK  Name = molecules/QRJOQYLXZPQQMX-FWROMSNXSA-N.pdb
REMARK                            x       y       z     vdW  Elec       q    Type
REMARK                         _______ _______ _______ _____ _____    ______ ____
ROOT
ATOM      1  C   LIG    1       -3.567  -1.432  -0.486  0.00  0.00    +0.010 C 
ATOM      2  C   LIG    1       -4.920  -1.299   0.145  0.00  0.00    +0.032 C 
ATOM      3  C   LIG    1       -5.569   0.036  -0.172  0.00  0.00    +0.115 C 
ATOM      4  C   LIG    1       -4.691   1.193   0.198  0.00  0.00    +0.035 C 
ATOM      5  C   LIG    1       -3.380   0.686   0.696  0.00  0.00    -0.002 C 
ATOM      6  C   LIG    1       -2.508   1.841   1.130  0.00  0.00    +0.004 C 
ATOM      7  C   LIG    1       -1.216   1.253   1.653  0.00  0.00    +0.005 C 
ATOM      8  C   LIG    1       -0.529   0.654   0.444  0.00  0.00    +0.003 C 
ATOM      9  C   LIG    1        0.802   0.114   0.700  0.00  0.00    -0.000 C 
ATOM     10  C   LIG    1        1.827   0.918   1.400  0.00  0.00    +0.005 C 
ATOM     11  C   LIG    1        3.007  -0.070   1.216  0.00  0.00    +0.012 C 
ATOM     12  C   LIG    1        2.885  -0.324  -0.316  0.00  0.00    +0.065 C 
ATOM     13  C   LIG    1        1.446  -0.265  -0.621  0.00  0.00    -0.013 C 
ATOM     14  C   LIG    1        0.835  -1.650  -0.897  0.00  0.00    +0.082 C 
ATOM     15  C   LIG    1       -0.644  -1.456  -0.865  0.00  0.00    +0.138 C 
ATOM     16  O   LIG    1       -1.288  -2.098  -1.698  0.00  0.00    -0.297 OA
ATOM     17  C   LIG    1        1.044   0.575  -1.777  0.00  0.00    +0.012 C 
ATOM     18  C   LIG    1       -1.365  -0.586   0.057  0.00  0.00    +0.065 C 
ATOM     19  C   LIG    1       -2.722  -0.163  -0.360  0.00  0.00    -0.019 C 
ATOM     20  C   LIG    1       -2.698   0.480  -1.700  0.00  0.00    +0.012 C 
ENDROOT
BRANCH   3  21
ATOM     21  O   LIG    1       -6.723   0.095   0.631  0.00  0.00    -0.392 OA
ATOM     22  H   LIG    1       -7.281   0.837   0.238  0.00  0.00    +0.210 HD
ENDBRANCH   3  21
BRANCH  12  23
ATOM     23  C   LIG    1        3.646   0.784  -0.904  0.00  0.00    +0.174 C 
ATOM     24  O   LIG    1        3.197   1.723  -1.513  0.00  0.00    -0.293 OA
BRANCH  23  25
ATOM     25  C   LIG    1        5.151   0.807  -0.761  0.00  0.00    +0.306 C 
BRANCH  25  26
ATOM     26  O   LIG    1        5.521  -0.348  -0.060  0.00  0.00    -0.457 OA
BRANCH  26  27
ATOM     27  C   LIG    1        6.844  -0.612   0.228  0.00  0.00    +0.304 C 
ATOM     28  C   LIG    1        7.161  -1.855   0.975  0.00  0.00    +0.136 C 
ATOM     29  O   LIG    1        7.714   0.211  -0.154  0.00  0.00    -0.251 OA
ENDBRANCH  26  27
ENDBRANCH  25  26
ENDBRANCH  23  25
ENDBRANCH  12  23
TORSDOF 5
