REMARK  Name = molecules/QRZAKQDHEVVFRX-UHFFFAOYSA-N.pdb
REMARK                            x       y       z     vdW  Elec       q    Type
REMARK                         _______ _______ _______ _____ _____    ______ ____
ROOT
ATOM      1  C   LIG    1       -2.197  -0.148   0.297  0.00  0.00    -0.037 A 
ATOM      2  C   LIG    1       -1.380   0.605   1.115  0.00  0.00    +0.005 A 
ATOM      3  C   LIG    1       -0.007   0.583   0.964  0.00  0.00    +0.009 A 
ATOM      4  C   LIG    1        0.508  -0.221  -0.037  0.00  0.00    -0.018 A 
ATOM      5  C   LIG    1       -0.303  -0.980  -0.862  0.00  0.00    +0.009 A 
ATOM      6  C   LIG    1       -1.674  -0.947  -0.698  0.00  0.00    +0.005 A 
ENDROOT
BRANCH   4   7
ATOM      7  C   LIG    1        1.962  -0.262  -0.217  0.00  0.00    -0.018 A 
ATOM      8  C   LIG    1        2.711   0.860   0.077  0.00  0.00    +0.008 A 
ATOM      9  C   LIG    1        4.085   0.788  -0.105  0.00  0.00    +0.001 A 
ATOM     10  C   LIG    1        4.715  -0.344  -0.562  0.00  0.00    +0.000 A 
ATOM     11  C   LIG    1        3.955  -1.451  -0.850  0.00  0.00    +0.001 A 
ATOM     12  C   LIG    1        2.594  -1.398  -0.676  0.00  0.00    +0.008 A 
ENDBRANCH   4   7
BRANCH   1  13
ATOM     13  C   LIG    1       -3.660  -0.076   0.515  0.00  0.00    +0.155 C 
BRANCH  13  14
ATOM     14  C   LIG    1       -4.196   1.018  -0.323  0.00  0.00    +0.309 C 
ATOM     15  O   LIG    1       -3.408   1.678  -1.039  0.00  0.00    -0.251 OA
BRANCH  14  16
ATOM     16  O   LIG    1       -5.564   1.296  -0.300  0.00  0.00    -0.480 OA
ATOM     17  H   LIG    1       -5.856   2.135   0.141  0.00  0.00    +0.295 HD
ENDBRANCH  14  16
ENDBRANCH  13  14
ENDBRANCH   1  13
TORSDOF 4
