REMARK  Name = molecules/QSEKJQWRMSJZDE-UHFFFAOYSA-N.pdb
REMARK                            x       y       z     vdW  Elec       q    Type
REMARK                         _______ _______ _______ _____ _____    ______ ____
ROOT
ATOM      1  C   LIG    1       -1.722  -0.079  -1.156  0.00  0.00    +0.050 C 
ENDROOT
BRANCH   1   2
ATOM      2  C   LIG    1       -2.330   1.121  -0.499  0.00  0.00    -0.040 A 
ATOM      3  C   LIG    1       -2.330   1.220   0.877  0.00  0.00    +0.004 A 
ATOM      4  C   LIG    1       -2.913   2.332   1.456  0.00  0.00    +0.000 A 
ATOM      5  C   LIG    1       -3.488   3.335   0.710  0.00  0.00    +0.000 A 
ATOM      6  C   LIG    1       -3.498   3.255  -0.669  0.00  0.00    +0.000 A 
ATOM      7  C   LIG    1       -2.921   2.153  -1.232  0.00  0.00    +0.004 A 
ENDBRANCH   1   2
BRANCH   1   8
ATOM      8  C   LIG    1       -2.324  -1.338  -0.695  0.00  0.00    -0.040 A 
ATOM      9  C   LIG    1       -1.565  -2.437  -0.384  0.00  0.00    +0.004 A 
ATOM     10  C   LIG    1       -2.194  -3.575   0.060  0.00  0.00    +0.000 A 
ATOM     11  C   LIG    1       -3.562  -3.602   0.186  0.00  0.00    +0.000 A 
ATOM     12  C   LIG    1       -4.358  -2.514  -0.119  0.00  0.00    +0.000 A 
ATOM     13  C   LIG    1       -3.714  -1.385  -0.561  0.00  0.00    +0.004 A 
ENDBRANCH   1   8
BRANCH   1  14
ATOM     14  C   LIG    1       -0.245  -0.036  -1.248  0.00  0.00    +0.028 C 
BRANCH  14  15
ATOM     15  C   LIG    1        0.448   0.084   0.053  0.00  0.00    +0.085 C 
BRANCH  15  16
ATOM     16  N   LIG    1        1.853   0.112   0.022  0.00  0.00    -0.302 NA
ATOM     17  C   LIG    1        2.434   1.329   0.359  0.00  0.00    +0.084 C 
ATOM     18  C   LIG    1        3.688   1.294   1.184  0.00  0.00    +0.015 C 
ATOM     19  C   LIG    1        4.845   0.933   0.284  0.00  0.00    +0.001 C 
ATOM     20  C   LIG    1        5.005  -0.546   0.195  0.00  0.00    +0.001 C 
ATOM     21  C   LIG    1        3.756  -1.316   0.563  0.00  0.00    +0.015 C 
ATOM     22  C   LIG    1        2.593  -1.003  -0.348  0.00  0.00    +0.084 C 
ENDBRANCH  15  16
ENDBRANCH  14  15
ENDBRANCH   1  14
TORSDOF 5
