REMARK  Name = molecules/QSKQVZWVLOIIEV-NSHDSACASA-N.pdb
REMARK                            x       y       z     vdW  Elec       q    Type
REMARK                         _______ _______ _______ _____ _____    ______ ____
ROOT
ATOM      1  S   LIG    1        0.259  -0.107  -1.304  0.00  0.00    +0.062 S 
ATOM      2  O   LIG    1       -0.453   0.905  -2.188  0.00  0.00    -0.153 OA
ATOM      3  O   LIG    1        0.425  -1.303  -2.217  0.00  0.00    -0.153 OA
ENDROOT
BRANCH   1  14
ATOM      4  C   LIG    1        2.675  -0.050   0.004  0.00  0.00    +0.047 A 
ATOM      5  C   LIG    1        2.414  -1.319   0.465  0.00  0.00    +0.151 A 
ATOM      6  C   LIG    1        3.295  -1.994   1.281  0.00  0.00    +0.149 A 
ATOM      7  N   LIG    1        4.455  -1.374   1.635  0.00  0.00    -0.260 NA
ATOM      8  C   LIG    1        4.743  -0.130   1.201  0.00  0.00    +0.119 A 
ATOM      9  F   LIG    1        1.274  -1.950   0.118  0.00  0.00    -0.203 F 
ATOM     10  C   LIG    1        3.865   0.557   0.380  0.00  0.00    +0.005 A 
ATOM     11  C   LIG    1        4.178   1.832  -0.059  0.00  0.00    +0.010 A 
ATOM     12  C   LIG    1        3.288   2.494  -0.878  0.00  0.00    +0.003 A 
ATOM     13  C   LIG    1        2.130   1.859  -1.223  0.00  0.00    +0.029 A 
ATOM     14  C   LIG    1        1.758   0.592  -0.821  0.00  0.00    +0.116 A 
ENDBRANCH   1  14
BRANCH   1  15
ATOM     15  N   LIG    1       -0.827  -0.466  -0.042  0.00  0.00    -0.173 NA
ATOM     16  C   LIG    1       -1.263   0.625   0.720  0.00  0.00    +0.111 C 
ATOM     17  C   LIG    1       -2.312   1.511   0.151  0.00  0.00    +0.032 C 
ATOM     18  C   LIG    1       -3.724   1.050   0.521  0.00  0.00    +0.082 C 
ATOM     19  N   LIG    1       -3.804  -0.352   0.281  0.00  0.00    -0.314 NA
ATOM     20  H   LIG    1       -4.713  -0.788   0.435  0.00  0.00    +0.122 HD
ATOM     21  C   LIG    1       -3.118  -0.777  -0.916  0.00  0.00    +0.101 C 
ATOM     22  C   LIG    1       -1.807  -1.393  -0.479  0.00  0.00    +0.090 C 
ATOM     23  C   LIG    1       -2.135  -2.387   0.634  0.00  0.00    +0.027 C 
ENDBRANCH   1  15
TORSDOF 2
