REMARK  Name = molecules/QSQQPMHPCBLLGX-UHFFFAOYSA-N.pdb
REMARK                            x       y       z     vdW  Elec       q    Type
REMARK                         _______ _______ _______ _____ _____    ______ ____
ROOT
ATOM      1  C   LIG    1       -2.187  -1.693   0.788  0.00  0.00    -0.001 A 
ATOM      2  C   LIG    1       -2.796  -1.795   2.008  0.00  0.00    +0.007 A 
ATOM      3  C   LIG    1       -2.102  -1.846   3.195  0.00  0.00    +0.001 A 
ATOM      4  C   LIG    1       -0.739  -1.794   3.167  0.00  0.00    +0.004 A 
ATOM      5  C   LIG    1       -0.082  -1.692   1.959  0.00  0.00    +0.046 A 
ATOM      6  C   LIG    1       -0.793  -1.640   0.755  0.00  0.00    +0.124 A 
ENDROOT
BRANCH   1   7
ATOM      7  C   LIG    1       -2.951  -1.633  -0.461  0.00  0.00    +0.074 C 
BRANCH   7   8
ATOM      8  C   LIG    1       -3.023  -0.244  -0.972  0.00  0.00    -0.043 A 
ATOM      9  C   LIG    1       -3.892   0.690  -0.412  0.00  0.00    +0.004 A 
ATOM     10  C   LIG    1       -3.966   1.978  -0.901  0.00  0.00    +0.000 A 
ATOM     11  C   LIG    1       -3.176   2.372  -1.963  0.00  0.00    +0.000 A 
ATOM     12  C   LIG    1       -2.316   1.466  -2.527  0.00  0.00    +0.000 A 
ATOM     13  C   LIG    1       -2.255   0.185  -2.025  0.00  0.00    +0.004 A 
ENDBRANCH   7   8
ENDBRANCH   1   7
BRANCH   6  14
ATOM     14  O   LIG    1       -0.189  -1.544  -0.441  0.00  0.00    -0.492 OA
BRANCH  14  15
ATOM     15  C   LIG    1        1.115  -1.448  -0.835  0.00  0.00    +0.229 C 
BRANCH  15  16
ATOM     16  C   LIG    1        1.794  -0.184  -0.387  0.00  0.00    +0.042 C 
BRANCH  16  17
ATOM     17  C   LIG    1        3.243  -0.189  -0.883  0.00  0.00    +0.018 C 
BRANCH  17  18
ATOM     18  C   LIG    1        3.985   1.056  -0.478  0.00  0.00    +0.080 C 
BRANCH  18  19
ATOM     19  N   LIG    1        4.057   1.241   0.949  0.00  0.00    -0.319 NA
ATOM     20  H   LIG    1        3.060   1.389   1.288  0.00  0.00    +0.122 HD
ATOM     21  C   LIG    1        4.809   2.452   1.232  0.00  0.00    +0.101 C 
ENDBRANCH  18  19
ENDBRANCH  17  18
ENDBRANCH  16  17
ENDBRANCH  15  16
ENDBRANCH  14  15
ENDBRANCH   6  14
TORSDOF 8
