REMARK  Name = molecules/QTBSBXVTEAMEQO-UHFFFAOYSA-N.pdb
REMARK                            x       y       z     vdW  Elec       q    Type
REMARK                         _______ _______ _______ _____ _____    ______ ____
ROOT
ATOM      1  C   LIG    1       -0.865  -0.247   0.011  0.00  0.00    +0.136 C 
ATOM      2  C   LIG    1        0.427   0.459   0.295  0.00  0.00    +0.302 C 
ATOM      3  O   LIG    1        0.475   1.626   0.744  0.00  0.00    -0.251 OA
ENDROOT
BRANCH   2   4
ATOM      4  O   LIG    1        1.584  -0.280   0.022  0.00  0.00    -0.481 OA
ATOM      5  H   LIG    1        1.903  -0.234  -0.941  0.00  0.00    +0.295 HD
ENDBRANCH   2   4
TORSDOF 1
