REMARK  Name = molecules/QTFKTBRIGWJQQL-KBPBESRZSA-N.pdb
REMARK                            x       y       z     vdW  Elec       q    Type
REMARK                         _______ _______ _______ _____ _____    ______ ____
ROOT
ATOM      1  P   LIG    1        0.401   0.698   0.521  0.00  0.00    +0.309 P 
ATOM      2  O   LIG    1        0.023   0.217   1.929  0.00  0.00    -0.264 OA
ENDROOT
BRANCH   1   3
ATOM      3  N   LIG    1        2.130   0.963   0.567  0.00  0.00    -0.217 NA
ATOM      4  C   LIG    1        2.890   0.575   1.710  0.00  0.00    +0.117 C 
ATOM      5  C   LIG    1        3.059  -0.061   0.323  0.00  0.00    +0.038 C 
ATOM      6  C   LIG    1        2.706  -1.512   0.290  0.00  0.00    +0.029 C 
ATOM      7  C   LIG    1        4.332   0.373  -0.390  0.00  0.00    +0.029 C 
ENDBRANCH   1   3
BRANCH   1   8
ATOM      8  N   LIG    1       -0.312   2.222   0.275  0.00  0.00    -0.217 NA
ATOM      9  C   LIG    1       -1.592   2.534  -0.137  0.00  0.00    +0.038 C 
ATOM     10  C   LIG    1       -2.162   3.856   0.402  0.00  0.00    +0.029 C 
ATOM     11  C   LIG    1       -2.610   1.631  -0.699  0.00  0.00    +0.029 C 
ATOM     12  C   LIG    1       -0.376   2.751  -1.049  0.00  0.00    +0.117 C 
ENDBRANCH   1   8
BRANCH   1  13
ATOM     13  N   LIG    1       -0.043  -0.519  -0.627  0.00  0.00    -0.207 N 
ATOM     14  C   LIG    1       -0.702  -1.712  -0.215  0.00  0.00    +0.407 C 
ATOM     15  O   LIG    1       -0.946  -1.842   1.011  0.00  0.00    -0.226 OA
ATOM     16  H   LIG    1        0.179  -0.371  -1.641  0.00  0.00    +0.162 HD
BRANCH  14  17
ATOM     17  O   LIG    1       -1.083  -2.716  -1.064  0.00  0.00    -0.450 OA
BRANCH  17  18
ATOM     18  C   LIG    1       -1.732  -3.849  -0.518  0.00  0.00    +0.230 C 
ATOM     19  C   LIG    1       -3.015  -3.499   0.185  0.00  0.00    +0.048 C 
ENDBRANCH  17  18
ENDBRANCH  14  17
ENDBRANCH   1  13
TORSDOF 5
