REMARK  Name = molecules/QTNZYVAMNRDUAD-UHFFFAOYSA-N.pdb
REMARK                            x       y       z     vdW  Elec       q    Type
REMARK                         _______ _______ _______ _____ _____    ______ ____
ROOT
ATOM      1  C   LIG    1       -0.639  -0.683   0.332  0.00  0.00    +0.121 A 
ATOM      2  C   LIG    1       -0.005  -0.167   1.442  0.00  0.00    +0.047 A 
ATOM      3  C   LIG    1        1.331   0.136   1.458  0.00  0.00    +0.027 A 
ATOM      4  C   LIG    1        2.132  -0.065   0.332  0.00  0.00    +0.034 A 
ATOM      5  C   LIG    1        1.527  -0.575  -0.778  0.00  0.00    +0.027 A 
ATOM      6  C   LIG    1        0.156  -0.878  -0.770  0.00  0.00    +0.047 A 
ENDROOT
BRANCH   4   7
ATOM      7  N   LIG    1        3.504   0.263   0.373  0.00  0.00    -0.286 N 
ATOM      8  H   LIG    1        3.822   0.756   1.287  0.00  0.00    +0.155 HD
ATOM      9  C   LIG    1        4.458   0.022  -0.619  0.00  0.00    +0.214 C 
ATOM     10  C   LIG    1        5.878   0.458  -0.370  0.00  0.00    +0.109 C 
ATOM     11  O   LIG    1        4.221  -0.529  -1.696  0.00  0.00    -0.276 OA
ENDBRANCH   4   7
BRANCH   1  12
ATOM     12  O   LIG    1       -1.968  -0.964   0.379  0.00  0.00    -0.487 OA
BRANCH  12  13
ATOM     13  C   LIG    1       -3.030  -0.131   0.067  0.00  0.00    +0.102 C 
ATOM     14  C   LIG    1       -3.107   1.119   0.903  0.00  0.00    +0.055 C 
ATOM     15  C   LIG    1       -4.322  -0.914   0.335  0.00  0.00    +0.055 C 
ATOM     16  C   LIG    1       -3.027   0.176  -1.415  0.00  0.00    +0.055 C 
ENDBRANCH  12  13
ENDBRANCH   1  12
TORSDOF 3
