REMARK  Name = molecules/QTRALMGDQMIVFF-UHFFFAOYSA-N.pdb
REMARK                            x       y       z     vdW  Elec       q    Type
REMARK                         _______ _______ _______ _____ _____    ______ ____
ROOT
ATOM      1  C   LIG    1        0.589  -0.772  -1.458  0.00  0.00    -0.030 A 
ATOM      2  C   LIG    1       -0.002   0.465  -1.347  0.00  0.00    +0.009 A 
ATOM      3  C   LIG    1       -1.389   0.567  -1.244  0.00  0.00    +0.046 A 
ATOM      4  C   LIG    1       -2.162  -0.573  -1.256  0.00  0.00    +0.128 A 
ATOM      5  C   LIG    1       -1.572  -1.823  -1.369  0.00  0.00    +0.046 A 
ATOM      6  C   LIG    1       -0.179  -1.918  -1.471  0.00  0.00    +0.009 A 
ENDROOT
BRANCH   1   7
ATOM      7  C   LIG    1        2.066  -0.906  -1.568  0.00  0.00    +0.143 C 
BRANCH   7   8
ATOM      8  N   LIG    1        2.740   0.350  -1.542  0.00  0.00    -0.293 N 
ATOM      9  C   LIG    1        2.995   1.065  -2.743  0.00  0.00    +0.249 C 
ATOM     10  O   LIG    1        3.597   2.189  -2.608  0.00  0.00    -0.273 OA
BRANCH   9  11
ATOM     11  C   LIG    1        2.617   0.597  -4.087  0.00  0.00    +0.256 C 
ATOM     12 CL   LIG    1        3.585  -0.837  -4.524  0.00  0.00    -0.094 Cl
ATOM     13 CL   LIG    1        2.958   1.928  -5.251  0.00  0.00    -0.094 Cl
ENDBRANCH   9  11
BRANCH   8  14
ATOM     14  C   LIG    1        3.182   0.908  -0.240  0.00  0.00    +0.136 C 
BRANCH  14  15
ATOM     15  C   LIG    1        4.554   0.446   0.089  0.00  0.00    +0.178 C 
BRANCH  15  16
ATOM     16  O   LIG    1        5.062   0.895   1.224  0.00  0.00    -0.378 OA
BRANCH  16  17
ATOM     17  C   LIG    1        4.539   0.686   2.450  0.00  0.00    +0.156 C 
ATOM     18  C   LIG    1        3.196   1.305   2.730  0.00  0.00    +0.034 C 
ENDBRANCH  16  17
ENDBRANCH  15  16
ENDBRANCH  14  15
ENDBRANCH   8  14
ENDBRANCH   7   8
ENDBRANCH   1   7
BRANCH   4  19
ATOM     19  O   LIG    1       -3.524  -0.475  -1.156  0.00  0.00    -0.456 OA
BRANCH  19  20
ATOM     20  C   LIG    1       -4.226  -0.484   0.035  0.00  0.00    +0.129 A 
ATOM     21  C   LIG    1       -3.589  -0.594   1.248  0.00  0.00    +0.048 A 
ATOM     22  C   LIG    1       -4.358  -0.595   2.392  0.00  0.00    +0.036 A 
ATOM     23  C   LIG    1       -5.722  -0.492   2.384  0.00  0.00    +0.126 A 
ATOM     24  C   LIG    1       -6.340  -0.383   1.158  0.00  0.00    +0.036 A 
ATOM     25  C   LIG    1       -5.596  -0.379  -0.005  0.00  0.00    +0.048 A 
BRANCH  23  26
ATOM     26  N   LIG    1       -6.474  -0.499   3.601  0.00  0.00    +0.056 N 
ATOM     27  O   LIG    1       -5.830  -0.609   4.800  0.00  0.00    -0.126 OA
ATOM     28  O   LIG    1       -7.699  -0.406   3.576  0.00  0.00    -0.126 OA
ENDBRANCH  23  26
ENDBRANCH  19  20
ENDBRANCH   4  19
TORSDOF 10
