REMARK  Name = molecules/QTTRZHGPGKRAFB-OOKHYKNYSA-N.pdb
REMARK                            x       y       z     vdW  Elec       q    Type
REMARK                         _______ _______ _______ _____ _____    ______ ____
ROOT
ATOM      1  C   LIG    1       -1.642   0.042  -1.625  0.00  0.00    +0.012 C 
ATOM      2  C   LIG    1       -1.174   0.155  -0.204  0.00  0.00    -0.014 C 
ATOM      3  C   LIG    1       -2.342  -0.255   0.653  0.00  0.00    +0.034 C 
ATOM      4  C   LIG    1       -2.227   0.095   2.097  0.00  0.00    +0.020 C 
ATOM      5  C   LIG    1       -2.370  -1.762   0.411  0.00  0.00    -0.000 C 
ATOM      6  C   LIG    1       -2.773  -2.519   1.638  0.00  0.00    +0.008 C 
ATOM      7  C   LIG    1       -0.996  -2.156  -0.092  0.00  0.00    +0.008 C 
ATOM      8  C   LIG    1       -0.218  -0.949   0.192  0.00  0.00    -0.000 C 
ATOM      9  C   LIG    1        1.094  -0.762  -0.504  0.00  0.00    -0.000 C 
ATOM     10  C   LIG    1        1.681   0.461   0.127  0.00  0.00    +0.035 C 
ATOM     11  C   LIG    1        3.160   0.654  -0.027  0.00  0.00    +0.013 C 
ATOM     12  C   LIG    1        3.739   1.518   0.986  0.00  0.00    -0.012 C 
ATOM     13  C   LIG    1        4.782   1.233   1.731  0.00  0.00    +0.047 C 
ATOM     14  C   LIG    1        5.474  -0.033   1.603  0.00  0.00    +0.179 C 
ATOM     15  O   LIG    1        6.462  -0.376   2.260  0.00  0.00    -0.288 OA
ATOM     16  C   LIG    1        4.896  -0.938   0.583  0.00  0.00    +0.051 C 
ATOM     17  C   LIG    1        3.872  -0.628  -0.129  0.00  0.00    -0.056 C 
ATOM     18  C   LIG    1        3.271  -1.656  -1.103  0.00  0.00    +0.032 C 
ATOM     19  C   LIG    1        3.353   1.448  -1.338  0.00  0.00    +0.020 C 
ATOM     20  C   LIG    1        0.860   1.630  -0.300  0.00  0.00    +0.120 C 
ATOM     21  C   LIG    1        1.955  -1.978  -0.430  0.00  0.00    +0.008 C 
ATOM     22  C   LIG    1       -0.568   1.456   0.169  0.00  0.00    +0.039 C 
ENDROOT
BRANCH   3  23
ATOM     23  C   LIG    1       -3.653   0.276   0.176  0.00  0.00    +0.140 C 
ATOM     24  O   LIG    1       -4.549  -0.522  -0.177  0.00  0.00    -0.297 OA
BRANCH  23  25
ATOM     25  C   LIG    1       -4.008   1.703   0.080  0.00  0.00    +0.071 C 
ATOM     26  C   LIG    1       -5.468   1.802  -0.368  0.00  0.00    +0.012 C 
ENDBRANCH  23  25
ENDBRANCH   3  23
BRANCH  20  27
ATOM     27  O   LIG    1        0.814   1.910  -1.631  0.00  0.00    -0.391 OA
ATOM     28  H   LIG    1        0.507   1.260  -2.259  0.00  0.00    +0.210 HD
ENDBRANCH  20  27
TORSDOF 3
