REMARK  Name = molecules/QUBQYFYWUJJAAK-UHFFFAOYSA-N.pdb
REMARK                            x       y       z     vdW  Elec       q    Type
REMARK                         _______ _______ _______ _____ _____    ______ ____
ROOT
ATOM      1  N   LIG    1        1.171   0.366   0.269  0.00  0.00    -0.277 N 
ATOM      2  H   LIG    1        1.145   1.357   0.585  0.00  0.00    +0.152 HD
ATOM      3  C   LIG    1       -0.024  -0.338   0.012  0.00  0.00    +0.303 C 
ATOM      4  N   LIG    1       -1.265   0.316   0.189  0.00  0.00    -0.277 N 
ATOM      5  H   LIG    1       -1.285   1.313   0.507  0.00  0.00    +0.152 HD
ATOM      6  O   LIG    1       -0.033  -1.529  -0.369  0.00  0.00    -0.253 OA
ENDROOT
BRANCH   1   7
ATOM      7  C   LIG    1        2.422  -0.333   0.078  0.00  0.00    +0.265 C 
BRANCH   7   8
ATOM      8  O   LIG    1        3.530   0.450   0.357  0.00  0.00    -0.377 OA
ATOM      9  H   LIG    1        3.971   0.662  -0.503  0.00  0.00    +0.211 HD
ENDBRANCH   7   8
ENDBRANCH   1   7
BRANCH   4  10
ATOM     10  C   LIG    1       -2.516  -0.365  -0.062  0.00  0.00    +0.265 C 
BRANCH  10  11
ATOM     11  O   LIG    1       -3.570   0.504   0.189  0.00  0.00    -0.377 OA
ATOM     12  H   LIG    1       -3.253   1.409  -0.020  0.00  0.00    +0.211 HD
ENDBRANCH  10  11
ENDBRANCH   4  10
TORSDOF 4
