REMARK  Name = molecules/QUIJNHUBAXPXFS-XLJNKUFUSA-N.pdb
REMARK                            x       y       z     vdW  Elec       q    Type
REMARK                         _______ _______ _______ _____ _____    ______ ____
ROOT
ATOM      1  C   LIG    1       -0.085   0.020   0.108  0.00  0.00    +0.090 C 
ENDROOT
BRANCH   1   7
ATOM      2  C   LIG    1        5.826  -1.429  -1.908  0.00  0.00    +0.017 A 
ATOM      3  C   LIG    1        5.168  -1.866  -0.795  0.00  0.00    +0.029 A 
ATOM      4  C   LIG    1        3.877  -1.403  -0.575  0.00  0.00    +0.075 A 
ATOM      5  N   LIG    1        3.147  -1.764   0.473  0.00  0.00    -0.213 NA
ATOM      6  C   LIG    1        1.907  -1.308   0.664  0.00  0.00    +0.219 A 
ATOM      7  C   LIG    1        1.264  -0.413  -0.213  0.00  0.00    +0.025 A 
ATOM      8  C   LIG    1        2.015  -0.036  -1.298  0.00  0.00    +0.019 A 
ATOM      9  C   LIG    1        3.299  -0.528  -1.466  0.00  0.00    +0.002 A 
ATOM     10  C   LIG    1        4.014  -0.109  -2.594  0.00  0.00    +0.025 A 
ATOM     11  C   LIG    1        5.298  -0.561  -2.826  0.00  0.00    +0.019 A 
ATOM     12 BR   LIG    1        6.212   0.051  -4.378  0.00  0.00    -0.050 Br
BRANCH   6  13
ATOM     13  O   LIG    1        1.223  -1.755   1.807  0.00  0.00    -0.479 OA
ATOM     14  C   LIG    1        1.797  -2.639   2.716  0.00  0.00    +0.279 C 
ENDBRANCH   6  13
ENDBRANCH   1   7
BRANCH   1  15
ATOM     15  C   LIG    1       -0.118   0.838   1.371  0.00  0.00    -0.037 A 
ATOM     16  C   LIG    1       -1.208   0.909   2.198  0.00  0.00    +0.004 A 
ATOM     17  C   LIG    1       -1.207   1.655   3.356  0.00  0.00    +0.000 A 
ATOM     18  C   LIG    1       -0.068   2.348   3.683  0.00  0.00    +0.000 A 
ATOM     19  C   LIG    1        1.043   2.302   2.881  0.00  0.00    +0.000 A 
ATOM     20  C   LIG    1        1.011   1.546   1.728  0.00  0.00    +0.004 A 
ENDBRANCH   1  15
BRANCH   1  21
ATOM     21  C   LIG    1       -1.073   0.271  -0.932  0.00  0.00    +0.104 C 
BRANCH  21  22
ATOM     22  C   LIG    1       -2.282   1.032  -0.632  0.00  0.00    -0.007 A 
ATOM     23  C   LIG    1       -2.209   2.409  -0.324  0.00  0.00    -0.012 A 
ATOM     24  C   LIG    1       -3.297   3.170   0.018  0.00  0.00    -0.018 A 
ATOM     25  C   LIG    1       -3.148   4.544   0.277  0.00  0.00    +0.008 A 
ATOM     26  C   LIG    1       -1.933   5.175   0.197  0.00  0.00    +0.001 A 
ATOM     27  C   LIG    1       -0.852   4.408  -0.150  0.00  0.00    +0.001 A 
ATOM     28  C   LIG    1       -4.545   2.608   0.076  0.00  0.00    +0.008 A 
ATOM     29  C   LIG    1       -4.674   1.286  -0.215  0.00  0.00    +0.001 A 
ATOM     30  C   LIG    1       -1.006   3.051  -0.403  0.00  0.00    +0.009 A 
ATOM     31  C   LIG    1       -3.556   0.519  -0.564  0.00  0.00    +0.007 A 
ENDBRANCH  21  22
BRANCH  21  32
ATOM     32  O   LIG    1       -0.458   0.991  -2.094  0.00  0.00    -0.383 OA
ATOM     33  H   LIG    1       -1.097   0.978  -2.821  0.00  0.00    +0.211 HD
ENDBRANCH  21  32
BRANCH  21  34
ATOM     34  C   LIG    1       -1.354  -0.981  -1.715  0.00  0.00    +0.056 C 
BRANCH  34  35
ATOM     35  C   LIG    1       -1.791  -2.232  -1.120  0.00  0.00    +0.087 C 
BRANCH  35  36
ATOM     36  N   LIG    1       -0.852  -2.932  -0.255  0.00  0.00    -0.308 NA
ATOM     37  C   LIG    1       -1.535  -4.036   0.391  0.00  0.00    +0.104 C 
ATOM     38  C   LIG    1        0.183  -3.499  -1.090  0.00  0.00    +0.104 C 
ENDBRANCH  35  36
ENDBRANCH  34  35
ENDBRANCH  21  34
ENDBRANCH   1  21
TORSDOF 9
