REMARK  Name = molecules/QULKGELYPOJSLP-WCABBAIRSA-N.pdb
REMARK                            x       y       z     vdW  Elec       q    Type
REMARK                         _______ _______ _______ _____ _____    ______ ____
ROOT
ATOM      1  CA  LIG    1       -1.342   0.529  -1.500  0.00  0.00    +0.201 C 
ATOM      2  C   LIG    1       -1.804   1.322  -0.344  0.00  0.00    +0.042 C 
ATOM      3  S   LIG    1       -1.326   0.180   1.024  0.00  0.00    -0.127 S 
ATOM      4  C   LIG    1       -1.764  -1.278   0.069  0.00  0.00    +0.165 C 
ATOM      5  CA  LIG    1       -0.738  -2.349  -0.121  0.00  0.00    +0.190 C 
ATOM      6  C   LIG    1       -1.245  -2.226  -1.524  0.00  0.00    +0.240 C 
ATOM      7  O   LIG    1       -1.471  -2.960  -2.504  0.00  0.00    -0.273 OA
ATOM      8  C   LIG    1       -1.037   2.611  -0.152  0.00  0.00    +0.025 C 
ATOM      9  C   LIG    1       -3.281   1.529  -0.344  0.00  0.00    +0.025 C 
ATOM     10  N   LIG    1       -1.371  -0.852  -1.269  0.00  0.00    -0.271 N 
ENDROOT
BRANCH   5  11
ATOM     11  N   LIG    1        0.624  -1.982   0.063  0.00  0.00    -0.301 N 
ATOM     12  C   LIG    1        1.475  -2.740   0.887  0.00  0.00    +0.224 C 
ATOM     13  O   LIG    1        1.022  -3.758   1.467  0.00  0.00    -0.275 OA
ATOM     14  H   LIG    1        1.006  -1.147  -0.419  0.00  0.00    +0.150 HD
BRANCH  12  15
ATOM     15  C   LIG    1        2.899  -2.419   1.125  0.00  0.00    +0.165 C 
BRANCH  15  16
ATOM     16  S   LIG    1        3.460  -0.914   0.329  0.00  0.00    -0.147 S 
BRANCH  16  17
ATOM     17  C   LIG    1        2.742   0.588   1.022  0.00  0.00    +0.096 C 
BRANCH  17  18
ATOM     18  C   LIG    1        3.204   0.826   2.431  0.00  0.00    -0.024 C 
ATOM     19  C   LIG    1        3.859   1.917   2.772  0.00  0.00    +0.005 C 
ENDBRANCH  17  18
ENDBRANCH  16  17
ENDBRANCH  15  16
ENDBRANCH  12  15
ENDBRANCH   5  11
BRANCH   1  20
ATOM     20  C   LIG    1       -2.115   0.844  -2.758  0.00  0.00    +0.327 C 
ATOM     21  OXT LIG    1       -2.233   2.011  -3.207  0.00  0.00    -0.249 OA
BRANCH  20  22
ATOM     22  O   LIG    1       -2.728  -0.178  -3.461  0.00  0.00    -0.479 OA
ATOM     23  H   LIG    1       -2.757  -0.109  -4.466  0.00  0.00    +0.295 HD
ENDBRANCH  20  22
ENDBRANCH   1  20
TORSDOF 7
