REMARK  Name = molecules/QVVOZYKELHAIPX-FRNBUXIHSA-N.pdb
REMARK                            x       y       z     vdW  Elec       q    Type
REMARK                         _______ _______ _______ _____ _____    ______ ____
ROOT
ATOM      1  C   LIG    1        3.667   1.877   0.269  0.00  0.00    -0.091 C 
ATOM      2  N   LIG    1        2.653   0.863   0.240  0.00  0.00    +0.386 N 
ATOM      3  C   LIG    1        1.520   1.272   1.065  0.00  0.00    -0.030 C 
ATOM      4  C   LIG    1        0.559   0.157   1.223  0.00  0.00    +0.032 C 
ATOM      5  C   LIG    1        0.251  -0.627   0.001  0.00  0.00    +0.174 C 
ATOM      6  C   LIG    1        1.033  -0.294  -1.215  0.00  0.00    +0.032 C 
ATOM      7  C   LIG    1        0.866   2.369   0.258  0.00  0.00    +0.133 C 
ATOM      8  O   LIG    1        1.617   3.249  -0.484  0.00  0.00    -0.372 OA
ATOM      9  C   LIG    1        1.276   2.116  -1.172  0.00  0.00    +0.133 C 
ATOM     10  C   LIG    1        2.026   0.827  -1.056  0.00  0.00    -0.030 C 
ENDROOT
BRANCH   5  11
ATOM     11  O   LIG    1       -1.148  -0.598  -0.323  0.00  0.00    -0.461 OA
BRANCH  11  12
ATOM     12  C   LIG    1       -1.952  -1.707  -0.306  0.00  0.00    +0.317 C 
ATOM     13  O   LIG    1       -1.424  -2.803   0.012  0.00  0.00    -0.250 OA
BRANCH  12  14
ATOM     14  C   LIG    1       -3.409  -1.672  -0.645  0.00  0.00    +0.153 C 
BRANCH  14  15
ATOM     15  C   LIG    1       -4.176  -0.798   0.234  0.00  0.00    -0.032 A 
ATOM     16  C   LIG    1       -5.235  -1.292   0.957  0.00  0.00    +0.004 A 
ATOM     17  C   LIG    1       -5.981  -0.470   1.804  0.00  0.00    +0.000 A 
ATOM     18  C   LIG    1       -5.649   0.863   1.917  0.00  0.00    +0.000 A 
ATOM     19  C   LIG    1       -4.591   1.357   1.196  0.00  0.00    +0.000 A 
ATOM     20  C   LIG    1       -3.856   0.530   0.356  0.00  0.00    +0.004 A 
ENDBRANCH  14  15
BRANCH  14  21
ATOM     21  C   LIG    1       -3.568  -1.120  -2.069  0.00  0.00    +0.175 C 
BRANCH  21  22
ATOM     22  O   LIG    1       -4.891  -1.068  -2.428  0.00  0.00    -0.394 OA
ATOM     23  H   LIG    1       -5.235  -2.000  -2.438  0.00  0.00    +0.209 HD
ENDBRANCH  21  22
ENDBRANCH  14  21
ENDBRANCH  12  14
ENDBRANCH  11  12
ENDBRANCH   5  11
BRANCH   2  24
ATOM     24  C   LIG    1        3.196  -0.386   0.648  0.00  0.00    -0.071 C 
BRANCH  24  25
ATOM     25  C   LIG    1        4.673  -0.453   0.600  0.00  0.00    -0.027 C 
ATOM     26  C   LIG    1        5.282  -1.670  -0.118  0.00  0.00    +0.002 C 
ATOM     27  C   LIG    1        5.478  -0.265  -0.647  0.00  0.00    +0.002 C 
ENDBRANCH  24  25
ENDBRANCH   2  24
TORSDOF 8
