REMARK  Name = molecules/QWAXKHKRTORLEM-UGJKXSETSA-N.pdb
REMARK                            x       y       z     vdW  Elec       q    Type
REMARK                         _______ _______ _______ _____ _____    ______ ____
ROOT
ATOM      1  C   LIG    1        0.092  -2.224   0.527  0.00  0.00    +0.107 C 
ENDROOT
BRANCH   1   2
ATOM      2  N   LIG    1        1.179  -1.493  -0.089  0.00  0.00    -0.308 N 
ATOM      3  C   LIG    1        2.252  -0.907   0.584  0.00  0.00    +0.234 C 
ATOM      4  O   LIG    1        2.320  -1.020   1.832  0.00  0.00    -0.274 OA
ATOM      5  H   LIG    1        1.188  -1.393  -1.156  0.00  0.00    +0.149 HD
BRANCH   3   6
ATOM      6  C   LIG    1        3.371  -0.130  -0.075  0.00  0.00    +0.168 C 
BRANCH   6   7
ATOM      7  N   LIG    1        4.612  -0.170   0.434  0.00  0.00    -0.298 N 
ATOM      8  H   LIG    1        4.120  -0.575   1.637  0.00  0.00    +0.150 HD
ATOM      9  C   LIG    1        5.881  -0.217   0.972  0.00  0.00    +0.263 C 
ATOM     10  O   LIG    1        6.209  -0.637   2.101  0.00  0.00    -0.269 OA
BRANCH   9  11
ATOM     11  C   LIG    1        7.062   0.281   0.182  0.00  0.00    +0.126 A 
ATOM     12  C   LIG    1        8.237  -0.372   0.258  0.00  0.00    +0.033 A 
ATOM     13  C   LIG    1        9.354   0.082  -0.461  0.00  0.00    +0.012 A 
ATOM     14  C   LIG    1        9.177   1.220  -1.237  0.00  0.00    +0.000 A 
ATOM     15  C   LIG    1        7.942   1.834  -1.267  0.00  0.00    +0.072 A 
ATOM     16  C   LIG    1        7.823   2.982  -2.042  0.00  0.00    +0.028 A 
ATOM     17  C   LIG    1        8.904   3.477  -2.751  0.00  0.00    +0.002 A 
ATOM     18  C   LIG    1       10.134   2.836  -2.701  0.00  0.00    +0.001 A 
ATOM     19  C   LIG    1       10.258   1.713  -1.944  0.00  0.00    +0.010 A 
ATOM     20  N   LIG    1        6.869   1.376  -0.564  0.00  0.00    -0.242 NA
ENDBRANCH   9  11
ENDBRANCH   6   7
BRANCH   6  21
ATOM     21  C   LIG    1        3.195  -0.249  -1.563  0.00  0.00    +0.127 C 
BRANCH  21  22
ATOM     22  C   LIG    1        4.190   0.381  -2.397  0.00  0.00    +0.213 C 
ATOM     23  O   LIG    1        5.296  -0.269  -2.568  0.00  0.00    -0.276 OA
ATOM     24  N   LIG    1        4.092   1.619  -3.046  0.00  0.00    -0.329 N 
ATOM     25  H   LIG    1        3.759   2.464  -2.544  0.00  0.00    +0.145 HD
ATOM     26  H   LIG    1        4.360   1.694  -4.060  0.00  0.00    +0.145 HD
ENDBRANCH  21  22
ENDBRANCH   6  21
ENDBRANCH   3   6
ENDBRANCH   1   2
BRANCH   1  27
ATOM     27  C   LIG    1       -0.720  -1.439   1.468  0.00  0.00    +0.149 C 
BRANCH  27  28
ATOM     28  O   LIG    1       -1.786  -2.223   1.994  0.00  0.00    -0.389 OA
ATOM     29  H   LIG    1       -2.179  -2.783   1.279  0.00  0.00    +0.210 HD
ENDBRANCH  27  28
BRANCH  27  30
ATOM     30  C   LIG    1       -1.187  -0.096   1.154  0.00  0.00    +0.118 C 
BRANCH  30  31
ATOM     31  N   LIG    1       -2.239   0.100   0.172  0.00  0.00    -0.289 NA
ATOM     32  C   LIG    1       -2.740   1.475   0.374  0.00  0.00    +0.143 C 
ATOM     33  C   LIG    1       -2.861   2.294  -0.846  0.00  0.00    +0.032 C 
ATOM     34  C   LIG    1       -3.353   1.560  -2.087  0.00  0.00    -0.005 C 
ATOM     35  C   LIG    1       -2.670   0.262  -2.187  0.00  0.00    +0.006 C 
ATOM     36  C   LIG    1       -3.482  -0.979  -2.035  0.00  0.00    +0.005 C 
ATOM     37  C   LIG    1       -4.629  -0.807  -3.055  0.00  0.00    +0.000 C 
ATOM     38  C   LIG    1       -5.493   0.254  -2.420  0.00  0.00    +0.000 C 
ATOM     39  C   LIG    1       -4.814   1.574  -2.218  0.00  0.00    +0.004 C 
ATOM     40  C   LIG    1       -1.555   0.207  -1.132  0.00  0.00    +0.089 C 
BRANCH  32  41
ATOM     41  C   LIG    1       -4.066   1.402   1.094  0.00  0.00    +0.231 C 
ATOM     42  N   LIG    1       -4.712   2.590   1.536  0.00  0.00    -0.309 N 
ATOM     43  H   LIG    1       -4.201   3.507   1.316  0.00  0.00    +0.149 HD
ATOM     44  O   LIG    1       -4.613   0.287   1.311  0.00  0.00    -0.274 OA
BRANCH  42  45
ATOM     45  C   LIG    1       -5.966   2.612   2.227  0.00  0.00    +0.026 C 
ATOM     46  C   LIG    1       -5.825   1.911   3.557  0.00  0.00    +0.031 C 
ATOM     47  C   LIG    1       -6.304   4.062   2.543  0.00  0.00    +0.031 C 
ATOM     48  C   LIG    1       -7.070   1.986   1.401  0.00  0.00    +0.031 C 
ENDBRANCH  42  45
ENDBRANCH  32  41
ENDBRANCH  30  31
ENDBRANCH  27  30
ENDBRANCH   1  27
BRANCH   1  49
ATOM     49  C   LIG    1        0.700  -3.451   1.159  0.00  0.00    +0.060 C 
BRANCH  49  50
ATOM     50  C   LIG    1       -0.223  -4.427   1.732  0.00  0.00    -0.046 A 
ATOM     51  C   LIG    1       -0.377  -4.470   3.124  0.00  0.00    +0.004 A 
ATOM     52  C   LIG    1       -1.145  -5.420   3.753  0.00  0.00    +0.000 A 
ATOM     53  C   LIG    1       -1.792  -6.366   2.998  0.00  0.00    +0.000 A 
ATOM     54  C   LIG    1       -1.667  -6.353   1.630  0.00  0.00    +0.000 A 
ATOM     55  C   LIG    1       -0.886  -5.389   0.992  0.00  0.00    +0.004 A 
ENDBRANCH  49  50
ENDBRANCH   1  49
TORSDOF 14
