REMARK  Name = molecules/QWCJHSGMANYXCW-UHFFFAOYSA-N.pdb
REMARK                            x       y       z     vdW  Elec       q    Type
REMARK                         _______ _______ _______ _____ _____    ______ ____
ROOT
ATOM      1  N   LIG    1       -0.561   0.423  -1.472  0.00  0.00    -0.199 N 
ATOM      2  H   LIG    1       -0.961   0.606  -2.408  0.00  0.00    +0.175 HD
ENDROOT
BRANCH   1   3
ATOM      3  C   LIG    1       -0.965  -0.809  -0.840  0.00  0.00    +0.141 A 
ATOM      4  N   LIG    1       -2.030  -0.963  -0.035  0.00  0.00    -0.217 N 
ATOM      5  N   LIG    1       -2.056  -2.229   0.336  0.00  0.00    -0.173 NA
ATOM      6  C   LIG    1       -1.044  -2.916  -0.198  0.00  0.00    +0.137 A 
ATOM      7  C   LIG    1       -0.343  -2.024  -0.948  0.00  0.00    +0.066 A 
BRANCH   4   8
ATOM      8  C   LIG    1       -2.954   0.064   0.342  0.00  0.00    +0.067 A 
ATOM      9  C   LIG    1       -3.303   0.191   1.670  0.00  0.00    +0.028 A 
ATOM     10  C   LIG    1       -4.192   1.166   2.087  0.00  0.00    +0.002 A 
ATOM     11  C   LIG    1       -4.712   2.001   1.133  0.00  0.00    +0.000 A 
ATOM     12  C   LIG    1       -4.363   1.875  -0.200  0.00  0.00    +0.002 A 
ATOM     13  C   LIG    1       -3.474   0.899  -0.613  0.00  0.00    +0.028 A 
ENDBRANCH   4   8
ENDBRANCH   1   3
BRANCH   1  14
ATOM     14  S   LIG    1        0.530   1.500  -0.677  0.00  0.00    +0.073 S 
ATOM     15  O   LIG    1       -0.095   1.918   0.600  0.00  0.00    -0.150 OA
ATOM     16  O   LIG    1        0.722   2.692  -1.579  0.00  0.00    -0.150 OA
BRANCH  14  17
ATOM     17  C   LIG    1        2.043   0.647  -0.430  0.00  0.00    +0.109 A 
ATOM     18  C   LIG    1        2.293  -0.088   0.710  0.00  0.00    +0.030 A 
ATOM     19  C   LIG    1        3.494  -0.749   0.878  0.00  0.00    +0.024 A 
ATOM     20  C   LIG    1        4.497  -0.715  -0.069  0.00  0.00    +0.025 A 
ATOM     21  C   LIG    1        4.248   0.020  -1.210  0.00  0.00    +0.024 A 
ATOM     22  C   LIG    1        3.047   0.680  -1.376  0.00  0.00    +0.030 A 
BRANCH  20  23
ATOM     23  N   LIG    1        5.733  -1.397   0.106  0.00  0.00    -0.358 N 
ATOM     24  H   LIG    1        6.332  -1.250   0.944  0.00  0.00    +0.142 HD
ATOM     25  H   LIG    1        6.088  -2.074  -0.606  0.00  0.00    +0.142 HD
ENDBRANCH  20  23
ENDBRANCH  14  17
ENDBRANCH   1  14
TORSDOF 5
