REMARK  Name = molecules/QWCRAEMEVRGPNT-UHFFFAOYSA-N.pdb
REMARK                            x       y       z     vdW  Elec       q    Type
REMARK                         _______ _______ _______ _____ _____    ______ ____
ROOT
ATOM      1  C   LIG    1        0.031   0.106   1.180  0.00  0.00    +0.021 C 
ENDROOT
BRANCH   1   2
ATOM      2  C   LIG    1        1.225  -0.390   1.993  0.00  0.00    +0.116 C 
BRANCH   2   5
ATOM      3  O   LIG    1        2.790  -2.025   0.278  0.00  0.00    -0.275 OA
ATOM      4  C   LIG    1        3.122  -0.819   0.392  0.00  0.00    +0.222 C 
ATOM      5  N   LIG    1        2.469  -0.005   1.343  0.00  0.00    -0.242 N 
ATOM      6  C   LIG    1        3.072   1.238   1.663  0.00  0.00    +0.222 C 
ATOM      7  O   LIG    1        2.532   1.950   2.554  0.00  0.00    -0.275 OA
ATOM      8  C   LIG    1        4.279   1.740   1.023  0.00  0.00    +0.103 C 
ATOM      9  C   LIG    1        4.977   0.822   0.114  0.00  0.00    -0.013 C 
ATOM     10  C   LIG    1        6.168   0.201   0.836  0.00  0.00    +0.008 C 
ATOM     11  C   LIG    1        7.161   0.051  -0.279  0.00  0.00    +0.001 C 
ATOM     12  C   LIG    1        7.071   1.395  -0.977  0.00  0.00    +0.001 C 
ATOM     13  C   LIG    1        5.587   1.641  -1.020  0.00  0.00    +0.008 C 
ATOM     14  C   LIG    1        4.173  -0.290  -0.461  0.00  0.00    +0.103 C 
ENDBRANCH   2   5
ENDBRANCH   1   2
BRANCH   1  15
ATOM     15  C   LIG    1        0.032  -0.470  -0.201  0.00  0.00    +0.017 C 
BRANCH  15  16
ATOM     16  C   LIG    1       -1.105   0.030  -1.020  0.00  0.00    +0.084 C 
BRANCH  16  17
ATOM     17  N   LIG    1       -2.402  -0.191  -0.613  0.00  0.00    -0.299 NA
ATOM     18  C   LIG    1       -2.994   0.436   0.471  0.00  0.00    +0.103 C 
ATOM     19  C   LIG    1       -4.400   0.929   0.077  0.00  0.00    +0.123 C 
ATOM     20  N   LIG    1       -5.102  -0.157  -0.562  0.00  0.00    -0.297 N 
ATOM     21  C   LIG    1       -4.508  -0.739  -1.741  0.00  0.00    +0.123 C 
ATOM     22  C   LIG    1       -3.097  -1.182  -1.334  0.00  0.00    +0.103 C 
BRANCH  20  23
ATOM     23  C   LIG    1       -6.338  -0.668  -0.086  0.00  0.00    +0.218 A 
ATOM     24  N   LIG    1       -6.961  -0.114   0.986  0.00  0.00    -0.223 NA
ATOM     25  C   LIG    1       -8.134  -0.575   1.458  0.00  0.00    +0.116 A 
ATOM     26  C   LIG    1       -8.756  -1.647   0.858  0.00  0.00    +0.039 A 
ATOM     27  C   LIG    1       -8.132  -2.215  -0.230  0.00  0.00    +0.116 A 
ATOM     28  N   LIG    1       -6.960  -1.713  -0.659  0.00  0.00    -0.223 NA
ENDBRANCH  20  23
ENDBRANCH  16  17
ENDBRANCH  15  16
ENDBRANCH   1  15
TORSDOF 6
