REMARK  Name = molecules/QXWZQTURMXZVHJ-UHFFFAOYSA-N.pdb
REMARK                            x       y       z     vdW  Elec       q    Type
REMARK                         _______ _______ _______ _____ _____    ______ ____
ROOT
ATOM      1  N   LIG    1       -1.508   0.065   0.501  0.00  0.00    -0.228 NA
ATOM      2  C   LIG    1       -0.939   1.244   0.783  0.00  0.00    +0.140 A 
ATOM      3  C   LIG    1       -1.804   2.348   0.818  0.00  0.00    +0.155 A 
ATOM      4  N   LIG    1       -3.124   2.244   0.584  0.00  0.00    -0.249 NA
ATOM      5  C   LIG    1       -3.670   1.047   0.303  0.00  0.00    +0.097 A 
ATOM      6  C   LIG    1       -2.829  -0.061   0.264  0.00  0.00    +0.099 A 
ENDROOT
BRANCH   5   7
ATOM      7  C   LIG    1       -5.094   0.875   0.042  0.00  0.00    +0.002 A 
ATOM      8  C   LIG    1       -5.912   0.112   0.849  0.00  0.00    +0.010 A 
ATOM      9  C   LIG    1       -7.257  -0.050   0.601  0.00  0.00    +0.001 A 
ATOM     10  C   LIG    1       -7.847   0.557  -0.488  0.00  0.00    +0.000 A 
ATOM     11  C   LIG    1       -7.045   1.323  -1.305  0.00  0.00    +0.001 A 
ATOM     12  C   LIG    1       -5.692   1.480  -1.047  0.00  0.00    +0.010 A 
ENDBRANCH   5   7
BRANCH   6  13
ATOM     13  C   LIG    1       -3.451  -1.339  -0.041  0.00  0.00    +0.003 A 
ATOM     14  C   LIG    1       -3.467  -2.368   0.865  0.00  0.00    +0.010 A 
ATOM     15  C   LIG    1       -4.075  -3.562   0.517  0.00  0.00    +0.001 A 
ATOM     16  C   LIG    1       -4.667  -3.756  -0.707  0.00  0.00    +0.000 A 
ATOM     17  C   LIG    1       -4.647  -2.719  -1.610  0.00  0.00    +0.001 A 
ATOM     18  C   LIG    1       -4.035  -1.510  -1.270  0.00  0.00    +0.010 A 
ENDBRANCH   6  13
BRANCH   2  19
ATOM     19  N   LIG    1        0.446   1.443   1.040  0.00  0.00    -0.311 N 
BRANCH  19  20
ATOM     20  C   LIG    1        1.006   1.257   2.363  0.00  0.00    +0.069 C 
ATOM     21  C   LIG    1       -0.037   0.805   3.363  0.00  0.00    +0.028 C 
ATOM     22  C   LIG    1        1.655   2.518   2.883  0.00  0.00    +0.028 C 
ENDBRANCH  19  20
BRANCH  19  23
ATOM     23  C   LIG    1        1.308   1.867  -0.020  0.00  0.00    +0.107 C 
BRANCH  23  24
ATOM     24  C   LIG    1        2.362   0.842  -0.422  0.00  0.00    +0.021 C 
BRANCH  24  25
ATOM     25  C   LIG    1        1.676  -0.386  -0.874  0.00  0.00    +0.030 C 
BRANCH  25  26
ATOM     26  C   LIG    1        2.519  -1.534  -1.310  0.00  0.00    +0.160 C 
BRANCH  26  27
ATOM     27  O   LIG    1        3.333  -1.446  -2.346  0.00  0.00    -0.371 OA
BRANCH  27  28
ATOM     28  C   LIG    1        4.370  -0.630  -2.494  0.00  0.00    +0.257 C 
BRANCH  28  29
ATOM     29  C   LIG    1        5.447  -0.712  -1.467  0.00  0.00    +0.257 C 
ATOM     30  O   LIG    1        5.303  -1.536  -0.533  0.00  0.00    -0.272 OA
ATOM     31  N   LIG    1        6.591   0.121  -1.557  0.00  0.00    -0.188 N 
ATOM     32  H   LIG    1        6.674   0.794  -2.349  0.00  0.00    +0.176 HD
BRANCH  31  33
ATOM     33  S   LIG    1        7.870   0.076  -0.407  0.00  0.00    +0.042 S 
ATOM     34  O   LIG    1        7.348  -0.606   0.840  0.00  0.00    -0.155 OA
ATOM     35  O   LIG    1        8.324   1.447   0.003  0.00  0.00    -0.155 OA
ATOM     36  C   LIG    1        9.251  -0.868  -1.002  0.00  0.00    +0.218 C 
ENDBRANCH  31  33
ENDBRANCH  28  29
ENDBRANCH  27  28
ENDBRANCH  26  27
ENDBRANCH  25  26
ENDBRANCH  24  25
ENDBRANCH  23  24
ENDBRANCH  19  23
ENDBRANCH   2  19
TORSDOF 12
