REMARK  Name = molecules/QYIYFLOTGYLRGG-GPCCPHFNSA-N.pdb
REMARK                            x       y       z     vdW  Elec       q    Type
REMARK                         _______ _______ _______ _____ _____    ______ ____
ROOT
ATOM      1  O   LIG    1       -2.648  -2.167   2.129  0.00  0.00    -0.273 OA
ATOM      2  C   LIG    1       -2.104  -1.096   1.779  0.00  0.00    +0.244 C 
ATOM      3  CA  LIG    1       -0.738  -0.573   1.774  0.00  0.00    +0.191 C 
ATOM      4  C   LIG    1       -1.325   0.810   1.682  0.00  0.00    +0.169 C 
ATOM      5  S   LIG    1       -0.717   1.851   0.367  0.00  0.00    -0.130 S 
ATOM      6  C   LIG    1       -1.839   1.642  -1.036  0.00  0.00    +0.120 C 
ATOM      7  C   LIG    1       -3.246   1.554  -0.603  0.00  0.00    +0.057 C 
ATOM      8  CA  LIG    1       -3.535   0.816   0.491  0.00  0.00    +0.137 C 
ATOM      9 CL   LIG    1       -4.550   2.355  -1.416  0.00  0.00    -0.085 Cl
ATOM     10  N   LIG    1       -2.526   0.142   1.216  0.00  0.00    -0.248 N 
ENDROOT
BRANCH   3  11
ATOM     11  N   LIG    1        0.117  -0.977   0.712  0.00  0.00    -0.300 N 
ATOM     12  C   LIG    1        1.405  -1.493   0.975  0.00  0.00    +0.235 C 
ATOM     13  O   LIG    1        1.791  -1.594   2.157  0.00  0.00    -0.274 OA
ATOM     14  H   LIG    1       -0.231  -0.882  -0.278  0.00  0.00    +0.150 HD
BRANCH  12  15
ATOM     15  CA  LIG    1        2.311  -1.919  -0.113  0.00  0.00    +0.168 C 
BRANCH  15  16
ATOM     16  C   LIG    1        2.637  -0.765  -0.983  0.00  0.00    -0.022 A 
ATOM     17  C   LIG    1        3.503   0.222  -0.579  0.00  0.00    +0.005 A 
ATOM     18  C   LIG    1        3.814   1.308  -1.392  0.00  0.00    +0.000 A 
ATOM     19  C   LIG    1        3.231   1.386  -2.635  0.00  0.00    +0.000 A 
ATOM     20  C   LIG    1        2.359   0.408  -3.061  0.00  0.00    +0.000 A 
ATOM     21  C   LIG    1        2.067  -0.665  -2.229  0.00  0.00    +0.005 A 
ENDBRANCH  15  16
BRANCH  15  22
ATOM     22  N   LIG    1        3.565  -2.406   0.462  0.00  0.00    -0.316 NA
ATOM     23  H1  LIG    1        3.330  -3.099   1.209  0.00  0.00    +0.119 HD
ATOM     24  H2  LIG    1        4.149  -2.848  -0.281  0.00  0.00    +0.119 HD
ENDBRANCH  15  22
ENDBRANCH  12  15
ENDBRANCH   3  11
BRANCH   8  25
ATOM     25  C   LIG    1       -4.918   0.694   0.918  0.00  0.00    +0.353 C 
ATOM     26  OXT LIG    1       -5.240   0.025   1.906  0.00  0.00    -0.244 OA
BRANCH  25  27
ATOM     27  O   LIG    1       -5.898   1.344   0.195  0.00  0.00    -0.476 OA
ATOM     28  H   LIG    1       -6.873   1.363   0.461  0.00  0.00    +0.295 HD
ENDBRANCH  25  27
ENDBRANCH   8  25
TORSDOF 6
