REMARK  Name = molecules/QZGIWPZCWHMVQL-UIYAJPBUSA-N.pdb
REMARK                            x       y       z     vdW  Elec       q    Type
REMARK                         _______ _______ _______ _____ _____    ______ ____
ROOT
ATOM      1  C   LIG    1       -0.162   0.467   0.485  0.00  0.00    +0.234 C 
ATOM      2  C   LIG    1       -0.427   1.497   1.544  0.00  0.00    +0.037 C 
ATOM      3  C   LIG    1       -1.717   1.678   1.617  0.00  0.00    +0.031 C 
ATOM      4  C   LIG    1       -2.458   2.601   2.342  0.00  0.00    -0.063 C 
ATOM      5  C   LIG    1       -3.093   3.349   2.805  0.00  0.00    -0.055 C 
ATOM      6  C   LIG    1       -4.044   4.354   3.259  0.00  0.00    +0.208 C 
ATOM      7  O   LIG    1       -5.314   3.934   3.550  0.00  0.00    -0.334 OA
ATOM      8  C   LIG    1       -5.198   4.215   2.200  0.00  0.00    +0.243 C 
ATOM      9  C   LIG    1       -4.722   3.100   1.348  0.00  0.00    -0.062 C 
ATOM     10  C   LIG    1       -4.278   2.248   0.815  0.00  0.00    -0.071 C 
ATOM     11  C   LIG    1       -3.645   1.139   0.256  0.00  0.00    +0.067 C 
ATOM     12  C   LIG    1       -2.415   0.776   0.627  0.00  0.00    +0.008 C 
ATOM     13  C   LIG    1       -1.401  -0.264   0.345  0.00  0.00    +0.198 C 
ENDROOT
BRANCH   6  14
ATOM     14  C   LIG    1       -3.613   5.748   3.496  0.00  0.00    +0.265 C 
ATOM     15  O   LIG    1       -3.649   6.158   4.863  0.00  0.00    -0.423 OA
ATOM     16  C   LIG    1       -3.958   7.528   4.869  0.00  0.00    +0.511 C 
ATOM     17  O   LIG    1       -3.899   8.339   5.827  0.00  0.00    -0.203 OA
ATOM     18  O   LIG    1       -4.375   7.921   3.588  0.00  0.00    -0.430 OA
ATOM     19  C   LIG    1       -4.633   6.710   2.871  0.00  0.00    +0.284 C 
ENDBRANCH   6  14
BRANCH   1  20
ATOM     20  O   LIG    1        1.038  -0.167   0.708  0.00  0.00    -0.451 OA
BRANCH  20  21
ATOM     21  C   LIG    1        2.172   0.113  -0.034  0.00  0.00    +0.344 C 
ATOM     22  O   LIG    1        1.991   0.989  -0.892  0.00  0.00    -0.245 OA
BRANCH  21  24
ATOM     23  C   LIG    1        4.581  -0.373  -0.477  0.00  0.00    +0.003 A 
ATOM     24  C   LIG    1        3.412  -0.606   0.244  0.00  0.00    +0.108 A 
ATOM     25  C   LIG    1        3.478  -1.571   1.242  0.00  0.00    +0.131 A 
ATOM     26  C   LIG    1        4.675  -2.270   1.498  0.00  0.00    +0.047 A 
ATOM     27  C   LIG    1        5.793  -2.016   0.775  0.00  0.00    +0.012 A 
ATOM     28  C   LIG    1        5.770  -1.079  -0.210  0.00  0.00    -0.014 A 
ATOM     29  C   LIG    1        6.921  -0.841  -0.920  0.00  0.00    -0.039 A 
ATOM     30  C   LIG    1        8.150  -1.602  -0.610  0.00  0.00    +0.044 C 
ATOM     31  C   LIG    1        6.921   0.112  -1.925  0.00  0.00    +0.049 A 
ATOM     32  C   LIG    1        5.779   0.827  -2.223  0.00  0.00    +0.121 A 
ATOM     33  C   LIG    1        4.623   0.565  -1.482  0.00  0.00    +0.055 A 
BRANCH  25  34
ATOM     34  O   LIG    1        2.412  -1.893   2.017  0.00  0.00    -0.506 OA
ATOM     35  H   LIG    1        1.508  -1.644   2.124  0.00  0.00    +0.292 HD
ENDBRANCH  25  34
BRANCH  32  36
ATOM     36  O   LIG    1        5.705   1.790  -3.209  0.00  0.00    -0.495 OA
ATOM     37  C   LIG    1        6.765   2.178  -4.047  0.00  0.00    +0.277 C 
ENDBRANCH  32  36
ENDBRANCH  21  24
ENDBRANCH  20  21
ENDBRANCH   1  20
BRANCH  13  38
ATOM     38  O   LIG    1       -1.726  -0.872  -0.867  0.00  0.00    -0.338 OA
BRANCH  38  39
ATOM     39  C   LIG    1       -2.265  -2.159  -0.666  0.00  0.00    +0.271 C 
ATOM     40  O   LIG    1       -3.675  -2.028  -0.860  0.00  0.00    -0.344 OA
ATOM     41  C   LIG    1       -4.342  -3.191  -0.988  0.00  0.00    +0.149 C 
ATOM     42  C   LIG    1       -4.137  -4.143   0.146  0.00  0.00    +0.041 C 
ATOM     43  C   LIG    1       -3.979  -3.911  -2.288  0.00  0.00    +0.173 C 
ATOM     44  C   LIG    1       -2.679  -3.293  -2.809  0.00  0.00    +0.167 C 
ATOM     45  C   LIG    1       -1.728  -3.127  -1.608  0.00  0.00    +0.141 C 
BRANCH  45  46
ATOM     46  N   LIG    1       -0.438  -2.787  -2.134  0.00  0.00    -0.310 NA
ATOM     47  C   LIG    1        0.559  -2.854  -1.111  0.00  0.00    +0.101 C 
ATOM     48  H   LIG    1       -0.444  -1.934  -2.705  0.00  0.00    +0.122 HD
ENDBRANCH  45  46
BRANCH  43  49
ATOM     49  O   LIG    1       -3.849  -5.272  -2.096  0.00  0.00    -0.387 OA
ATOM     50  H   LIG    1       -4.747  -5.612  -1.802  0.00  0.00    +0.210 HD
ENDBRANCH  43  49
BRANCH  44  51
ATOM     51  O   LIG    1       -2.082  -4.198  -3.667  0.00  0.00    -0.387 OA
ATOM     52  H   LIG    1       -2.268  -5.111  -3.295  0.00  0.00    +0.210 HD
ENDBRANCH  44  51
ENDBRANCH  38  39
ENDBRANCH  13  38
TORSDOF 11
