REMARK  Name = molecules/QZIQORUGXBPDSU-UHFFFAOYSA-N.pdb
REMARK                            x       y       z     vdW  Elec       q    Type
REMARK                         _______ _______ _______ _____ _____    ______ ____
ROOT
ATOM      1  N   LIG    1       -0.650  -0.156  -1.105  0.00  0.00    -0.300 N 
ATOM      2  C   LIG    1       -1.147   1.114  -0.647  0.00  0.00    +0.037 A 
ATOM      3  C   LIG    1       -1.886   1.318   0.495  0.00  0.00    -0.026 A 
ATOM      4  C   LIG    1       -2.416   0.463   1.542  0.00  0.00    +0.042 C 
ATOM      5  C   LIG    1       -1.834  -0.883   1.721  0.00  0.00    +0.042 C 
ATOM      6  C   LIG    1       -1.728  -1.732   0.522  0.00  0.00    -0.026 A 
ATOM      7  C   LIG    1       -2.219  -3.013   0.686  0.00  0.00    +0.005 A 
ATOM      8  C   LIG    1       -2.172  -3.915  -0.354  0.00  0.00    +0.000 A 
ATOM      9  C   LIG    1       -1.642  -3.597  -1.595  0.00  0.00    +0.002 A 
ATOM     10  C   LIG    1       -1.153  -2.341  -1.777  0.00  0.00    +0.024 A 
ATOM     11  C   LIG    1       -2.249   2.644   0.735  0.00  0.00    +0.005 A 
ATOM     12  C   LIG    1       -1.877   3.653  -0.133  0.00  0.00    +0.000 A 
ATOM     13  C   LIG    1       -1.140   3.406  -1.265  0.00  0.00    +0.002 A 
ATOM     14  C   LIG    1       -0.764   2.092  -1.527  0.00  0.00    +0.024 A 
ATOM     15  C   LIG    1       -1.204  -1.442  -0.729  0.00  0.00    +0.037 A 
ENDROOT
BRANCH   1  16
ATOM     16  C   LIG    1        0.466  -0.206  -1.988  0.00  0.00    +0.109 C 
BRANCH  16  17
ATOM     17  C   LIG    1        1.718   0.434  -1.328  0.00  0.00    +0.006 C 
BRANCH  17  18
ATOM     18  C   LIG    1        2.073  -0.351  -0.057  0.00  0.00    -0.028 C 
BRANCH  18  19
ATOM     19  N   LIG    1        3.220   0.203   0.584  0.00  0.00    +0.419 N 
ATOM     20  C   LIG    1        3.400  -0.475   1.854  0.00  0.00    -0.041 C 
ATOM     21  C   LIG    1        3.124   1.634   0.791  0.00  0.00    -0.041 C 
ATOM     22  O   LIG    1        4.323  -0.037  -0.177  0.00  0.00    -0.293 OA
ENDBRANCH  18  19
ENDBRANCH  17  18
ENDBRANCH  16  17
ENDBRANCH   1  16
TORSDOF 4
