REMARK  Name = molecules/QZMQDHNCNUGQSO-UHFFFAOYSA-N.pdb
REMARK                            x       y       z     vdW  Elec       q    Type
REMARK                         _______ _______ _______ _____ _____    ______ ____
ROOT
ATOM      1  N   LIG    1       -1.427  -0.078   0.137  0.00  0.00    -0.302 N 
ATOM      2  C   LIG    1       -0.089  -0.345   0.530  0.00  0.00    +0.216 C 
ATOM      3  O   LIG    1        0.172  -1.330   1.261  0.00  0.00    -0.276 OA
ENDROOT
BRANCH   1   5
ATOM      4  C   LIG    1       -1.921   2.329   0.051  0.00  0.00    +0.024 C 
ATOM      5  C   LIG    1       -1.655   1.072  -0.705  0.00  0.00    +0.104 C 
ENDBRANCH   1   5
BRANCH   1   6
ATOM      6  C   LIG    1       -2.482  -0.952   0.586  0.00  0.00    +0.104 C 
ATOM      7  C   LIG    1       -2.741  -2.091  -0.345  0.00  0.00    +0.024 C 
ENDBRANCH   1   6
BRANCH   2   8
ATOM      8  C   LIG    1        1.054   0.507   0.110  0.00  0.00    +0.099 C 
BRANCH   8   9
ATOM      9  C   LIG    1        2.363   0.004   0.664  0.00  0.00    -0.008 C 
ATOM     10  C   LIG    1        2.659  -1.399   0.197  0.00  0.00    +0.008 C 
ATOM     11  C   LIG    1        3.457   0.898   0.081  0.00  0.00    +0.008 C 
ENDBRANCH   8   9
ENDBRANCH   2   8
TORSDOF 4
