REMARK  Name = molecules/QZQSENRWYLQIPC-JPVHLGFFSA-N.pdb
REMARK                            x       y       z     vdW  Elec       q    Type
REMARK                         _______ _______ _______ _____ _____    ______ ____
ROOT
ATOM      1  C   LIG    1       -2.522  -2.505   0.097  0.00  0.00    +0.019 C 
ATOM      2  C   LIG    1       -2.394  -1.185  -0.599  0.00  0.00    +0.033 C 
ATOM      3  C   LIG    1       -1.835  -0.092   0.289  0.00  0.00    +0.010 C 
ATOM      4  C   LIG    1       -2.857  -0.043   1.353  0.00  0.00    +0.057 C 
ATOM      5  C   LIG    1       -4.106   0.068   0.493  0.00  0.00    +0.243 C 
ATOM      6  C   LIG    1       -0.462  -0.490   0.639  0.00  0.00    +0.001 C 
ATOM      7  C   LIG    1        0.181   0.310   1.737  0.00  0.00    +0.009 C 
ATOM      8  C   LIG    1        1.486  -0.434   2.060  0.00  0.00    +0.036 C 
ATOM      9  C   LIG    1        2.312  -0.371   0.825  0.00  0.00    -0.040 A 
ATOM     10  C   LIG    1        3.683  -0.427   0.944  0.00  0.00    +0.050 A 
ATOM     11  C   LIG    1        4.511  -0.371  -0.180  0.00  0.00    +0.132 A 
ATOM     12  C   LIG    1        3.973  -0.259  -1.443  0.00  0.00    +0.046 A 
ATOM     13  C   LIG    1        2.589  -0.205  -1.536  0.00  0.00    +0.008 A 
ATOM     14  C   LIG    1        1.764  -0.259  -0.435  0.00  0.00    -0.041 A 
ATOM     15  C   LIG    1        0.314  -0.196  -0.635  0.00  0.00    +0.023 C 
ATOM     16  C   LIG    1       -0.180  -0.976  -1.813  0.00  0.00    +0.009 C 
ATOM     17  C   LIG    1       -3.781  -0.651  -0.776  0.00  0.00    +0.180 C 
ATOM     18  O   LIG    1       -4.526  -0.744  -1.710  0.00  0.00    -0.293 OA
ATOM     19  C   LIG    1       -1.615  -1.298  -1.848  0.00  0.00    +0.015 C 
ENDROOT
BRANCH   5  20
ATOM     20  O   LIG    1       -4.320   1.425   0.124  0.00  0.00    -0.454 OA
BRANCH  20  21
ATOM     21  C   LIG    1       -5.488   2.104   0.368  0.00  0.00    +0.305 C 
ATOM     22  O   LIG    1       -6.434   1.519   0.946  0.00  0.00    -0.251 OA
ATOM     23  C   LIG    1       -5.580   3.529  -0.072  0.00  0.00    +0.136 C 
ENDBRANCH  20  21
ENDBRANCH   5  20
BRANCH  11  24
ATOM     24  O   LIG    1        5.889  -0.426  -0.070  0.00  0.00    -0.426 OA
BRANCH  24  25
ATOM     25  C   LIG    1        6.584   0.760   0.073  0.00  0.00    +0.309 C 
ATOM     26  C   LIG    1        8.066   0.739   0.195  0.00  0.00    +0.136 C 
ATOM     27  O   LIG    1        6.013   1.875   0.105  0.00  0.00    -0.251 OA
ENDBRANCH  24  25
ENDBRANCH  11  24
TORSDOF 4
