REMARK  Name = molecules/QZUDBNBUXVUHMW-UHFFFAOYSA-N.pdb
REMARK                            x       y       z     vdW  Elec       q    Type
REMARK                         _______ _______ _______ _____ _____    ______ ____
ROOT
ATOM      1  C   LIG    1       -0.179  -0.083   0.055  0.00  0.00    +0.323 C 
ATOM      2  C   LIG    1       -0.916  -1.339   0.056  0.00  0.00    +0.087 A 
ATOM      3  C   LIG    1       -2.289  -1.477   0.213  0.00  0.00    +0.046 A 
ATOM      4  N   LIG    1       -3.258  -0.437   0.399  0.00  0.00    -0.310 N 
ATOM      5  H   LIG    1       -4.190  -0.744   0.746  0.00  0.00    +0.152 HD
ATOM      6  C   LIG    1       -3.147   0.962   0.180  0.00  0.00    +0.083 A 
ATOM      7  C   LIG    1       -4.360   1.610   0.135  0.00  0.00    +0.029 A 
ATOM      8  C   LIG    1       -4.378   2.965  -0.073  0.00  0.00    +0.022 A 
ATOM      9  C   LIG    1       -3.204   3.691  -0.240  0.00  0.00    +0.045 A 
ATOM     10  C   LIG    1       -2.009   3.037  -0.193  0.00  0.00    +0.077 A 
ATOM     11 CL   LIG    1       -3.215   5.418  -0.507  0.00  0.00    -0.083 Cl
ATOM     12  C   LIG    1       -1.954   1.658   0.018  0.00  0.00    +0.199 A 
ATOM     13  C   LIG    1       -2.821  -2.730   0.192  0.00  0.00    +0.024 A 
ATOM     14  C   LIG    1       -2.035  -3.864   0.018  0.00  0.00    +0.002 A 
ATOM     15  C   LIG    1       -0.675  -3.724  -0.138  0.00  0.00    +0.001 A 
ATOM     16  C   LIG    1       -0.125  -2.455  -0.118  0.00  0.00    +0.018 A 
ATOM     17  N   LIG    1       -0.629   1.146   0.039  0.00  0.00    -0.040 NA
ENDROOT
BRANCH   1  22
ATOM     18  C   LIG    1        4.788   1.202  -0.303  0.00  0.00    +0.105 C 
ATOM     19  N   LIG    1        3.997   0.128   0.268  0.00  0.00    -0.298 NA
ATOM     20  C   LIG    1        3.099   0.572   1.283  0.00  0.00    +0.128 C 
ATOM     21  C   LIG    1        1.925  -0.415   1.334  0.00  0.00    +0.241 C 
ATOM     22  N   LIG    1        1.232  -0.233   0.074  0.00  0.00    -0.218 N 
ATOM     23  C   LIG    1        2.043  -0.202  -1.126  0.00  0.00    +0.241 C 
ATOM     24  C   LIG    1        3.426  -0.724  -0.733  0.00  0.00    +0.128 C 
ENDBRANCH   1  22
TORSDOF 1
