REMARK  Name = molecules/QZVNQOLPLYWLHQ-ZEQKJWHPSA-N.pdb
REMARK                            x       y       z     vdW  Elec       q    Type
REMARK                         _______ _______ _______ _____ _____    ______ ____
ROOT
ATOM      1  C   LIG    1       -1.480   1.086   0.566  0.00  0.00    +0.065 C 
ATOM      2  C   LIG    1       -2.872   0.630   0.636  0.00  0.00    +0.096 C 
ATOM      3  C   LIG    1       -3.861   1.463  -0.039  0.00  0.00    +0.065 C 
ATOM      4  C   LIG    1       -3.486   2.571  -0.673  0.00  0.00    +0.016 C 
ATOM      5  N   LIG    1       -2.132   2.987  -0.723  0.00  0.00    -0.321 N 
ATOM      6  H   LIG    1       -1.846   3.878  -1.235  0.00  0.00    +0.152 HD
ATOM      7  C   LIG    1       -4.524   3.407  -1.357  0.00  0.00    +0.061 C 
ATOM      8  C   LIG    1       -1.161   2.182  -0.069  0.00  0.00    +0.016 C 
ATOM      9  C   LIG    1        0.258   2.663  -0.150  0.00  0.00    +0.061 C 
ENDROOT
BRANCH   2  10
ATOM     10  C   LIG    1       -3.002  -0.748   0.053  0.00  0.00    -0.033 A 
ATOM     11  C   LIG    1       -3.374  -1.779   0.884  0.00  0.00    +0.037 A 
ATOM     12  C   LIG    1       -3.509  -3.065   0.396  0.00  0.00    +0.126 A 
ATOM     13  C   LIG    1       -3.265  -3.310  -0.942  0.00  0.00    +0.033 A 
ATOM     14  C   LIG    1       -2.889  -2.251  -1.767  0.00  0.00    +0.003 A 
ATOM     15  C   LIG    1       -2.753  -0.969  -1.289  0.00  0.00    +0.005 A 
BRANCH  12  16
ATOM     16  N   LIG    1       -3.895  -4.123   1.270  0.00  0.00    +0.056 N 
ATOM     17  O   LIG    1       -4.108  -3.884   2.470  0.00  0.00    -0.126 OA
ATOM     18  O   LIG    1       -4.027  -5.387   0.785  0.00  0.00    -0.126 OA
ENDBRANCH  12  16
ENDBRANCH   2  10
BRANCH   1  19
ATOM     19  C   LIG    1       -0.419   0.298   1.223  0.00  0.00    +0.338 C 
ATOM     20  O   LIG    1       -0.683  -0.762   1.844  0.00  0.00    -0.245 OA
BRANCH  19  21
ATOM     21  O   LIG    1        0.899   0.654   1.204  0.00  0.00    -0.457 OA
BRANCH  21  22
ATOM     22  C   LIG    1        1.948  -0.038   1.799  0.00  0.00    +0.191 C 
ATOM     23  C   LIG    1        2.792   0.789   2.727  0.00  0.00    +0.047 C 
ATOM     24  C   LIG    1        4.220   0.290   2.641  0.00  0.00    +0.019 C 
ATOM     25  C   LIG    1        4.847   0.586   1.292  0.00  0.00    +0.085 C 
ATOM     26  N   LIG    1        3.758   0.585   0.335  0.00  0.00    -0.295 NA
ATOM     27  C   LIG    1        2.856  -0.475   0.637  0.00  0.00    +0.129 C 
BRANCH  26  28
ATOM     28  C   LIG    1        4.189   0.644  -1.016  0.00  0.00    +0.119 C 
BRANCH  28  29
ATOM     29  C   LIG    1        4.915  -0.553  -1.474  0.00  0.00    -0.033 A 
ATOM     30  C   LIG    1        6.303  -0.649  -1.327  0.00  0.00    +0.005 A 
ATOM     31  C   LIG    1        6.971  -1.765  -1.755  0.00  0.00    +0.000 A 
ATOM     32  C   LIG    1        6.325  -2.820  -2.337  0.00  0.00    +0.000 A 
ATOM     33  C   LIG    1        4.958  -2.736  -2.488  0.00  0.00    +0.000 A 
ATOM     34  C   LIG    1        4.271  -1.604  -2.054  0.00  0.00    +0.005 A 
ENDBRANCH  28  29
ENDBRANCH  26  28
ENDBRANCH  21  22
ENDBRANCH  19  21
ENDBRANCH   1  19
BRANCH   3  35
ATOM     35  C   LIG    1       -5.279   1.079  -0.019  0.00  0.00    +0.337 C 
ATOM     36  O   LIG    1       -5.584   0.027   0.591  0.00  0.00    -0.245 OA
BRANCH  35  37
ATOM     37  O   LIG    1       -6.280   1.786  -0.617  0.00  0.00    -0.465 OA
ATOM     38  C   LIG    1       -7.611   1.319  -0.532  0.00  0.00    +0.280 C 
ENDBRANCH  35  37
ENDBRANCH   3  35
TORSDOF 9
