REMARK  Name = molecules/RAPZEAPATHNIPO-UHFFFAOYSA-N.pdb
REMARK                            x       y       z     vdW  Elec       q    Type
REMARK                         _______ _______ _______ _____ _____    ______ ____
ROOT
ATOM      1  C   LIG    1        3.583   0.120   0.861  0.00  0.00    +0.044 C 
ATOM      2  C   LIG    1        2.894   1.477   0.915  0.00  0.00    +0.025 C 
ATOM      3  C   LIG    1        1.800   1.643  -0.109  0.00  0.00    +0.085 C 
ATOM      4  N   LIG    1        0.795   0.647  -0.067  0.00  0.00    -0.302 NA
ATOM      5  C   LIG    1        1.206  -0.480   0.737  0.00  0.00    +0.085 C 
ATOM      6  C   LIG    1        2.604  -0.857   0.206  0.00  0.00    +0.025 C 
ENDROOT
BRANCH   1  12
ATOM      7  F   LIG    1       10.134  -0.429   1.225  0.00  0.00    -0.205 F 
ATOM      8  C   LIG    1        8.791  -0.249   0.961  0.00  0.00    +0.127 A 
ATOM      9  C   LIG    1        7.923  -0.506   2.004  0.00  0.00    +0.039 A 
ATOM     10  C   LIG    1        6.577  -0.349   1.728  0.00  0.00    +0.016 A 
ATOM     11  C   LIG    1        6.140   0.037   0.483  0.00  0.00    +0.045 A 
ATOM     12  C   LIG    1        4.797   0.205   0.027  0.00  0.00    +0.094 A 
ATOM     13  N   LIG    1        4.995   0.555  -1.256  0.00  0.00    -0.082 NA
ATOM     14  O   LIG    1        6.259   0.596  -1.567  0.00  0.00    -0.354 OA
ATOM     15  C   LIG    1        7.008   0.280  -0.527  0.00  0.00    +0.170 A 
ATOM     16  C   LIG    1        8.368   0.143  -0.308  0.00  0.00    +0.088 A 
ENDBRANCH   1  12
BRANCH   4  17
ATOM     17  C   LIG    1       -0.581   0.965   0.017  0.00  0.00    +0.089 C 
BRANCH  17  18
ATOM     18  C   LIG    1       -1.328  -0.266  -0.489  0.00  0.00    +0.058 C 
BRANCH  18  19
ATOM     19  C   LIG    1       -2.790  -0.168  -0.606  0.00  0.00    +0.039 A 
ATOM     20  C   LIG    1       -3.650  -0.040   0.452  0.00  0.00    +0.258 A 
ATOM     21  O   LIG    1       -3.111   0.101   1.599  0.00  0.00    -0.267 OA
ATOM     22  N   LIG    1       -5.013  -0.055   0.336  0.00  0.00    -0.296 N 
ATOM     23  C   LIG    1       -5.767   0.066   1.541  0.00  0.00    +0.126 C 
ATOM     24  C   LIG    1       -7.209  -0.244   1.384  0.00  0.00    +0.022 C 
ATOM     25  C   LIG    1       -7.521  -1.041   0.162  0.00  0.00    +0.009 C 
ATOM     26  C   LIG    1       -7.048  -0.249  -1.048  0.00  0.00    +0.074 C 
ATOM     27  C   LIG    1       -5.557  -0.200  -0.887  0.00  0.00    +0.113 A 
ATOM     28  N   LIG    1       -4.742  -0.322  -1.936  0.00  0.00    -0.238 NA
ATOM     29  C   LIG    1       -3.405  -0.314  -1.867  0.00  0.00    +0.049 A 
ATOM     30  C   LIG    1       -2.538  -0.526  -3.076  0.00  0.00    +0.066 C 
ENDBRANCH  18  19
ENDBRANCH  17  18
ENDBRANCH   4  17
TORSDOF 4
