REMARK  Name = molecules/RARQHAFNGNPQCZ-UHFFFAOYSA-N.pdb
REMARK                            x       y       z     vdW  Elec       q    Type
REMARK                         _______ _______ _______ _____ _____    ______ ____
ROOT
ATOM      1  C   LIG    1       -0.668  -0.679   0.405  0.00  0.00    +0.200 C 
ATOM      2  C   LIG    1       -1.137  -1.748   1.367  0.00  0.00    +0.067 C 
ATOM      3  C   LIG    1       -0.838  -1.248  -0.996  0.00  0.00    +0.067 C 
ENDROOT
BRANCH   1   4
ATOM      4  C   LIG    1        0.786  -0.364   0.652  0.00  0.00    +0.351 C 
ATOM      5  O   LIG    1        1.165   0.812   0.887  0.00  0.00    -0.246 OA
BRANCH   4   6
ATOM      6  O   LIG    1        1.747  -1.347   0.630  0.00  0.00    -0.457 OA
BRANCH   6   7
ATOM      7  C   LIG    1        3.106  -1.161   0.845  0.00  0.00    +0.269 C 
BRANCH   7   8
ATOM      8  C   LIG    1        3.788  -0.253  -0.091  0.00  0.00    +0.008 A 
ATOM      9  C   LIG    1        4.071   1.060   0.225  0.00  0.00    +0.010 A 
ATOM     10  C   LIG    1        4.720   1.890  -0.698  0.00  0.00    +0.020 A 
ATOM     11  C   LIG    1        5.089   1.415  -1.939  0.00  0.00    +0.111 A 
ATOM     12  N   LIG    1        4.804   0.132  -2.227  0.00  0.00    -0.263 NA
ATOM     13  C   LIG    1        4.180  -0.681  -1.349  0.00  0.00    +0.117 A 
ENDBRANCH   7   8
ENDBRANCH   6   7
ENDBRANCH   4   6
ENDBRANCH   1   4
BRANCH   1  14
ATOM     14  O   LIG    1       -1.372   0.510   0.494  0.00  0.00    -0.475 OA
BRANCH  14  15
ATOM     15  C   LIG    1       -2.716   0.698   0.339  0.00  0.00    +0.122 A 
ATOM     16  C   LIG    1       -3.598   0.621   1.397  0.00  0.00    +0.047 A 
ATOM     17  C   LIG    1       -4.969   0.817   1.213  0.00  0.00    +0.023 A 
ATOM     18  C   LIG    1       -5.481   1.093  -0.037  0.00  0.00    +0.041 A 
ATOM     19 CL   LIG    1       -7.208   1.331  -0.222  0.00  0.00    -0.084 Cl
ATOM     20  C   LIG    1       -4.601   1.171  -1.103  0.00  0.00    +0.023 A 
ATOM     21  C   LIG    1       -3.245   0.975  -0.904  0.00  0.00    +0.047 A 
ENDBRANCH  14  15
ENDBRANCH   1  14
TORSDOF 6
