REMARK  Name = molecules/RATGSRSDPNECNO-QMMMGPOBSA-N.pdb
REMARK                            x       y       z     vdW  Elec       q    Type
REMARK                         _______ _______ _______ _____ _____    ______ ____
ROOT
ATOM      1  N   LIG    1        1.389   0.542  -0.181  0.00  0.00    -0.248 N 
ATOM      2  C   LIG    1        0.343   0.112   0.720  0.00  0.00    +0.242 C 
ATOM      3  O   LIG    1        0.415  -0.939   1.389  0.00  0.00    -0.273 OA
ATOM      4  C   LIG    1       -0.705   1.143   0.634  0.00  0.00    +0.159 C 
ATOM      5  N   LIG    1        0.083   2.374   0.419  0.00  0.00    -0.315 N 
ATOM      6  H   LIG    1       -0.123   3.333   0.745  0.00  0.00    +0.148 HD
ATOM      7  C   LIG    1        1.202   1.941  -0.347  0.00  0.00    +0.140 C 
ATOM      8  S   LIG    1        2.158   2.881  -1.292  0.00  0.00    -0.018 S 
ENDROOT
BRANCH   1   9
ATOM      9  C   LIG    1        2.420  -0.294  -0.790  0.00  0.00    +0.142 C 
BRANCH   9  10
ATOM     10  C   LIG    1        3.627  -0.365   0.060  0.00  0.00    -0.015 C 
ATOM     11  C   LIG    1        4.053  -1.527   0.521  0.00  0.00    +0.005 C 
ENDBRANCH   9  10
ENDBRANCH   1   9
BRANCH   4  12
ATOM     12  C   LIG    1       -1.680   0.935  -0.467  0.00  0.00    +0.034 C 
BRANCH  12  13
ATOM     13  C   LIG    1       -2.465  -0.319  -0.444  0.00  0.00    -0.015 C 
ATOM     14  C   LIG    1       -3.261  -0.360   0.869  0.00  0.00    +0.007 C 
ATOM     15  C   LIG    1       -1.741  -1.597  -0.586  0.00  0.00    +0.007 C 
ENDBRANCH  12  13
ENDBRANCH   4  12
TORSDOF 4
