REMARK  Name = molecules/RBFQPFFCDLXWQK-UXUCURBISA-N.pdb
REMARK                            x       y       z     vdW  Elec       q    Type
REMARK                         _______ _______ _______ _____ _____    ______ ____
ROOT
ATOM      1  C   LIG    1       -3.481  -1.228   0.608  0.00  0.00    +0.015 C 
ATOM      2  C   LIG    1       -3.605   0.154   0.091  0.00  0.00    +0.007 C 
ATOM      3  C   LIG    1       -2.687   1.119   0.858  0.00  0.00    +0.002 C 
ATOM      4  C   LIG    1       -3.353   1.071   2.215  0.00  0.00    +0.008 C 
ATOM      5  C   LIG    1       -4.850   0.853   1.933  0.00  0.00    +0.043 C 
ATOM      6  C   LIG    1       -1.310   0.569   0.812  0.00  0.00    +0.000 C 
ATOM      7  C   LIG    1       -0.309   1.547   1.464  0.00  0.00    +0.031 C 
ATOM      8  C   LIG    1        1.052   1.016   1.273  0.00  0.00    -0.022 C 
ATOM      9  C   LIG    1        1.421   0.174   0.340  0.00  0.00    -0.042 C 
ATOM     10  C   LIG    1        2.788  -0.315   0.191  0.00  0.00    +0.045 C 
ATOM     11  C   LIG    1        3.252  -0.646  -0.988  0.00  0.00    +0.098 C 
ATOM     12  C   LIG    1        2.456  -0.551  -2.200  0.00  0.00    +0.074 C 
ATOM     13  C   LIG    1        1.010  -0.260  -2.057  0.00  0.00    +0.019 C 
ATOM     14  C   LIG    1        0.451  -0.364  -0.680  0.00  0.00    -0.004 C 
ATOM     15  C   LIG    1        0.306  -1.838  -0.339  0.00  0.00    +0.016 C 
ATOM     16  C   LIG    1       -0.859   0.388  -0.591  0.00  0.00    +0.003 C 
ATOM     17  C   LIG    1       -1.843  -0.243  -1.529  0.00  0.00    +0.005 C 
ATOM     18  C   LIG    1       -4.950   0.754   0.431  0.00  0.00    +0.129 C 
ATOM     19  C   LIG    1       -3.247   0.290  -1.349  0.00  0.00    +0.010 C 
ENDROOT
BRANCH  18  20
ATOM     20  C   LIG    1       -6.090  -0.011  -0.068  0.00  0.00    +0.162 C 
ATOM     21  C   LIG    1       -6.518  -1.359   0.385  0.00  0.00    +0.089 C 
ATOM     22  O   LIG    1       -6.762   0.550  -0.966  0.00  0.00    -0.295 OA
ENDBRANCH  18  20
BRANCH  18  23
ATOM     23  O   LIG    1       -4.986   2.091  -0.040  0.00  0.00    -0.381 OA
ATOM     24  H   LIG    1       -5.521   2.147  -0.876  0.00  0.00    +0.211 HD
ENDBRANCH  18  23
BRANCH  11  25
ATOM     25  O   LIG    1        4.556  -1.106  -1.073  0.00  0.00    -0.493 OA
BRANCH  25  26
ATOM     26  C   LIG    1        5.466  -1.027   0.007  0.00  0.00    +0.173 C 
ATOM     27  C   LIG    1        5.623   0.433   0.369  0.00  0.00    +0.044 C 
ATOM     28  C   LIG    1        6.985   0.862  -0.133  0.00  0.00    +0.004 C 
ATOM     29  C   LIG    1        7.800  -0.401  -0.003  0.00  0.00    +0.004 C 
ATOM     30  C   LIG    1        6.833  -1.492  -0.414  0.00  0.00    +0.044 C 
ENDBRANCH  25  26
ENDBRANCH  11  25
TORSDOF 4
