REMARK  Name = molecules/RBKASMJPSJDQKY-RBFSKHHSSA-N.pdb
REMARK                            x       y       z     vdW  Elec       q    Type
REMARK                         _______ _______ _______ _____ _____    ______ ____
ROOT
ATOM      1  C   LIG    1        1.349   1.117   0.668  0.00  0.00    +0.151 C 
ATOM      2  O   LIG    1        0.615   0.821   1.629  0.00  0.00    -0.296 OA
ENDROOT
BRANCH   1  22
ATOM      3  C   LIG    1        3.530  -0.902   0.503  0.00  0.00    +0.012 C 
ATOM      4  C   LIG    1        3.788   0.573   0.368  0.00  0.00    -0.015 C 
ATOM      5  C   LIG    1        5.001   0.984   1.224  0.00  0.00    +0.003 C 
ATOM      6  C   LIG    1        4.440   0.714   2.598  0.00  0.00    +0.008 C 
ATOM      7  C   LIG    1        3.024   1.220   2.487  0.00  0.00    -0.003 C 
ATOM      8  C   LIG    1        2.878   2.474   3.284  0.00  0.00    +0.008 C 
ATOM      9  C   LIG    1        6.231   0.218   0.916  0.00  0.00    +0.020 C 
ATOM     10  C   LIG    1        7.428   1.094   1.127  0.00  0.00    +0.012 C 
ATOM     11  C   LIG    1        8.747   0.494   0.728  0.00  0.00    +0.032 C 
ATOM     12  C   LIG    1        8.635  -0.263  -0.564  0.00  0.00    -0.052 C 
ATOM     13  C   LIG    1        7.453  -1.077  -0.853  0.00  0.00    +0.029 C 
ATOM     14  C   LIG    1        7.513  -2.229   0.197  0.00  0.00    +0.025 C 
ATOM     15  C   LIG    1        7.461  -1.698  -2.146  0.00  0.00    -0.008 C 
ATOM     16  C   LIG    1        8.419  -1.584  -3.018  0.00  0.00    +0.048 C 
ATOM     17  C   LIG    1        9.598  -0.779  -2.724  0.00  0.00    +0.179 C 
ATOM     18  O   LIG    1       10.524  -0.672  -3.567  0.00  0.00    -0.288 OA
ATOM     19  C   LIG    1        9.611  -0.132  -1.419  0.00  0.00    +0.051 C 
ATOM     20  C   LIG    1        6.261  -0.239  -0.519  0.00  0.00    -0.056 C 
ATOM     21  C   LIG    1        5.348   0.081  -1.395  0.00  0.00    -0.026 C 
ATOM     22  C   LIG    1        2.742   1.425   0.990  0.00  0.00    +0.066 C 
ATOM     23  C   LIG    1        4.178   0.943  -1.039  0.00  0.00    +0.034 C 
ENDBRANCH   1  22
BRANCH   1  24
ATOM     24  C   LIG    1        0.728   1.123  -0.658  0.00  0.00    +0.159 C 
BRANCH  24  25
ATOM     25  N   LIG    1       -0.714   0.947  -0.603  0.00  0.00    -0.292 NA
ATOM     26  C   LIG    1       -1.382   2.058  -0.007  0.00  0.00    +0.104 C 
ATOM     27  C   LIG    1       -2.878   1.905  -0.108  0.00  0.00    +0.122 C 
ATOM     28  N   LIG    1       -3.298   0.560   0.181  0.00  0.00    -0.313 N 
ATOM     29  C   LIG    1       -2.342  -0.377   0.708  0.00  0.00    +0.122 C 
ATOM     30  C   LIG    1       -1.115  -0.347  -0.172  0.00  0.00    +0.104 C 
BRANCH  28  31
ATOM     31  C   LIG    1       -4.638   0.182  -0.062  0.00  0.00    +0.128 A 
ATOM     32  N   LIG    1       -5.023  -1.106   0.081  0.00  0.00    -0.199 NA
ATOM     33  C   LIG    1       -6.271  -1.523  -0.140  0.00  0.00    +0.221 A 
ATOM     34  N   LIG    1       -7.183  -0.624  -0.519  0.00  0.00    -0.199 NA
ATOM     35  C   LIG    1       -6.909   0.694  -0.694  0.00  0.00    +0.128 A 
ATOM     36  C   LIG    1       -5.607   1.086  -0.456  0.00  0.00    +0.087 A 
BRANCH  33  37
ATOM     37  N   LIG    1       -6.645  -2.878   0.013  0.00  0.00    -0.300 N 
ATOM     38  C   LIG    1       -5.734  -3.926   0.436  0.00  0.00    +0.108 C 
ATOM     39  C   LIG    1       -6.479  -5.214   0.156  0.00  0.00    +0.020 C 
ATOM     40  C   LIG    1       -7.946  -4.834   0.173  0.00  0.00    +0.020 C 
ATOM     41  C   LIG    1       -7.961  -3.405  -0.231  0.00  0.00    +0.108 C 
ENDBRANCH  33  37
BRANCH  35  42
ATOM     42  N   LIG    1       -7.939   1.567  -1.093  0.00  0.00    -0.315 N 
ATOM     43  C   LIG    1       -7.821   2.983  -1.316  0.00  0.00    +0.106 C 
ATOM     44  C   LIG    1       -9.175   3.503  -0.828  0.00  0.00    +0.020 C 
ATOM     45  C   LIG    1      -10.034   2.304  -0.559  0.00  0.00    +0.020 C 
ATOM     46  C   LIG    1       -9.308   1.208  -1.350  0.00  0.00    +0.106 C 
ENDBRANCH  35  42
ENDBRANCH  28  31
ENDBRANCH  24  25
ENDBRANCH   1  24
TORSDOF 6
