REMARK  Name = molecules/RBNWAMSGVWEHFP-WAAGHKOSSA-N.pdb
REMARK                            x       y       z     vdW  Elec       q    Type
REMARK                         _______ _______ _______ _____ _____    ______ ____
ROOT
ATOM      1  C   LIG    1        1.300   0.449   1.097  0.00  0.00    +0.035 C 
ATOM      2  C   LIG    1        0.172  -0.536   0.989  0.00  0.00    +0.009 C 
ATOM      3  C   LIG    1       -0.636  -0.394  -0.260  0.00  0.00    +0.020 C 
ATOM      4  C   LIG    1        0.038   0.551  -1.197  0.00  0.00    +0.009 C 
ATOM      5  C   LIG    1        1.490   0.097  -1.333  0.00  0.00    +0.035 C 
ATOM      6  C   LIG    1        2.237   0.406  -0.065  0.00  0.00    +0.063 C 
ATOM      7  C   LIG    1        3.302  -0.655   0.223  0.00  0.00    +0.041 C 
ENDROOT
BRANCH   3   8
ATOM      8  C   LIG    1       -2.031   0.014   0.116  0.00  0.00    +0.063 C 
ATOM      9  C   LIG    1       -2.562  -1.018   1.089  0.00  0.00    +0.041 C 
ATOM     10  C   LIG    1       -2.966   0.127  -1.038  0.00  0.00    +0.041 C 
BRANCH   8  11
ATOM     11  O   LIG    1       -1.976   1.267   0.766  0.00  0.00    -0.389 OA
ATOM     12  H   LIG    1       -1.836   1.956   0.066  0.00  0.00    +0.210 HD
ENDBRANCH   8  11
ENDBRANCH   3   8
BRANCH   6  13
ATOM     13  O   LIG    1        2.892   1.634  -0.137  0.00  0.00    -0.389 OA
ATOM     14  H   LIG    1        2.496   2.301   0.494  0.00  0.00    +0.210 HD
ENDBRANCH   6  13
TORSDOF 3
