REMARK  Name = molecules/RBOXVHNMENFORY-DNJOTXNNSA-N.pdb
REMARK                            x       y       z     vdW  Elec       q    Type
REMARK                         _______ _______ _______ _____ _____    ______ ____
ROOT
ATOM      1  C   LIG    1        0.936   2.516   0.370  0.00  0.00    +0.156 C 
ATOM      2  C   LIG    1        0.872   1.337   1.283  0.00  0.00    +0.213 C 
ATOM      3  O   LIG    1        2.090   0.568   1.165  0.00  0.00    -0.481 OA
ATOM      4  C   LIG    1        1.927  -0.340   0.126  0.00  0.00    +0.167 A 
ATOM      5  C   LIG    1        0.597  -0.521  -0.064  0.00  0.00    +0.011 A 
ATOM      6  C   LIG    1        0.011  -1.327  -0.983  0.00  0.00    -0.038 A 
ATOM      7  C   LIG    1       -1.455  -1.387  -1.039  0.00  0.00    +0.054 C 
ATOM      8  C   LIG    1       -2.168  -0.374  -0.222  0.00  0.00    +0.065 C 
ATOM      9  N   LIG    1       -2.723  -1.008   0.956  0.00  0.00    -0.302 NA
ATOM     10  C   LIG    1       -2.044  -0.690   2.165  0.00  0.00    +0.085 C 
ATOM     11  C   LIG    1       -0.564  -0.560   2.060  0.00  0.00    +0.031 C 
ATOM     12  C   LIG    1       -4.098  -0.558   1.077  0.00  0.00    +0.105 C 
ATOM     13  C   LIG    1       -1.367   0.807   0.225  0.00  0.00    +0.021 C 
ATOM     14  C   LIG    1       -1.048   1.807  -0.831  0.00  0.00    +0.009 C 
ATOM     15  C   LIG    1        0.848  -2.041  -1.815  0.00  0.00    +0.008 A 
ATOM     16  C   LIG    1        2.233  -1.910  -1.683  0.00  0.00    +0.050 A 
ATOM     17  C   LIG    1        2.767  -1.067  -0.720  0.00  0.00    +0.162 A 
ATOM     18  C   LIG    1       -0.134   0.315   0.914  0.00  0.00    +0.044 C 
ATOM     19  C   LIG    1       -0.421   2.998  -0.092  0.00  0.00    +0.035 C 
ENDROOT
BRANCH   1  20
ATOM     20  O   LIG    1        1.690   2.269  -0.786  0.00  0.00    -0.388 OA
ATOM     21  H   LIG    1        1.478   3.002  -1.422  0.00  0.00    +0.210 HD
ENDBRANCH   1  20
BRANCH  17  22
ATOM     22  O   LIG    1        4.136  -0.912  -0.560  0.00  0.00    -0.491 OA
ATOM     23  C   LIG    1        5.082  -1.583  -1.344  0.00  0.00    +0.277 C 
ENDBRANCH  17  22
TORSDOF 2
