REMARK  Name = molecules/RBQOQRRFDPXAGN-UHFFFAOYSA-N.pdb
REMARK                            x       y       z     vdW  Elec       q    Type
REMARK                         _______ _______ _______ _____ _____    ______ ____
ROOT
ATOM      1  N   LIG    1       -3.478  -0.496   0.762  0.00  0.00    -0.325 N 
ATOM      2  C   LIG    1       -4.167  -1.662   0.882  0.00  0.00    +0.202 A 
ATOM      3  N   LIG    1       -3.339  -2.675   0.599  0.00  0.00    -0.218 NA
ATOM      4  C   LIG    1       -2.132  -2.122   0.304  0.00  0.00    +0.168 A 
ATOM      5  N   LIG    1       -0.967  -2.686  -0.045  0.00  0.00    -0.280 N 
ATOM      6  C   LIG    1       -0.848  -4.128  -0.161  0.00  0.00    +0.155 C 
ATOM      7  C   LIG    1        0.111  -1.924  -0.293  0.00  0.00    +0.333 A 
ATOM      8  N   LIG    1        0.093  -0.564  -0.210  0.00  0.00    -0.259 N 
ATOM      9  C   LIG    1       -1.077  -0.005   0.140  0.00  0.00    +0.282 A 
ATOM     10  O   LIG    1       -1.137   1.248   0.226  0.00  0.00    -0.265 OA
ATOM     11  O   LIG    1        1.209  -2.443  -0.621  0.00  0.00    -0.246 OA
ATOM     12  C   LIG    1       -2.206  -0.745   0.403  0.00  0.00    +0.151 A 
ENDROOT
BRANCH   1  13
ATOM     13  C   LIG    1       -4.007   0.831   0.981  0.00  0.00    +0.123 C 
BRANCH  13  14
ATOM     14  C   LIG    1       -4.550   1.303  -0.357  0.00  0.00    +0.018 C 
ATOM     15  C   LIG    1       -5.139   2.686  -0.283  0.00  0.00    +0.005 C 
ENDBRANCH  13  14
ENDBRANCH   1  13
BRANCH   8  16
ATOM     16  C   LIG    1        1.296   0.201  -0.490  0.00  0.00    +0.130 C 
BRANCH  16  17
ATOM     17  C   LIG    1        2.125   0.405   0.757  0.00  0.00    +0.022 C 
BRANCH  17  18
ATOM     18  C   LIG    1        3.370   1.188   0.507  0.00  0.00    +0.009 C 
BRANCH  18  19
ATOM     19  C   LIG    1        4.303   0.563  -0.479  0.00  0.00    +0.074 C 
BRANCH  19  20
ATOM     20  C   LIG    1        5.487   1.456  -0.620  0.00  0.00    +0.130 C 
ATOM     21  C   LIG    1        6.794   1.095   0.038  0.00  0.00    +0.086 C 
ATOM     22  O   LIG    1        5.387   2.481  -1.273  0.00  0.00    -0.298 OA
ENDBRANCH  19  20
ENDBRANCH  18  19
ENDBRANCH  17  18
ENDBRANCH  16  17
ENDBRANCH   8  16
TORSDOF 7
