REMARK  Name = molecules/RCFKEIREOSXLET-UHFFFAOYSA-N.pdb
REMARK                            x       y       z     vdW  Elec       q    Type
REMARK                         _______ _______ _______ _____ _____    ______ ____
ROOT
ATOM      1  C   LIG    1       -0.986  -0.054   0.162  0.00  0.00    +0.110 A 
ATOM      2  C   LIG    1        0.248   0.322   0.676  0.00  0.00    +0.058 A 
ATOM      3  C   LIG    1        1.415  -0.161   0.119  0.00  0.00    +0.125 A 
ATOM      4  C   LIG    1        1.303  -1.020  -0.956  0.00  0.00    +0.068 A 
ATOM      5  C   LIG    1        0.060  -1.390  -1.463  0.00  0.00    +0.027 A 
ATOM      6 CL   LIG    1        2.789  -1.628  -1.658  0.00  0.00    -0.082 Cl
ATOM      7  C   LIG    1       -1.109  -0.912  -0.911  0.00  0.00    -0.023 A 
ATOM      8  C   LIG    1       -2.452  -1.303  -1.449  0.00  0.00    +0.046 C 
ENDROOT
BRANCH   1   9
ATOM      9  S   LIG    1       -2.478   0.552   0.862  0.00  0.00    +0.056 S 
ATOM     10  O   LIG    1       -3.357  -0.580   1.259  0.00  0.00    -0.153 OA
ATOM     11  O   LIG    1       -3.251   1.373  -0.161  0.00  0.00    -0.153 OA
BRANCH   9  12
ATOM     12  N   LIG    1       -2.135   1.607   2.188  0.00  0.00    -0.204 NA
ATOM     13  H   LIG    1       -3.050   2.035   2.466  0.00  0.00    +0.144 HD
ATOM     14  H   LIG    1       -1.548   2.388   1.809  0.00  0.00    +0.144 HD
ENDBRANCH   9  12
ENDBRANCH   1   9
BRANCH   3  15
ATOM     15  S   LIG    1        2.992   0.284   0.733  0.00  0.00    +0.057 S 
ATOM     16  O   LIG    1        2.837   1.171   1.936  0.00  0.00    -0.153 OA
ATOM     17  O   LIG    1        3.757  -0.940   1.211  0.00  0.00    -0.153 OA
BRANCH  15  18
ATOM     18  N   LIG    1        3.942   1.073  -0.484  0.00  0.00    -0.203 NA
ATOM     19  H   LIG    1        4.161   2.062  -0.192  0.00  0.00    +0.144 HD
ATOM     20  H   LIG    1        4.820   0.534  -0.680  0.00  0.00    +0.144 HD
ENDBRANCH  15  18
ENDBRANCH   3  15
TORSDOF 4
