REMARK  Name = molecules/RCINICONZNJXQF-MZXODVADSA-N.pdb
REMARK                            x       y       z     vdW  Elec       q    Type
REMARK                         _______ _______ _______ _____ _____    ______ ____
ROOT
ATOM      1  C   LIG    1       -3.850   0.869  -0.671  0.00  0.00    +0.170 C 
ATOM      2  C   LIG    1       -2.621  -0.018  -0.709  0.00  0.00    +0.097 C 
ATOM      3  C   LIG    1       -2.644  -0.879   0.494  0.00  0.00    +0.217 C 
ATOM      4  C   LIG    1       -1.391  -1.188   1.261  0.00  0.00    +0.112 C 
ATOM      5  C   LIG    1       -0.399  -0.135   1.502  0.00  0.00    +0.084 C 
ATOM      6  C   LIG    1        1.056  -0.433   1.159  0.00  0.00    +0.187 C 
ATOM      7  C   LIG    1        1.191  -1.274  -0.080  0.00  0.00    +0.025 C 
ATOM      8  C   LIG    1        0.166  -2.034  -0.372  0.00  0.00    +0.043 C 
ATOM      9  C   LIG    1        0.140  -2.102  -1.839  0.00  0.00    +0.251 C 
ATOM     10  C   LIG    1       -0.804  -0.951  -2.119  0.00  0.00    +0.183 C 
ATOM     11  O   LIG    1       -0.167  -0.026  -2.563  0.00  0.00    -0.293 OA
ATOM     12  C   LIG    1        2.370  -1.260  -0.939  0.00  0.00    +0.016 C 
ATOM     13  C   LIG    1       -0.691  -2.488   0.743  0.00  0.00    +0.008 C 
ATOM     14  C   LIG    1        0.181  -3.072   1.826  0.00  0.00    +0.014 C 
ATOM     15  C   LIG    1       -1.635  -3.535   0.309  0.00  0.00    +0.014 C 
ATOM     16  C   LIG    1       -2.252  -0.590  -2.024  0.00  0.00    +0.066 C 
ATOM     17  C   LIG    1       -3.127  -1.667  -2.578  0.00  0.00    +0.022 C 
ATOM     18  C   LIG    1       -2.299   0.547  -3.060  0.00  0.00    +0.131 C 
ATOM     19  C   LIG    1       -3.595   1.195  -3.190  0.00  0.00    +0.068 C 
ATOM     20  C   LIG    1       -5.182   0.274  -0.761  0.00  0.00    +0.211 C 
ATOM     21  O   LIG    1       -5.604   1.092  -1.842  0.00  0.00    -0.368 OA
ATOM     22  C   LIG    1       -4.280   1.522  -1.901  0.00  0.00    +0.167 C 
ENDROOT
BRANCH  18  23
ATOM     23  O   LIG    1       -1.931  -0.006  -4.307  0.00  0.00    -0.391 OA
ATOM     24  H   LIG    1       -2.168   0.679  -5.011  0.00  0.00    +0.210 HD
ENDBRANCH  18  23
BRANCH   4  25
ATOM     25  O   LIG    1       -1.844  -1.625   2.505  0.00  0.00    -0.384 OA
ATOM     26  H   LIG    1       -2.002  -2.573   2.587  0.00  0.00    +0.210 HD
ENDBRANCH   4  25
BRANCH   6  27
ATOM     27  O   LIG    1        1.715   0.829   0.968  0.00  0.00    -0.459 OA
BRANCH  27  28
ATOM     28  C   LIG    1        2.779   1.255   1.745  0.00  0.00    +0.338 C 
ATOM     29  O   LIG    1        3.143   0.449   2.651  0.00  0.00    -0.248 OA
BRANCH  28  30
ATOM     30  C   LIG    1        3.451   2.563   1.539  0.00  0.00    +0.247 C 
BRANCH  30  31
ATOM     31  O   LIG    1        2.903   3.243   0.455  0.00  0.00    -0.379 OA
ATOM     32  H   LIG    1        2.173   2.741   0.019  0.00  0.00    +0.211 HD
ENDBRANCH  30  31
BRANCH  30  33
ATOM     33  C   LIG    1        4.946   2.434   1.345  0.00  0.00    +0.143 C 
BRANCH  33  34
ATOM     34  C   LIG    1        5.627   3.749   1.445  0.00  0.00    -0.024 A 
ATOM     35  C   LIG    1        6.144   4.138   2.667  0.00  0.00    +0.005 A 
ATOM     36  C   LIG    1        6.800   5.356   2.825  0.00  0.00    +0.000 A 
ATOM     37  C   LIG    1        6.955   6.211   1.773  0.00  0.00    +0.000 A 
ATOM     38  C   LIG    1        6.444   5.840   0.544  0.00  0.00    +0.000 A 
ATOM     39  C   LIG    1        5.789   4.622   0.390  0.00  0.00    +0.005 A 
ENDBRANCH  33  34
BRANCH  33  40
ATOM     40  N   LIG    1        5.300   1.716   0.142  0.00  0.00    -0.301 N 
ATOM     41  C   LIG    1        5.920   0.431   0.174  0.00  0.00    +0.245 C 
ATOM     42  O   LIG    1        6.155  -0.076   1.331  0.00  0.00    -0.270 OA
ATOM     43  H   LIG    1        5.113   2.115  -0.821  0.00  0.00    +0.150 HD
BRANCH  41  44
ATOM     44  C   LIG    1        6.302  -0.340  -0.974  0.00  0.00    +0.037 A 
ATOM     45  C   LIG    1        6.724  -1.645  -0.833  0.00  0.00    +0.013 A 
ATOM     46  C   LIG    1        7.088  -2.426  -1.897  0.00  0.00    +0.001 A 
ATOM     47  C   LIG    1        7.024  -1.868  -3.157  0.00  0.00    +0.000 A 
ATOM     48  C   LIG    1        6.613  -0.587  -3.329  0.00  0.00    +0.001 A 
ATOM     49  C   LIG    1        6.246   0.190  -2.228  0.00  0.00    +0.013 A 
ENDBRANCH  41  44
ENDBRANCH  33  40
ENDBRANCH  30  33
ENDBRANCH  28  30
ENDBRANCH  27  28
ENDBRANCH   6  27
BRANCH   9  50
ATOM     50  O   LIG    1       -0.361  -3.305  -2.363  0.00  0.00    -0.453 OA
BRANCH  50  51
ATOM     51  C   LIG    1        0.294  -3.966  -3.353  0.00  0.00    +0.305 C 
ATOM     52  O   LIG    1        1.368  -3.490  -3.804  0.00  0.00    -0.251 OA
ATOM     53  C   LIG    1       -0.173  -5.256  -3.970  0.00  0.00    +0.136 C 
ENDBRANCH  50  51
ENDBRANCH   9  50
BRANCH   3  54
ATOM     54  O   LIG    1       -3.665  -0.492   1.429  0.00  0.00    -0.454 OA
BRANCH  54  55
ATOM     55  C   LIG    1       -4.739  -1.273   1.755  0.00  0.00    +0.340 C 
ATOM     56  O   LIG    1       -4.793  -2.367   1.171  0.00  0.00    -0.245 OA
BRANCH  55  57
ATOM     57  C   LIG    1       -5.760  -0.880   2.713  0.00  0.00    +0.059 A 
ATOM     58  C   LIG    1       -5.702   0.331   3.394  0.00  0.00    +0.015 A 
ATOM     59  C   LIG    1       -6.699   0.623   4.287  0.00  0.00    +0.001 A 
ATOM     60  C   LIG    1       -7.770  -0.206   4.563  0.00  0.00    +0.000 A 
ATOM     61  C   LIG    1       -7.817  -1.407   3.878  0.00  0.00    +0.001 A 
ATOM     62  C   LIG    1       -6.806  -1.719   2.964  0.00  0.00    +0.015 A 
ENDBRANCH  55  57
ENDBRANCH  54  55
ENDBRANCH   3  54
BRANCH   1  63
ATOM     63  O   LIG    1       -3.632   1.851   0.335  0.00  0.00    -0.453 OA
BRANCH  63  64
ATOM     64  C   LIG    1       -4.506   2.827   0.695  0.00  0.00    +0.305 C 
ATOM     65  C   LIG    1       -4.229   3.840   1.758  0.00  0.00    +0.136 C 
ATOM     66  O   LIG    1       -5.578   2.838   0.082  0.00  0.00    -0.251 OA
ENDBRANCH  63  64
ENDBRANCH   1  63
TORSDOF 17
