REMARK  Name = molecules/RCKMWOKWVGPNJF-UHFFFAOYSA-N.pdb
REMARK                            x       y       z     vdW  Elec       q    Type
REMARK                         _______ _______ _______ _____ _____    ______ ____
ROOT
ATOM      1  C   LIG    1       -0.793   0.169  -0.911  0.00  0.00    +0.305 C 
ATOM      2  N   LIG    1       -1.864   0.678  -0.191  0.00  0.00    -0.286 N 
ATOM      3  N   LIG    1        0.495  -0.189  -0.535  0.00  0.00    -0.283 N 
ATOM      4  C   LIG    1        1.083  -0.115   0.752  0.00  0.00    +0.124 C 
ATOM      5  C   LIG    1        2.386  -0.896   0.852  0.00  0.00    +0.103 C 
ATOM      6  N   LIG    1        3.307  -0.599  -0.194  0.00  0.00    -0.302 NA
ATOM      7  C   LIG    1        4.480   0.117   0.258  0.00  0.00    +0.105 C 
ATOM      8  C   LIG    1        2.708  -0.001  -1.361  0.00  0.00    +0.103 C 
ATOM      9  C   LIG    1        1.393  -0.720  -1.585  0.00  0.00    +0.124 C 
ATOM     10  O   LIG    1       -1.084   0.004  -2.192  0.00  0.00    -0.252 OA
ENDROOT
BRANCH   2  11
ATOM     11  C   LIG    1       -1.859   0.938   1.211  0.00  0.00    +0.106 C 
ATOM     12  C   LIG    1       -2.329  -0.265   2.024  0.00  0.00    +0.024 C 
ENDBRANCH   2  11
BRANCH   2  13
ATOM     13  C   LIG    1       -3.125   0.975  -0.902  0.00  0.00    +0.106 C 
ATOM     14  C   LIG    1       -4.038  -0.214  -0.911  0.00  0.00    +0.024 C 
ENDBRANCH   2  13
TORSDOF 2
