REMARK  Name = molecules/RDEOYUSTRWNWLX-KRWDZBQOSA-N.pdb
REMARK                            x       y       z     vdW  Elec       q    Type
REMARK                         _______ _______ _______ _____ _____    ______ ____
ROOT
ATOM      1  C   LIG    1       -1.654  -1.057  -0.303  0.00  0.00    +0.318 C 
ATOM      2  O   LIG    1       -1.353  -2.219   0.084  0.00  0.00    -0.250 OA
ENDROOT
BRANCH   1   3
ATOM      3  C   LIG    1       -3.056  -0.585  -0.200  0.00  0.00    +0.097 C 
ATOM      4  C   LIG    1       -3.938  -1.652   0.456  0.00  0.00    +0.051 C 
ATOM      5  C   LIG    1       -4.103  -2.860  -0.418  0.00  0.00    +0.161 C 
ATOM      6  O   LIG    1       -4.438  -2.597  -1.715  0.00  0.00    -0.380 OA
ATOM      7  C   LIG    1       -3.724  -1.609  -2.335  0.00  0.00    +0.161 C 
ATOM      8  C   LIG    1       -3.692  -0.315  -1.546  0.00  0.00    +0.051 C 
BRANCH   3   9
ATOM      9  C   LIG    1       -3.108   0.621   0.661  0.00  0.00    -0.030 A 
ATOM     10  C   LIG    1       -2.423   0.675   1.859  0.00  0.00    +0.005 A 
ATOM     11  C   LIG    1       -2.470   1.801   2.666  0.00  0.00    +0.000 A 
ATOM     12  C   LIG    1       -3.195   2.899   2.306  0.00  0.00    +0.000 A 
ATOM     13  C   LIG    1       -3.887   2.873   1.116  0.00  0.00    +0.000 A 
ATOM     14  C   LIG    1       -3.829   1.747   0.328  0.00  0.00    +0.005 A 
ENDBRANCH   3   9
ENDBRANCH   1   3
BRANCH   1  15
ATOM     15  O   LIG    1       -0.634  -0.271  -0.812  0.00  0.00    -0.461 OA
BRANCH  15  16
ATOM     16  C   LIG    1        0.695  -0.763  -0.890  0.00  0.00    +0.175 C 
ATOM     17  C   LIG    1        1.203  -0.760  -2.298  0.00  0.00    +0.052 C 
BRANCH  16  18
ATOM     18  C   LIG    1        1.562   0.029   0.059  0.00  0.00    +0.059 C 
BRANCH  18  19
ATOM     19  C   LIG    1        2.990  -0.475  -0.006  0.00  0.00    +0.088 C 
BRANCH  19  20
ATOM     20  N   LIG    1        3.866   0.233   0.872  0.00  0.00    -0.298 NA
ATOM     21  C   LIG    1        5.079  -0.507   1.044  0.00  0.00    +0.112 C 
ATOM     22  C   LIG    1        6.319   0.344   1.035  0.00  0.00    +0.175 C 
ATOM     23  O   LIG    1        6.358   1.029  -0.169  0.00  0.00    -0.377 OA
ATOM     24  C   LIG    1        5.264   1.841  -0.384  0.00  0.00    +0.175 C 
ATOM     25  C   LIG    1        4.117   1.593   0.537  0.00  0.00    +0.112 C 
ENDBRANCH  19  20
ENDBRANCH  18  19
ENDBRANCH  16  18
ENDBRANCH  15  16
ENDBRANCH   1  15
TORSDOF 7
