REMARK  Name = molecules/RDFJFVXMRYVOAC-UHFFFAOYSA-N.pdb
REMARK                            x       y       z     vdW  Elec       q    Type
REMARK                         _______ _______ _______ _____ _____    ______ ____
ROOT
ATOM      1  S   LIG    1       -0.710   0.234   0.341  0.00  0.00    +0.089 S 
ATOM      2  O   LIG    1       -1.515  -0.682   1.172  0.00  0.00    -0.147 OA
ATOM      3  O   LIG    1       -0.820   1.609   0.876  0.00  0.00    -0.147 OA
ENDROOT
BRANCH   1   4
ATOM      4  C   LIG    1        1.000  -0.242   0.245  0.00  0.00    +0.271 C 
ATOM      5  I   LIG    1        2.122   1.084  -0.952  0.00  0.00    -0.058 I 
ENDBRANCH   1   4
BRANCH   1   6
ATOM      6  O   LIG    1       -1.358   0.236  -1.217  0.00  0.00    -0.253 OA
ATOM      7  H   LIG    1       -1.272  -0.698  -1.568  0.00  0.00    +0.244 HD
ENDBRANCH   1   6
TORSDOF 2
