REMARK  Name = molecules/RDJGLLICXDHJDY-LLVKDONJSA-N.pdb
REMARK                            x       y       z     vdW  Elec       q    Type
REMARK                         _______ _______ _______ _____ _____    ______ ____
ROOT
ATOM      1  C   LIG    1        0.293  -0.027   0.113  0.00  0.00    +0.129 A 
ATOM      2  C   LIG    1        0.645  -1.035   0.985  0.00  0.00    +0.046 A 
ATOM      3  C   LIG    1       -0.382  -1.727   1.587  0.00  0.00    +0.004 A 
ATOM      4  C   LIG    1       -1.705  -1.440   1.341  0.00  0.00    +0.004 A 
ATOM      5  C   LIG    1       -2.063  -0.428   0.465  0.00  0.00    -0.030 A 
ATOM      6  C   LIG    1       -1.033   0.265  -0.137  0.00  0.00    +0.050 A 
ENDROOT
BRANCH   5   7
ATOM      7  C   LIG    1       -3.500  -0.119   0.201  0.00  0.00    +0.124 C 
ATOM      8  C   LIG    1       -3.845   1.294   0.634  0.00  0.00    +0.024 C 
BRANCH   7   9
ATOM      9  C   LIG    1       -3.837  -0.259  -1.228  0.00  0.00    +0.312 C 
ATOM     10  O   LIG    1       -2.985  -0.599  -2.083  0.00  0.00    -0.250 OA
BRANCH   9  11
ATOM     11  O   LIG    1       -5.127  -0.007  -1.627  0.00  0.00    -0.480 OA
ATOM     12  H   LIG    1       -5.664   0.793  -1.323  0.00  0.00    +0.295 HD
ENDBRANCH   9  11
ENDBRANCH   7   9
ENDBRANCH   5   7
BRANCH   1  13
ATOM     13  O   LIG    1        1.291   0.699  -0.518  0.00  0.00    -0.456 OA
BRANCH  13  14
ATOM     14  C   LIG    1        2.627   0.504  -0.352  0.00  0.00    +0.128 A 
ATOM     15  C   LIG    1        3.284   1.196   0.637  0.00  0.00    +0.046 A 
ATOM     16  C   LIG    1        4.642   0.998   0.805  0.00  0.00    +0.004 A 
ATOM     17  C   LIG    1        5.329   0.129   0.003  0.00  0.00    +0.000 A 
ATOM     18  C   LIG    1        4.630  -0.553  -0.989  0.00  0.00    +0.004 A 
ATOM     19  C   LIG    1        3.284  -0.380  -1.181  0.00  0.00    +0.046 A 
ENDBRANCH  13  14
ENDBRANCH   1  13
TORSDOF 5
