REMARK  Name = molecules/RDLPVSKMFDYCOR-UEKVPHQBSA-N.pdb
REMARK                            x       y       z     vdW  Elec       q    Type
REMARK                         _______ _______ _______ _____ _____    ______ ____
ROOT
ATOM      1  O   LIG    1       -0.963   0.963   2.193  0.00  0.00    -0.273 OA
ATOM      2  C   LIG    1       -1.437   0.844   1.028  0.00  0.00    +0.244 C 
ATOM      3  N   LIG    1       -2.689   0.481   0.512  0.00  0.00    -0.249 N 
ATOM      4  CA  LIG    1       -4.034   0.052   0.720  0.00  0.00    +0.122 C 
ATOM      5  C   LIG    1       -4.691  -0.768  -0.081  0.00  0.00    -0.034 C 
ATOM      6  C   LIG    1       -6.118  -1.089   0.325  0.00  0.00    +0.042 C 
ATOM      7  C   LIG    1       -4.152  -1.377  -1.315  0.00  0.00    +0.103 C 
ATOM      8  S   LIG    1       -2.437  -0.931  -1.614  0.00  0.00    -0.131 S 
ATOM      9  C   LIG    1       -2.224   0.689  -0.836  0.00  0.00    +0.169 C 
ATOM     10  CA  LIG    1       -0.909   1.027  -0.303  0.00  0.00    +0.191 C 
ENDROOT
BRANCH  10  11
ATOM     11  N   LIG    1        0.232   0.245  -0.695  0.00  0.00    -0.300 N 
ATOM     12  H   LIG    1        0.192  -0.799  -0.601  0.00  0.00    +0.150 HD
ATOM     13  C   LIG    1        1.428   0.784  -1.208  0.00  0.00    +0.235 C 
ATOM     14  O   LIG    1        1.524   2.027  -1.339  0.00  0.00    -0.274 OA
BRANCH  13  15
ATOM     15  CA  LIG    1        2.569  -0.059  -1.595  0.00  0.00    +0.164 C 
BRANCH  15  16
ATOM     16  C   LIG    1        3.804   0.235  -0.844  0.00  0.00    -0.044 C 
ATOM     17  C   LIG    1        3.880   0.110   0.636  0.00  0.00    +0.059 C 
ATOM     18  C   LIG    1        5.241  -0.393   1.051  0.00  0.00    -0.026 C 
ATOM     19  C   LIG    1        6.338  -0.009   0.408  0.00  0.00    -0.027 C 
ATOM     20  C   LIG    1        6.174   0.931  -0.733  0.00  0.00    +0.054 C 
ATOM     21  C   LIG    1        4.913   0.627  -1.465  0.00  0.00    -0.021 C 
ENDBRANCH  15  16
BRANCH  15  22
ATOM     22  N   LIG    1        2.222  -1.451  -1.352  0.00  0.00    -0.317 NA
ATOM     23  H1  LIG    1        2.065  -1.564  -0.346  0.00  0.00    +0.119 HD
ATOM     24  H2  LIG    1        1.428  -1.673  -1.968  0.00  0.00    +0.119 HD
ENDBRANCH  15  22
ENDBRANCH  13  15
ENDBRANCH  10  11
BRANCH   4  25
ATOM     25  C   LIG    1       -4.680   0.588   1.946  0.00  0.00    +0.351 C 
ATOM     26  OXT LIG    1       -4.022   1.371   2.701  0.00  0.00    -0.244 OA
BRANCH  25  27
ATOM     27  O   LIG    1       -5.966   0.288   2.327  0.00  0.00    -0.476 OA
ATOM     28  H   LIG    1       -6.216  -0.125   3.216  0.00  0.00    +0.295 HD
ENDBRANCH  25  27
ENDBRANCH   4  25
TORSDOF 6
