REMARK  Name = molecules/RDOIQAHITMMDAJ-UHFFFAOYSA-N.pdb
REMARK                            x       y       z     vdW  Elec       q    Type
REMARK                         _______ _______ _______ _____ _____    ______ ____
ROOT
ATOM      1  C   LIG    1       -2.539  -0.138  -0.295  0.00  0.00    +0.098 C 
ENDROOT
BRANCH   1   2
ATOM      2  C   LIG    1       -2.990   0.155   1.064  0.00  0.00    -0.028 A 
ATOM      3  C   LIG    1       -2.829  -0.805   2.077  0.00  0.00    +0.005 A 
ATOM      4  C   LIG    1       -3.219  -0.583   3.373  0.00  0.00    +0.000 A 
ATOM      5  C   LIG    1       -3.797   0.598   3.780  0.00  0.00    +0.000 A 
ATOM      6  C   LIG    1       -3.965   1.553   2.820  0.00  0.00    +0.000 A 
ATOM      7  C   LIG    1       -3.567   1.328   1.496  0.00  0.00    +0.005 A 
ENDBRANCH   1   2
BRANCH   1   8
ATOM      8  C   LIG    1       -2.693   1.149  -1.097  0.00  0.00    -0.028 A 
ATOM      9  C   LIG    1       -3.984   1.582  -1.290  0.00  0.00    +0.005 A 
ATOM     10  C   LIG    1       -4.230   2.729  -2.044  0.00  0.00    +0.000 A 
ATOM     11  C   LIG    1       -3.188   3.438  -2.602  0.00  0.00    +0.000 A 
ATOM     12  C   LIG    1       -1.900   2.983  -2.395  0.00  0.00    +0.000 A 
ATOM     13  C   LIG    1       -1.647   1.824  -1.634  0.00  0.00    +0.005 A 
ENDBRANCH   1   8
BRANCH   1  14
ATOM     14  C   LIG    1       -3.257  -1.094  -1.126  0.00  0.00    +0.230 C 
ATOM     15  N   LIG    1       -3.543  -2.430  -1.117  0.00  0.00    -0.307 N 
ATOM     16  C   LIG    1       -3.158  -3.406  -0.164  0.00  0.00    +0.131 C 
ATOM     17  C   LIG    1       -4.370  -2.961  -2.240  0.00  0.00    +0.131 C 
ATOM     18  O   LIG    1       -3.786  -0.492  -2.202  0.00  0.00    -0.274 OA
ENDBRANCH   1  14
BRANCH   1  19
ATOM     19  C   LIG    1       -1.055  -0.500  -0.301  0.00  0.00    +0.041 C 
BRANCH  19  20
ATOM     20  C   LIG    1       -0.277   0.413   0.617  0.00  0.00    +0.086 C 
BRANCH  20  21
ATOM     21  N   LIG    1        1.112   0.117   0.623  0.00  0.00    -0.302 NA
ATOM     22  C   LIG    1        1.909   0.955   1.445  0.00  0.00    +0.087 C 
ATOM     23  C   LIG    1        3.261   1.159   0.760  0.00  0.00    +0.055 C 
ATOM     24  C   LIG    1        3.889  -0.221   0.668  0.00  0.00    +0.093 C 
ATOM     25  C   LIG    1        3.080  -1.010  -0.308  0.00  0.00    +0.055 C 
ATOM     26  C   LIG    1        1.693  -0.443  -0.531  0.00  0.00    +0.087 C 
BRANCH  24  27
ATOM     27  C   LIG    1        5.326  -0.136   0.357  0.00  0.00    -0.016 A 
ATOM     28  C   LIG    1        6.200  -1.121   0.791  0.00  0.00    +0.008 A 
ATOM     29  C   LIG    1        7.542  -1.062   0.520  0.00  0.00    +0.020 A 
ATOM     30  C   LIG    1        8.030  -0.002  -0.197  0.00  0.00    +0.041 A 
ATOM     31 CL   LIG    1        9.730   0.156  -0.584  0.00  0.00    -0.084 Cl
ATOM     32  C   LIG    1        7.187   0.988  -0.639  0.00  0.00    +0.020 A 
ATOM     33  C   LIG    1        5.843   0.923  -0.364  0.00  0.00    +0.008 A 
ENDBRANCH  24  27
BRANCH  24  34
ATOM     34  O   LIG    1        3.751  -0.782   1.956  0.00  0.00    -0.384 OA
ATOM     35  H   LIG    1        3.339  -1.677   1.873  0.00  0.00    +0.211 HD
ENDBRANCH  24  34
ENDBRANCH  20  21
ENDBRANCH  19  20
ENDBRANCH   1  19
TORSDOF 8
