REMARK  Name = molecules/RDXLYGJSWZYTFJ-UHFFFAOYSA-N.pdb
REMARK                            x       y       z     vdW  Elec       q    Type
REMARK                         _______ _______ _______ _____ _____    ______ ____
ROOT
ATOM      1  C   LIG    1        0.484  -0.157  -0.145  0.00  0.00    +0.170 A 
ATOM      2  S   LIG    1        1.690   1.048  -0.075  0.00  0.00    -0.028 S 
ATOM      3  C   LIG    1        3.076   0.025  -0.212  0.00  0.00    +0.185 A 
ATOM      4  C   LIG    1        2.488  -1.204  -0.305  0.00  0.00    +0.153 A 
ATOM      5  N   LIG    1        1.194  -1.265  -0.268  0.00  0.00    -0.230 NA
ENDROOT
BRANCH   1  12
ATOM      6  O   LIG    1       -1.363  -0.655   2.236  0.00  0.00    -0.252 OA
ATOM      7  C   LIG    1       -1.744  -0.297   1.075  0.00  0.00    +0.308 C 
ATOM      8  N   LIG    1       -3.110  -0.031   0.770  0.00  0.00    -0.297 N 
ATOM      9  H   LIG    1       -3.988  -0.303   1.256  0.00  0.00    +0.150 HD
ATOM     10  C   LIG    1       -3.077   0.754  -0.446  0.00  0.00    +0.125 C 
ATOM     11  C   LIG    1       -1.888   0.167  -1.166  0.00  0.00    +0.136 C 
ATOM     12  N   LIG    1       -0.948  -0.096  -0.095  0.00  0.00    -0.233 N 
ENDBRANCH   1  12
BRANCH   3  13
ATOM     13  N   LIG    1        4.463   0.376  -0.226  0.00  0.00    +0.065 N 
ATOM     14  O   LIG    1        4.867   1.681  -0.123  0.00  0.00    -0.126 OA
ATOM     15  O   LIG    1        5.291  -0.508  -0.332  0.00  0.00    -0.126 OA
ENDBRANCH   3  13
TORSDOF 2
