REMARK  Name = molecules/REHLODZXMGOGQP-LLVKDONJSA-N.pdb
REMARK                            x       y       z     vdW  Elec       q    Type
REMARK                         _______ _______ _______ _____ _____    ______ ____
ROOT
ATOM      1  O   LIG    1        0.477  -2.292  -0.832  0.00  0.00    -0.292 OA
ATOM      2  C   LIG    1       -0.172  -1.423  -0.201  0.00  0.00    +0.171 C 
ATOM      3  C   LIG    1       -1.581  -1.734   0.148  0.00  0.00    +0.118 C 
ATOM      4  C   LIG    1       -2.498  -0.607  -0.042  0.00  0.00    +0.003 A 
ATOM      5  C   LIG    1       -2.312   0.764   0.151  0.00  0.00    +0.132 A 
ATOM      6  O   LIG    1       -1.162   1.421   0.588  0.00  0.00    -0.455 OA
ATOM      7  C   LIG    1        0.169   1.042   0.437  0.00  0.00    +0.139 A 
ATOM      8  C   LIG    1        1.038   2.093   0.682  0.00  0.00    +0.047 A 
ATOM      9  C   LIG    1        2.395   1.895   0.579  0.00  0.00    +0.008 A 
ATOM     10  C   LIG    1        2.833   0.636   0.229  0.00  0.00    -0.033 A 
ATOM     11  C   LIG    1        1.968  -0.410  -0.014  0.00  0.00    +0.019 A 
ATOM     12  C   LIG    1       -3.329   1.665  -0.093  0.00  0.00    +0.047 A 
ATOM     13  C   LIG    1       -4.545   1.192  -0.533  0.00  0.00    +0.007 A 
ATOM     14  C   LIG    1       -4.716  -0.168  -0.720  0.00  0.00    -0.050 A 
ATOM     15  C   LIG    1       -6.030  -0.704  -1.199  0.00  0.00    +0.044 C 
ATOM     16  C   LIG    1       -3.718  -1.071  -0.483  0.00  0.00    +0.011 A 
ATOM     17  C   LIG    1        0.602  -0.220   0.088  0.00  0.00    +0.060 A 
ENDROOT
BRANCH  10  18
ATOM     18  C   LIG    1        4.283   0.403   0.113  0.00  0.00    +0.124 C 
ATOM     19  C   LIG    1        4.735  -0.644   1.132  0.00  0.00    +0.024 C 
BRANCH  18  20
ATOM     20  C   LIG    1        4.685  -0.032  -1.253  0.00  0.00    +0.312 C 
ATOM     21  O   LIG    1        3.850  -0.174  -2.184  0.00  0.00    -0.250 OA
BRANCH  20  22
ATOM     22  O   LIG    1        6.037  -0.276  -1.456  0.00  0.00    -0.480 OA
ATOM     23  H   LIG    1        6.706   0.366  -1.004  0.00  0.00    +0.295 HD
ENDBRANCH  20  22
ENDBRANCH  18  20
ENDBRANCH  10  18
TORSDOF 3
