REMARK  Name = molecules/REOJLIXKJWXUGB-LLVKDONJSA-N.pdb
REMARK                            x       y       z     vdW  Elec       q    Type
REMARK                         _______ _______ _______ _____ _____    ______ ____
ROOT
ATOM      1  O   LIG    1        0.026   0.557  -1.087  0.00  0.00    -0.273 OA
ATOM      2  C   LIG    1       -0.167  -0.318  -0.236  0.00  0.00    +0.248 C 
ATOM      3  C   LIG    1        0.718  -1.138   0.624  0.00  0.00    +0.164 C 
ATOM      4  C   LIG    1       -0.017  -2.428   0.623  0.00  0.00    +0.242 C 
ATOM      5  N   LIG    1       -1.405  -2.041   0.638  0.00  0.00    -0.227 N 
ATOM      6  H   LIG    1       -2.190  -2.647   0.989  0.00  0.00    +0.173 HD
ATOM      7  O   LIG    1        0.460  -3.586   0.613  0.00  0.00    -0.273 OA
ATOM      8  N   LIG    1       -1.506  -0.749   0.112  0.00  0.00    -0.188 N 
ENDROOT
BRANCH   8   9
ATOM      9  C   LIG    1       -2.672   0.039  -0.058  0.00  0.00    +0.056 A 
ATOM     10  C   LIG    1       -3.565   0.170   0.975  0.00  0.00    +0.025 A 
ATOM     11  C   LIG    1       -4.728   0.941   0.852  0.00  0.00    +0.002 A 
ATOM     12  C   LIG    1       -4.981   1.585  -0.338  0.00  0.00    +0.000 A 
ATOM     13  C   LIG    1       -4.092   1.450  -1.354  0.00  0.00    +0.002 A 
ATOM     14  C   LIG    1       -2.934   0.681  -1.227  0.00  0.00    +0.025 A 
ENDBRANCH   8   9
BRANCH   3  15
ATOM     15  C   LIG    1        2.133  -1.214   0.210  0.00  0.00    +0.022 C 
BRANCH  15  16
ATOM     16  C   LIG    1        2.734   0.170   0.211  0.00  0.00    +0.001 C 
BRANCH  16  17
ATOM     17  C   LIG    1        4.185   0.049  -0.211  0.00  0.00    -0.003 C 
ATOM     18  C   LIG    1        4.855   1.407  -0.245  0.00  0.00    +0.004 C 
ENDBRANCH  16  17
ENDBRANCH  15  16
ENDBRANCH   3  15
TORSDOF 4
