REMARK  Name = molecules/REYFJDPCWQRWAA-UHFFFAOYSA-N.pdb
REMARK                            x       y       z     vdW  Elec       q    Type
REMARK                         _______ _______ _______ _____ _____    ______ ____
ROOT
ATOM      1  N   LIG    1       -0.172   0.378  -0.092  0.00  0.00    -0.322 N 
ENDROOT
BRANCH   1   2
ATOM      2  C   LIG    1       -0.429   1.766  -0.210  0.00  0.00    +0.030 A 
ATOM      3  C   LIG    1        0.010   2.666   0.735  0.00  0.00    +0.023 A 
ATOM      4  C   LIG    1       -0.226   4.050   0.636  0.00  0.00    +0.002 A 
ATOM      5  C   LIG    1       -0.912   4.550  -0.427  0.00  0.00    +0.000 A 
ATOM      6  C   LIG    1       -1.371   3.683  -1.399  0.00  0.00    +0.002 A 
ATOM      7  C   LIG    1       -1.129   2.315  -1.283  0.00  0.00    +0.023 A 
ENDBRANCH   1   2
BRANCH   1   8
ATOM      8  C   LIG    1        0.488  -0.181   1.090  0.00  0.00    +0.140 C 
BRANCH   8   9
ATOM      9  C   LIG    1        1.853  -0.629   0.793  0.00  0.00    -0.030 A 
ATOM     10  C   LIG    1        2.184  -1.952   0.712  0.00  0.00    +0.005 A 
ATOM     11  C   LIG    1        3.501  -2.319   0.437  0.00  0.00    +0.000 A 
ATOM     12  C   LIG    1        4.481  -1.349   0.243  0.00  0.00    +0.000 A 
ATOM     13  C   LIG    1        4.146  -0.030   0.324  0.00  0.00    +0.000 A 
ATOM     14  C   LIG    1        2.845   0.313   0.597  0.00  0.00    +0.005 A 
ENDBRANCH   8   9
ENDBRANCH   1   8
BRANCH   1  15
ATOM     15  C   LIG    1       -0.559  -0.499  -1.181  0.00  0.00    +0.148 C 
BRANCH  15  16
ATOM     16  C   LIG    1       -1.690  -1.402  -0.781  0.00  0.00    +0.137 C 
ATOM     17  N   LIG    1       -1.646  -2.506   0.115  0.00  0.00    -0.292 NA
ATOM     18  C   LIG    1       -2.992  -2.690   0.592  0.00  0.00    +0.099 C 
ATOM     19  C   LIG    1       -3.758  -2.259  -0.671  0.00  0.00    +0.120 C 
ATOM     20  H   LIG    1       -0.826  -3.069   0.370  0.00  0.00    +0.124 HD
ATOM     21  N   LIG    1       -2.905  -1.259  -1.224  0.00  0.00    -0.213 NA
ENDBRANCH  15  16
ENDBRANCH   1  15
TORSDOF 5
