REMARK  Name = molecules/RFHAOTPXVQNOHP-UHFFFAOYSA-N.pdb
REMARK                            x       y       z     vdW  Elec       q    Type
REMARK                         _______ _______ _______ _____ _____    ______ ____
ROOT
ATOM      1  C   LIG    1        0.123   0.256  -0.363  0.00  0.00    +0.132 C 
ENDROOT
BRANCH   1   2
ATOM      2  C   LIG    1        1.035  -0.849  -0.004  0.00  0.00    +0.023 A 
ATOM      3  C   LIG    1        0.867  -1.691   1.030  0.00  0.00    +0.012 A 
ATOM      4  C   LIG    1        1.849  -2.633   1.331  0.00  0.00    +0.039 A 
ATOM      5  C   LIG    1        2.985  -2.729   0.608  0.00  0.00    +0.126 A 
ATOM      6  F   LIG    1        3.963  -3.636   0.873  0.00  0.00    -0.205 F 
ATOM      7  C   LIG    1        3.159  -1.862  -0.454  0.00  0.00    +0.077 A 
ATOM      8  C   LIG    1        2.194  -0.924  -0.764  0.00  0.00    +0.132 A 
ATOM      9  F   LIG    1        2.453  -0.122  -1.825  0.00  0.00    -0.205 F 
ENDBRANCH   1   2
BRANCH   1  10
ATOM     10  O   LIG    1       -0.199   0.210  -1.701  0.00  0.00    -0.380 OA
ATOM     11  H   LIG    1       -0.772  -0.541  -1.922  0.00  0.00    +0.211 HD
ENDBRANCH   1  10
BRANCH   1  12
ATOM     12  C   LIG    1       -1.191   0.279   0.408  0.00  0.00    +0.186 C 
BRANCH  12  13
ATOM     13  N   LIG    1       -2.114  -0.757   0.050  0.00  0.00    -0.249 N 
ATOM     14  C   LIG    1       -2.385  -1.960   0.493  0.00  0.00    +0.219 A 
ATOM     15  N   LIG    1       -3.373  -2.566  -0.229  0.00  0.00    -0.223 NA
ATOM     16  C   LIG    1       -3.708  -1.667  -1.157  0.00  0.00    +0.244 A 
ATOM     17  N   LIG    1       -2.968  -0.575  -1.010  0.00  0.00    -0.158 NA
ENDBRANCH  12  13
ENDBRANCH   1  12
BRANCH   1  18
ATOM     18  C   LIG    1        0.865   1.499   0.050  0.00  0.00    +0.186 C 
BRANCH  18  19
ATOM     19  N   LIG    1        0.181   2.728  -0.238  0.00  0.00    -0.249 N 
ATOM     20  N   LIG    1       -0.650   3.400   0.519  0.00  0.00    -0.158 NA
ATOM     21  C   LIG    1       -1.075   4.517  -0.121  0.00  0.00    +0.244 A 
ATOM     22  N   LIG    1       -0.479   4.535  -1.326  0.00  0.00    -0.223 NA
ATOM     23  C   LIG    1        0.284   3.435  -1.381  0.00  0.00    +0.219 A 
ENDBRANCH  18  19
ENDBRANCH   1  18
TORSDOF 6
