REMARK  Name = molecules/RFIXURDMUINBMD-VBHSOAQHSA-N.pdb
REMARK                            x       y       z     vdW  Elec       q    Type
REMARK                         _______ _______ _______ _____ _____    ______ ____
ROOT
ATOM      1  C   LIG    1        1.742  -2.004   0.447  0.00  0.00    +0.084 C 
ATOM      2  C   LIG    1        1.466  -3.503   0.162  0.00  0.00    +0.027 C 
ENDROOT
BRANCH   1   3
ATOM      3  N   LIG    1        1.013  -1.482   1.475  0.00  0.00    -0.308 NA
ATOM      4  H   LIG    1        1.623  -1.034   2.202  0.00  0.00    +0.123 HD
BRANCH   3   5
ATOM      5  C   LIG    1       -0.334  -1.241   1.579  0.00  0.00    +0.051 C 
ATOM      6  C   LIG    1       -1.215  -2.478   1.675  0.00  0.00    +0.024 C 
BRANCH   5   7
ATOM      7  C   LIG    1       -1.018  -0.263   0.675  0.00  0.00    +0.023 C 
BRANCH   7   8
ATOM      8  C   LIG    1       -2.501  -0.245   1.095  0.00  0.00    +0.036 C 
BRANCH   8   9
ATOM      9  C   LIG    1       -3.226   0.743   0.208  0.00  0.00    -0.047 A 
ATOM     10  C   LIG    1       -3.325   2.064   0.593  0.00  0.00    +0.003 A 
ATOM     11  C   LIG    1       -3.983   2.967  -0.202  0.00  0.00    +0.000 A 
ATOM     12  C   LIG    1       -4.554   2.563  -1.401  0.00  0.00    +0.000 A 
ATOM     13  C   LIG    1       -4.453   1.254  -1.778  0.00  0.00    +0.000 A 
ATOM     14  C   LIG    1       -3.791   0.350  -0.974  0.00  0.00    +0.003 A 
ENDBRANCH   8   9
ENDBRANCH   7   8
ENDBRANCH   5   7
ENDBRANCH   3   5
ENDBRANCH   1   3
BRANCH   1  15
ATOM     15  C   LIG    1        1.869  -1.299  -0.862  0.00  0.00    +0.161 C 
BRANCH  15  16
ATOM     16  C   LIG    1        2.550   0.033  -0.729  0.00  0.00    -0.015 A 
ATOM     17  C   LIG    1        3.893   0.143  -0.495  0.00  0.00    +0.024 A 
ATOM     18  C   LIG    1        4.490   1.380  -0.382  0.00  0.00    +0.056 A 
ATOM     19  I   LIG    1        6.561   1.573  -0.020  0.00  0.00    -0.040 I 
ATOM     20  C   LIG    1        3.754   2.551  -0.501  0.00  0.00    +0.143 A 
ATOM     21  C   LIG    1        2.403   2.442  -0.738  0.00  0.00    +0.056 A 
ATOM     22  I   LIG    1        1.235   4.197  -0.926  0.00  0.00    -0.040 I 
ATOM     23  C   LIG    1        1.811   1.188  -0.850  0.00  0.00    +0.024 A 
BRANCH  20  24
ATOM     24  O   LIG    1        4.390   3.789  -0.382  0.00  0.00    -0.505 OA
ATOM     25  H   LIG    1        3.834   4.629  -0.472  0.00  0.00    +0.292 HD
ENDBRANCH  20  24
ENDBRANCH  15  16
BRANCH  15  26
ATOM     26  O   LIG    1        2.673  -2.072  -1.757  0.00  0.00    -0.386 OA
ATOM     27  H   LIG    1        2.444  -1.852  -2.690  0.00  0.00    +0.210 HD
ENDBRANCH  15  26
ENDBRANCH   1  15
TORSDOF 9
