REMARK  Name = molecules/RFKMCNOHBTXSMU-UHFFFAOYSA-N.pdb
REMARK                            x       y       z     vdW  Elec       q    Type
REMARK                         _______ _______ _______ _____ _____    ______ ____
ROOT
ATOM      1  C   LIG    1       -0.328  -0.215  -0.022  0.00  0.00    +0.387 C 
ATOM      2  F   LIG    1       -0.109   0.223   1.280  0.00  0.00    -0.172 F 
ATOM      3  F   LIG    1       -0.144  -1.576  -0.081  0.00  0.00    -0.172 F 
ENDROOT
BRANCH   1   4
ATOM      4  C   LIG    1       -1.768   0.135  -0.347  0.00  0.00    +0.270 C 
ATOM      5 CL   LIG    1       -2.049   1.838   0.030  0.00  0.00    -0.095 Cl
ATOM      6 CL   LIG    1       -2.230  -0.303  -1.983  0.00  0.00    -0.095 Cl
ENDBRANCH   1   4
BRANCH   1   8
ATOM      7  C   LIG    1        1.851   0.081  -0.426  0.00  0.00    +0.200 C 
ATOM      8  O   LIG    1        0.578   0.417  -0.848  0.00  0.00    -0.321 OA
ENDBRANCH   1   8
TORSDOF 2
