REMARK  Name = molecules/RFRXIWQYSOIBDI-UHFFFAOYSA-N.pdb
REMARK                            x       y       z     vdW  Elec       q    Type
REMARK                         _______ _______ _______ _____ _____    ______ ____
ROOT
ATOM      1  C   LIG    1       -1.014   0.313  -0.080  0.00  0.00    +0.044 A 
ATOM      2  C   LIG    1       -1.703  -0.954  -0.077  0.00  0.00    +0.027 A 
ATOM      3  C   LIG    1       -1.208  -2.208  -0.060  0.00  0.00    +0.012 A 
ATOM      4  C   LIG    1       -2.132  -3.257  -0.091  0.00  0.00    +0.001 A 
ATOM      5  C   LIG    1       -3.477  -2.975  -0.132  0.00  0.00    +0.004 A 
ATOM      6  C   LIG    1       -3.940  -1.644  -0.156  0.00  0.00    +0.047 A 
ATOM      7  C   LIG    1       -3.017  -0.633  -0.139  0.00  0.00    +0.136 A 
ATOM      8  O   LIG    1       -3.167   0.693  -0.208  0.00  0.00    -0.459 OA
ATOM      9  C   LIG    1       -1.968   1.278  -0.196  0.00  0.00    +0.113 A 
ENDROOT
BRANCH   1  10
ATOM     10  C   LIG    1        0.337   0.338   0.327  0.00  0.00    +0.198 C 
ATOM     11  O   LIG    1        0.368   0.893   1.604  0.00  0.00    -0.213 OA
BRANCH  10  12
ATOM     12  C   LIG    1        1.663   0.036   0.013  0.00  0.00    -0.004 A 
ATOM     13  C   LIG    1        2.356  -0.814   0.903  0.00  0.00    +0.010 A 
ATOM     14  C   LIG    1        3.653  -1.165   0.797  0.00  0.00    +0.046 A 
ATOM     15  C   LIG    1        4.337  -0.636  -0.304  0.00  0.00    +0.117 A 
ATOM     16  C   LIG    1        3.734   0.163  -1.210  0.00  0.00    +0.046 A 
ATOM     17  C   LIG    1        2.368   0.503  -1.049  0.00  0.00    +0.010 A 
BRANCH  15  18
ATOM     18  O   LIG    1        5.709  -0.975  -0.434  0.00  0.00    -0.507 OA
ATOM     19  H   LIG    1        6.322  -0.279   0.093  0.00  0.00    +0.292 HD
ENDBRANCH  15  18
ENDBRANCH  10  12
ENDBRANCH   1  10
BRANCH   9  20
ATOM     20  C   LIG    1       -1.739   2.686  -0.330  0.00  0.00    +0.071 C 
ATOM     21  C   LIG    1       -1.292   3.667   0.601  0.00  0.00    +0.012 C 
ENDBRANCH   9  20
TORSDOF 4
