REMARK  Name = molecules/RGCVKNLCSQQDEP-UHFFFAOYSA-N.pdb
REMARK                            x       y       z     vdW  Elec       q    Type
REMARK                         _______ _______ _______ _____ _____    ______ ____
ROOT
ATOM      1  N   LIG    1       -2.576   0.721   0.113  0.00  0.00    -0.313 N 
ATOM      2  C   LIG    1       -2.701  -0.508   0.809  0.00  0.00    +0.045 A 
ATOM      3  C   LIG    1       -2.009  -0.718   2.004  0.00  0.00    +0.024 A 
ATOM      4  C   LIG    1       -2.120  -1.884   2.749  0.00  0.00    +0.002 A 
ATOM      5  C   LIG    1       -2.932  -2.908   2.340  0.00  0.00    +0.001 A 
ATOM      6  C   LIG    1       -3.620  -2.730   1.175  0.00  0.00    +0.017 A 
ATOM      7  C   LIG    1       -3.501  -1.561   0.439  0.00  0.00    +0.034 A 
ATOM      8  S   LIG    1       -4.456  -1.439  -1.062  0.00  0.00    -0.089 S 
ATOM      9  C   LIG    1       -4.160   0.183  -1.699  0.00  0.00    +0.020 C 
ATOM     10  C   LIG    1       -4.826   0.532  -2.826  0.00  0.00    +0.015 C 
ATOM     11  C   LIG    1       -4.659   1.741  -3.402  0.00  0.00    +0.020 C 
ATOM     12  C   LIG    1       -3.801   2.639  -2.844  0.00  0.00    +0.040 C 
ATOM     13  C   LIG    1       -3.112   2.301  -1.694  0.00  0.00    +0.026 C 
ATOM     14 CL   LIG    1       -3.537   4.237  -3.547  0.00  0.00    -0.084 Cl
ATOM     15  C   LIG    1       -3.285   1.051  -1.098  0.00  0.00    +0.116 C 
ENDROOT
BRANCH   1  16
ATOM     16  C   LIG    1       -1.624   1.758   0.537  0.00  0.00    +0.108 C 
BRANCH  16  17
ATOM     17  C   LIG    1       -0.338   1.712  -0.243  0.00  0.00    +0.034 C 
BRANCH  17  18
ATOM     18  C   LIG    1        0.482   0.468  -0.126  0.00  0.00    +0.086 C 
BRANCH  18  22
ATOM     19  N   LIG    1        3.734  -0.179   0.524  0.00  0.00    -0.298 NA
ATOM     20  C   LIG    1        3.170   1.156   0.624  0.00  0.00    +0.100 C 
ATOM     21  C   LIG    1        2.024   1.142   1.577  0.00  0.00    +0.100 C 
ATOM     22  N   LIG    1        1.001   0.181   1.170  0.00  0.00    -0.300 NA
ATOM     23  C   LIG    1        1.612  -1.134   1.115  0.00  0.00    +0.100 C 
ATOM     24  C   LIG    1        2.770  -1.153   0.161  0.00  0.00    +0.100 C 
BRANCH  19  25
ATOM     25  C   LIG    1        4.953  -0.171  -0.234  0.00  0.00    +0.112 C 
BRANCH  25  26
ATOM     26  C   LIG    1        5.513  -1.559  -0.336  0.00  0.00    +0.171 C 
BRANCH  26  27
ATOM     27  O   LIG    1        6.724  -1.544  -1.063  0.00  0.00    -0.394 OA
ATOM     28  H   LIG    1        6.752  -0.721  -1.611  0.00  0.00    +0.209 HD
ENDBRANCH  26  27
ENDBRANCH  25  26
ENDBRANCH  19  25
ENDBRANCH  18  22
ENDBRANCH  17  18
ENDBRANCH  16  17
ENDBRANCH   1  16
TORSDOF 7
