REMARK  Name = molecules/RGPDEAGGEXEMMM-QGZVFWFLSA-N.pdb
REMARK                            x       y       z     vdW  Elec       q    Type
REMARK                         _______ _______ _______ _____ _____    ______ ____
ROOT
ATOM      1  C   LIG    1        3.238  -2.234  -0.853  0.00  0.00    +0.105 C 
ATOM      2  N   LIG    1        2.057  -1.511  -0.520  0.00  0.00    -0.299 NA
ATOM      3  C   LIG    1        1.415  -2.249   0.620  0.00  0.00    +0.112 C 
ATOM      4  C   LIG    1        0.549  -1.262   1.111  0.00  0.00    +0.176 C 
ATOM      5  O   LIG    1       -0.366  -0.915   1.970  0.00  0.00    -0.366 OA
ATOM      6  C   LIG    1       -0.765   0.368   1.448  0.00  0.00    +0.179 C 
ATOM      7  C   LIG    1        0.225   1.022   0.579  0.00  0.00    -0.010 A 
ATOM      8  C   LIG    1       -0.390   2.287   0.476  0.00  0.00    +0.007 A 
ATOM      9  C   LIG    1        0.122   3.323  -0.240  0.00  0.00    +0.000 A 
ATOM     10  C   LIG    1        1.293   3.190  -0.919  0.00  0.00    +0.000 A 
ATOM     11  C   LIG    1        1.929   1.957  -0.842  0.00  0.00    +0.005 A 
ATOM     12  C   LIG    1        1.417   0.918  -0.123  0.00  0.00    -0.027 A 
ATOM     13  C   LIG    1        2.388  -0.171  -0.256  0.00  0.00    +0.119 C 
ENDROOT
BRANCH   6  14
ATOM     14  C   LIG    1       -1.966   0.024   0.656  0.00  0.00    -0.014 A 
ATOM     15  C   LIG    1       -3.014  -0.687   1.218  0.00  0.00    +0.006 A 
ATOM     16  C   LIG    1       -4.145  -1.007   0.498  0.00  0.00    +0.000 A 
ATOM     17  C   LIG    1       -4.268  -0.625  -0.818  0.00  0.00    +0.000 A 
ATOM     18  C   LIG    1       -3.250   0.075  -1.395  0.00  0.00    +0.000 A 
ATOM     19  C   LIG    1       -2.115   0.389  -0.652  0.00  0.00    +0.006 A 
ENDBRANCH   6  14
TORSDOF 1
