REMARK  Name = molecules/RGZSQWQPBWRIAQ-CABCVRRESA-N.pdb
REMARK                            x       y       z     vdW  Elec       q    Type
REMARK                         _______ _______ _______ _____ _____    ______ ____
ROOT
ATOM      1  C   LIG    1       -0.169  -1.249  -0.724  0.00  0.00    +0.067 C 
ATOM      2  C   LIG    1        0.200  -2.317   0.251  0.00  0.00    +0.041 C 
ENDROOT
BRANCH   1   3
ATOM      3  C   LIG    1       -1.621  -0.877  -0.548  0.00  0.00    +0.024 C 
ATOM      4  C   LIG    1       -1.939  -0.340   0.810  0.00  0.00    +0.011 C 
ATOM      5  C   LIG    1       -2.657   0.994   0.770  0.00  0.00    +0.030 C 
ATOM      6  C   LIG    1       -3.825   0.815  -0.139  0.00  0.00    -0.077 C 
ATOM      7  C   LIG    1       -5.205   1.122   0.262  0.00  0.00    +0.039 C 
ATOM      8  C   LIG    1       -3.543   0.350  -1.363  0.00  0.00    -0.028 C 
ATOM      9  C   LIG    1       -2.089   0.085  -1.620  0.00  0.00    +0.033 C 
ENDBRANCH   1   3
BRANCH   1  10
ATOM     10  O   LIG    1       -0.012  -1.752  -2.010  0.00  0.00    -0.389 OA
ATOM     11  H   LIG    1        0.209  -0.997  -2.617  0.00  0.00    +0.210 HD
ENDBRANCH   1  10
BRANCH   1  12
ATOM     12  C   LIG    1        0.735  -0.068  -0.519  0.00  0.00    +0.039 C 
BRANCH  12  13
ATOM     13  C   LIG    1        2.167  -0.469  -0.737  0.00  0.00    +0.030 C 
BRANCH  13  14
ATOM     14  C   LIG    1        3.009   0.740  -0.520  0.00  0.00    -0.028 C 
ATOM     15  C   LIG    1        3.926   0.744   0.414  0.00  0.00    -0.080 C 
ATOM     16  C   LIG    1        4.123  -0.456   1.254  0.00  0.00    +0.038 C 
ATOM     17  C   LIG    1        4.776   1.958   0.636  0.00  0.00    +0.038 C 
ENDBRANCH  13  14
ENDBRANCH  12  13
ENDBRANCH   1  12
TORSDOF 5
