REMARK  Name = molecules/RHAXSHUQNIEUEY-UHFFFAOYSA-N.pdb
REMARK                            x       y       z     vdW  Elec       q    Type
REMARK                         _______ _______ _______ _____ _____    ______ ____
ROOT
ATOM      1  C   LIG    1        0.457   0.135   0.514  0.00  0.00    +0.258 A 
ATOM      2  N   LIG    1        0.839  -0.927   1.246  0.00  0.00    -0.175 NA
ATOM      3  C   LIG    1        1.312  -0.820   2.500  0.00  0.00    +0.219 A 
ATOM      4  C   LIG    1        1.423   0.433   3.096  0.00  0.00    +0.090 A 
ATOM      5  C   LIG    1        1.030   1.518   2.339  0.00  0.00    +0.047 A 
ATOM      6  C   LIG    1        1.146   2.871   2.971  0.00  0.00    +0.066 C 
ATOM      7  N   LIG    1        0.560   1.352   1.081  0.00  0.00    -0.216 NA
ENDROOT
BRANCH   1   9
ATOM      8  C   LIG    1       -1.277   0.284  -1.266  0.00  0.00    +0.220 A 
ATOM      9  N   LIG    1       -0.040   0.000  -0.817  0.00  0.00    -0.165 N 
ATOM     10  N   LIG    1        0.635  -0.433  -1.857  0.00  0.00    -0.166 NA
ATOM     11  C   LIG    1       -0.098  -0.445  -2.960  0.00  0.00    +0.064 A 
ATOM     12  C   LIG    1        0.298  -0.861  -4.329  0.00  0.00    +0.067 C 
ATOM     13  C   LIG    1       -1.345   0.015  -2.606  0.00  0.00    +0.092 A 
BRANCH   8  14
ATOM     14  O   LIG    1       -2.267   0.773  -0.410  0.00  0.00    -0.480 OA
ATOM     15  C   LIG    1       -3.539   1.051  -0.935  0.00  0.00    +0.279 C 
ENDBRANCH   8  14
ENDBRANCH   1   9
BRANCH   3  16
ATOM     16  O   LIG    1        1.711  -1.913   3.271  0.00  0.00    -0.480 OA
ATOM     17  C   LIG    1        1.621  -3.205   2.718  0.00  0.00    +0.279 C 
ENDBRANCH   3  16
TORSDOF 3
