REMARK  Name = molecules/RHGKLRLOHDJJDR-BYPYZUCNSA-N.pdb
REMARK                            x       y       z     vdW  Elec       q    Type
REMARK                         _______ _______ _______ _____ _____    ______ ____
ROOT
ATOM      1  C   LIG    1       -1.285  -0.763   0.095  0.00  0.00    +0.031 C 
ENDROOT
BRANCH   1   2
ATOM      2  C   LIG    1        0.194  -0.897  -0.030  0.00  0.00    +0.021 C 
BRANCH   2   3
ATOM      3  C   LIG    1        0.957   0.170   0.695  0.00  0.00    +0.106 C 
BRANCH   3   4
ATOM      4  N   LIG    1        2.394  -0.045   0.578  0.00  0.00    -0.300 N 
ATOM      5  H   LIG    1        2.928  -0.197   1.442  0.00  0.00    +0.150 HD
ATOM      6  C   LIG    1        2.995  -0.040  -0.685  0.00  0.00    +0.297 C 
ATOM      7  N   LIG    1        4.406  -0.257  -0.770  0.00  0.00    -0.313 N 
ATOM      8  H   LIG    1        4.817  -1.120  -0.361  0.00  0.00    +0.146 HD
ATOM      9  H   LIG    1        4.989   0.464  -1.245  0.00  0.00    +0.146 HD
ATOM     10  O   LIG    1        2.409   0.140  -1.778  0.00  0.00    -0.253 OA
ENDBRANCH   3   4
ENDBRANCH   2   3
ENDBRANCH   1   2
BRANCH   1  11
ATOM     11  CA  LIG    1       -1.903   0.502  -0.426  0.00  0.00    +0.161 C 
BRANCH  11  12
ATOM     12  N   LIG    1       -1.533   1.676   0.268  0.00  0.00    -0.318 NA
ATOM     13  H1  LIG    1       -1.298   1.557   1.223  0.00  0.00    +0.119 HD
ATOM     14  H2  LIG    1       -1.153   2.412  -0.266  0.00  0.00    +0.119 HD
ENDBRANCH  11  12
BRANCH  11  15
ATOM     15  C   LIG    1       -3.398   0.332  -0.203  0.00  0.00    +0.322 C 
ATOM     16  OXT LIG    1       -3.968   1.192   0.493  0.00  0.00    -0.249 OA
BRANCH  15  17
ATOM     17  O   LIG    1       -4.033  -0.760  -0.783  0.00  0.00    -0.480 OA
ATOM     18  H   LIG    1       -4.888  -1.092  -0.385  0.00  0.00    +0.295 HD
ENDBRANCH  15  17
ENDBRANCH  11  15
ENDBRANCH   1  11
TORSDOF 7
