REMARK  Name = molecules/RHWKPHLQXYSBKR-BMIGLBTASA-N.pdb
REMARK                            x       y       z     vdW  Elec       q    Type
REMARK                         _______ _______ _______ _____ _____    ______ ____
ROOT
ATOM      1  O   LIG    1       -3.194   0.745   2.305  0.00  0.00    -0.268 OA
ATOM      2  C   LIG    1       -3.003   0.387   1.135  0.00  0.00    +0.269 C 
ATOM      3  C   LIG    1       -1.673   0.437   0.537  0.00  0.00    +0.151 A 
ATOM      4  C   LIG    1       -0.598   0.849   1.286  0.00  0.00    +0.194 A 
ATOM      5  C   LIG    1        0.661   0.842   0.679  0.00  0.00    +0.236 A 
ATOM      6  O   LIG    1        1.617   1.230   1.400  0.00  0.00    -0.283 OA
ATOM      7  C   LIG    1        0.868   0.448  -0.611  0.00  0.00    +0.103 A 
ATOM      8  C   LIG    1       -0.271   0.042  -1.315  0.00  0.00    +0.103 A 
ATOM      9  N   LIG    1       -1.500   0.046  -0.729  0.00  0.00    -0.335 N 
ATOM     10  C   LIG    1       -2.636  -0.380  -1.533  0.00  0.00    +0.173 C 
ATOM     11  C   LIG    1       -3.762  -0.962  -0.745  0.00  0.00    +0.228 C 
ATOM     12  O   LIG    1       -4.912  -0.998  -1.523  0.00  0.00    -0.357 OA
ATOM     13  C   LIG    1       -5.947  -1.681  -0.874  0.00  0.00    +0.164 C 
ATOM     14  C   LIG    1       -6.213  -1.125   0.521  0.00  0.00    +0.050 C 
ATOM     15  C   LIG    1       -5.478   0.210   0.591  0.00  0.00    +0.078 C 
ATOM     16  C   LIG    1       -5.798   0.987   1.815  0.00  0.00    +0.028 C 
ATOM     17  N   LIG    1       -4.101  -0.071   0.390  0.00  0.00    -0.266 N 
ENDROOT
BRANCH   7  18
ATOM     18  C   LIG    1        2.170   0.389  -1.248  0.00  0.00    +0.250 C 
ATOM     19  N   LIG    1        3.374   0.298  -0.519  0.00  0.00    -0.307 N 
ATOM     20  H   LIG    1        3.332   0.254   0.503  0.00  0.00    +0.149 HD
ATOM     21  O   LIG    1        2.213   0.417  -2.516  0.00  0.00    -0.270 OA
BRANCH  19  22
ATOM     22  C   LIG    1        4.605   0.257  -1.272  0.00  0.00    +0.142 C 
BRANCH  22  23
ATOM     23  C   LIG    1        5.825   0.122  -0.466  0.00  0.00    +0.005 A 
ATOM     24  C   LIG    1        5.849   0.006   0.886  0.00  0.00    +0.011 A 
ATOM     25  C   LIG    1        7.062  -0.137   1.588  0.00  0.00    +0.039 A 
ATOM     26  C   LIG    1        8.253  -0.161   0.901  0.00  0.00    +0.126 A 
ATOM     27  F   LIG    1        9.453  -0.296   1.537  0.00  0.00    -0.205 F 
ATOM     28  C   LIG    1        8.238  -0.043  -0.473  0.00  0.00    +0.077 A 
ATOM     29  C   LIG    1        7.052   0.097  -1.165  0.00  0.00    +0.131 A 
ATOM     30  F   LIG    1        7.036   0.213  -2.514  0.00  0.00    -0.205 F 
ENDBRANCH  22  23
ENDBRANCH  19  22
ENDBRANCH   7  18
BRANCH   4  31
ATOM     31  O   LIG    1       -0.794   1.249   2.588  0.00  0.00    -0.502 OA
ATOM     32  H   LIG    1        0.008   1.548   3.123  0.00  0.00    +0.292 HD
ENDBRANCH   4  31
TORSDOF 4
