REMARK  Name = molecules/RIGBPMDIGYBTBJ-UHFFFAOYSA-N.pdb
REMARK                            x       y       z     vdW  Elec       q    Type
REMARK                         _______ _______ _______ _____ _____    ______ ____
ROOT
ATOM      1  N   LIG    1        0.466  -0.870  -1.817  0.00  0.00    -0.169 N 
ATOM      2  C   LIG    1       -0.291  -1.044  -0.641  0.00  0.00    +0.319 C 
ATOM      3  O   LIG    1        0.153  -1.664   0.368  0.00  0.00    -0.251 OA
ATOM      4  N   LIG    1       -1.601  -0.510  -0.569  0.00  0.00    -0.295 N 
ATOM      5  H   LIG    1       -1.968   0.002  -1.398  0.00  0.00    +0.151 HD
ATOM      6  H   LIG    1        0.058  -0.354  -2.616  0.00  0.00    +0.178 HD
ENDROOT
BRANCH   4   7
ATOM      7  C   LIG    1       -2.423  -0.674   0.640  0.00  0.00    +0.074 C 
ATOM      8  C   LIG    1       -2.796   0.722   1.097  0.00  0.00    +0.022 C 
ATOM      9  C   LIG    1       -3.942   1.190   0.227  0.00  0.00    +0.002 C 
ATOM     10  C   LIG    1       -5.207   0.473   0.617  0.00  0.00    +0.000 C 
ATOM     11  C   LIG    1       -4.867  -0.921   1.133  0.00  0.00    +0.002 C 
ATOM     12  C   LIG    1       -3.705  -1.416   0.303  0.00  0.00    +0.022 C 
ENDBRANCH   4   7
BRANCH   1  13
ATOM     13  S   LIG    1        2.053  -1.512  -1.909  0.00  0.00    +0.076 S 
ATOM     14  O   LIG    1        2.144  -2.862  -1.243  0.00  0.00    -0.150 OA
ATOM     15  O   LIG    1        2.443  -1.623  -3.353  0.00  0.00    -0.150 OA
BRANCH  13  16
ATOM     16  C   LIG    1        3.137  -0.440  -1.056  0.00  0.00    +0.109 A 
ATOM     17  C   LIG    1        3.379  -0.669   0.296  0.00  0.00    +0.029 A 
ATOM     18  C   LIG    1        4.236   0.162   1.006  0.00  0.00    +0.005 A 
ATOM     19  C   LIG    1        4.814   1.194   0.315  0.00  0.00    -0.050 A 
ATOM     20  C   LIG    1        5.739   2.098   1.063  0.00  0.00    +0.044 C 
ATOM     21  C   LIG    1        4.586   1.437  -1.023  0.00  0.00    +0.005 A 
ATOM     22  C   LIG    1        3.721   0.590  -1.720  0.00  0.00    +0.029 A 
ENDBRANCH  13  16
ENDBRANCH   1  13
TORSDOF 3
