REMARK  Name = molecules/RINBGYCKMGDWPY-VIFPVBQESA-N.pdb
REMARK                            x       y       z     vdW  Elec       q    Type
REMARK                         _______ _______ _______ _____ _____    ______ ____
ROOT
ATOM      1  O   LIG    1       -1.189   0.188  -3.325  0.00  0.00    -0.153 OA
ATOM      2  S   LIG    1       -0.451  -0.453  -2.185  0.00  0.00    +0.062 S 
ATOM      3  C   LIG    1       -1.354  -0.380  -0.692  0.00  0.00    +0.128 A 
ATOM      4  C   LIG    1       -0.607  -0.502   0.462  0.00  0.00    +0.056 A 
ATOM      5  C   LIG    1       -1.274  -0.457   1.684  0.00  0.00    +0.047 A 
ATOM      6  C   LIG    1       -2.637  -0.295   1.781  0.00  0.00    +0.069 A 
ATOM      7 CL   LIG    1       -3.428  -0.243   3.343  0.00  0.00    -0.081 Cl
ATOM      8  C   LIG    1       -3.365  -0.174   0.608  0.00  0.00    +0.125 A 
ATOM      9  N   LIG    1        0.774  -0.654   0.340  0.00  0.00    -0.325 N 
ATOM     10  H   LIG    1        1.258  -1.251   1.079  0.00  0.00    +0.148 HD
ATOM     11  C   LIG    1        1.635  -0.090  -0.670  0.00  0.00    +0.169 C 
ATOM     12  C   LIG    1       -2.697  -0.220  -0.626  0.00  0.00    +0.060 A 
ATOM     13  N   LIG    1        1.003   0.422  -1.834  0.00  0.00    -0.169 NA
ATOM     14  H   LIG    1        0.665   1.409  -1.615  0.00  0.00    +0.150 HD
ATOM     15  O   LIG    1       -0.141  -1.875  -2.579  0.00  0.00    -0.153 OA
ENDROOT
BRANCH   8  16
ATOM     16  S   LIG    1       -5.076   0.035   0.755  0.00  0.00    +0.057 S 
ATOM     17  O   LIG    1       -5.297   1.319   1.546  0.00  0.00    -0.153 OA
ATOM     18  O   LIG    1       -5.671  -1.123   1.489  0.00  0.00    -0.153 OA
BRANCH  16  19
ATOM     19  N   LIG    1       -5.864   0.173  -0.763  0.00  0.00    -0.203 NA
ATOM     20  H   LIG    1       -6.729   0.740  -0.617  0.00  0.00    +0.144 HD
ATOM     21  H   LIG    1       -5.246   0.545  -1.520  0.00  0.00    +0.144 HD
ENDBRANCH  16  19
ENDBRANCH   8  16
BRANCH  11  22
ATOM     22  C   LIG    1        2.297   1.116   0.027  0.00  0.00    +0.109 C 
BRANCH  22  23
ATOM     23  S   LIG    1        3.135   0.606   1.531  0.00  0.00    -0.149 S 
BRANCH  23  24
ATOM     24  C   LIG    1        4.551  -0.461   1.156  0.00  0.00    +0.182 C 
BRANCH  24  25
ATOM     25  C   LIG    1        5.636   0.301   0.420  0.00  0.00    +0.399 C 
ATOM     26  F   LIG    1        6.029   1.344   1.268  0.00  0.00    -0.170 F 
ATOM     27  F   LIG    1        6.681  -0.574   0.203  0.00  0.00    -0.170 F 
ATOM     28  F   LIG    1        5.197   0.833  -0.762  0.00  0.00    -0.170 F 
ENDBRANCH  24  25
ENDBRANCH  23  24
ENDBRANCH  22  23
ENDBRANCH  11  22
TORSDOF 6
