REMARK  Name = molecules/RJIWZDNTCBHXAL-UHFFFAOYSA-N.pdb
REMARK                            x       y       z     vdW  Elec       q    Type
REMARK                         _______ _______ _______ _____ _____    ______ ____
ROOT
ATOM      1  C   LIG    1       -1.317  -0.669   0.019  0.00  0.00    +0.136 A 
ATOM      2  C   LIG    1        0.032  -0.477   0.007  0.00  0.00    +0.034 A 
ATOM      3  C   LIG    1        0.949  -1.530   0.053  0.00  0.00    +0.014 A 
ATOM      4  C   LIG    1        2.294  -1.266   0.047  0.00  0.00    +0.020 A 
ATOM      5  C   LIG    1        2.736   0.029  -0.003  0.00  0.00    +0.111 A 
ATOM      6  N   LIG    1        1.866   1.041  -0.046  0.00  0.00    -0.251 NA
ATOM      7  C   LIG    1        0.549   0.821  -0.042  0.00  0.00    +0.114 A 
ATOM      8  C   LIG    1       -0.284   1.940  -0.077  0.00  0.00    +0.143 A 
ATOM      9  C   LIG    1       -1.637   1.723  -0.063  0.00  0.00    +0.050 A 
ATOM     10  C   LIG    1       -2.158   0.463  -0.016  0.00  0.00    +0.037 A 
ENDROOT
BRANCH   1  11
ATOM     11  N   LIG    1       -1.900  -1.942   0.071  0.00  0.00    +0.057 N 
ATOM     12  O   LIG    1       -3.045  -2.041   0.652  0.00  0.00    -0.126 OA
ATOM     13  O   LIG    1       -1.375  -3.081  -0.430  0.00  0.00    -0.126 OA
ENDBRANCH   1  11
BRANCH   8  14
ATOM     14  O   LIG    1        0.238   3.238  -0.126  0.00  0.00    -0.505 OA
ATOM     15  H   LIG    1        1.253   3.369  -0.137  0.00  0.00    +0.292 HD
ENDBRANCH   8  14
TORSDOF 2
