REMARK  Name = molecules/RJKFOVLPORLFTN-LEKSSAKUSA-N.pdb
REMARK                            x       y       z     vdW  Elec       q    Type
REMARK                         _______ _______ _______ _____ _____    ______ ____
ROOT
ATOM      1  C   LIG    1        2.543   0.154   1.372  0.00  0.00    +0.016 C 
ATOM      2  C   LIG    1        2.338  -0.265  -0.066  0.00  0.00    -0.007 C 
ATOM      3  C   LIG    1        3.123  -1.530  -0.284  0.00  0.00    +0.019 C 
ATOM      4  C   LIG    1        4.602  -1.343  -0.163  0.00  0.00    +0.080 C 
ATOM      5  C   LIG    1        5.061   0.009  -0.502  0.00  0.00    +0.156 C 
ATOM      6  O   LIG    1        6.255   0.317  -0.259  0.00  0.00    -0.293 OA
ATOM      7  C   LIG    1        4.186   0.987  -1.102  0.00  0.00    +0.046 C 
ATOM      8  C   LIG    1        0.913  -0.398  -0.472  0.00  0.00    +0.002 C 
ATOM      9  C   LIG    1        0.157   0.812   0.095  0.00  0.00    -0.003 C 
ATOM     10  C   LIG    1       -1.236   0.636  -0.316  0.00  0.00    -0.001 C 
ATOM     11  C   LIG    1       -1.838  -0.551   0.407  0.00  0.00    -0.019 C 
ATOM     12  C   LIG    1       -1.477  -0.647   1.848  0.00  0.00    +0.012 C 
ATOM     13  C   LIG    1       -3.274  -0.396   0.094  0.00  0.00    +0.061 C 
ATOM     14  C   LIG    1       -3.474   0.987  -0.556  0.00  0.00    +0.012 C 
ATOM     15  C   LIG    1       -1.198  -1.754  -0.274  0.00  0.00    +0.008 C 
ATOM     16  C   LIG    1       -2.227   1.707  -0.007  0.00  0.00    +0.005 C 
ATOM     17  C   LIG    1        0.712   2.051  -0.580  0.00  0.00    +0.008 C 
ATOM     18  C   LIG    1        1.889   1.797  -1.459  0.00  0.00    +0.032 C 
ATOM     19  C   LIG    1        0.294  -1.707  -0.177  0.00  0.00    +0.005 C 
ATOM     20  C   LIG    1        2.888   0.865  -0.901  0.00  0.00    -0.060 C 
ENDROOT
BRANCH  13  21
ATOM     21  C   LIG    1       -4.218  -0.410   1.221  0.00  0.00    +0.134 C 
ATOM     22  O   LIG    1       -3.885  -0.531   2.368  0.00  0.00    -0.297 OA
ATOM     23  C   LIG    1       -5.663  -0.269   0.930  0.00  0.00    +0.086 C 
ENDBRANCH  13  21
TORSDOF 1
