REMARK  Name = molecules/RJQXTJLFIWVMTO-TYNCELHUSA-N.pdb
REMARK                            x       y       z     vdW  Elec       q    Type
REMARK                         _______ _______ _______ _____ _____    ______ ____
ROOT
ATOM      1  CA  LIG    1        3.924   0.099  -0.035  0.00  0.00    +0.201 C 
ATOM      2  C   LIG    1        3.343  -1.241   0.387  0.00  0.00    +0.042 C 
ATOM      3  C   LIG    1        4.284  -1.978   1.319  0.00  0.00    +0.025 C 
ATOM      4  S   LIG    1        1.853  -0.706   1.280  0.00  0.00    -0.127 S 
ATOM      5  C   LIG    1        2.049   1.097   0.995  0.00  0.00    +0.165 C 
ATOM      6  CA  LIG    1        0.918   1.728   0.231  0.00  0.00    +0.190 C 
ATOM      7  C   LIG    1        1.972   1.982  -0.778  0.00  0.00    +0.240 C 
ATOM      8  O   LIG    1        2.002   2.780  -1.764  0.00  0.00    -0.273 OA
ATOM      9  C   LIG    1        3.034  -2.044  -0.824  0.00  0.00    +0.025 C 
ATOM     10  N   LIG    1        2.847   1.029  -0.209  0.00  0.00    -0.271 N 
ENDROOT
BRANCH   6  11
ATOM     11  N   LIG    1       -0.143   0.826  -0.184  0.00  0.00    -0.298 N 
ATOM     12  C   LIG    1       -1.475   1.178   0.119  0.00  0.00    +0.252 C 
ATOM     13  O   LIG    1       -1.637   2.292   0.751  0.00  0.00    -0.270 OA
ATOM     14  H   LIG    1        0.067  -0.054  -0.690  0.00  0.00    +0.150 HD
BRANCH  12  15
ATOM     15  C   LIG    1       -2.680   0.447  -0.189  0.00  0.00    +0.120 A 
ATOM     16  C   LIG    1       -3.907   0.993   0.212  0.00  0.00    +0.136 A 
ATOM     17  C   LIG    1       -5.095   0.371  -0.037  0.00  0.00    +0.046 A 
ATOM     18  C   LIG    1       -5.095  -0.828  -0.702  0.00  0.00    +0.007 A 
ATOM     19  C   LIG    1       -3.920  -1.393  -1.109  0.00  0.00    +0.046 A 
ATOM     20  C   LIG    1       -2.713  -0.759  -0.855  0.00  0.00    +0.136 A 
BRANCH  16  21
ATOM     21  O   LIG    1       -3.971   2.212   0.893  0.00  0.00    -0.494 OA
ATOM     22  C   LIG    1       -5.166   2.794   1.312  0.00  0.00    +0.277 C 
ENDBRANCH  16  21
BRANCH  20  23
ATOM     23  O   LIG    1       -1.557  -1.352  -1.276  0.00  0.00    -0.494 OA
ATOM     24  C   LIG    1       -1.583  -2.581  -1.956  0.00  0.00    +0.277 C 
ENDBRANCH  20  23
ENDBRANCH  12  15
ENDBRANCH   6  11
BRANCH   1  25
ATOM     25  C   LIG    1        4.894   0.639   0.919  0.00  0.00    +0.327 C 
ATOM     26  O   LIG    1        5.937   0.004   1.280  0.00  0.00    -0.249 OA
BRANCH  25  27
ATOM     27  OXT LIG    1        4.711   1.883   1.475  0.00  0.00    -0.479 OA
ATOM     28  HXT LIG    1        4.465   2.718   0.981  0.00  0.00    +0.295 HD
ENDBRANCH  25  27
ENDBRANCH   1  25
TORSDOF 6
