REMARK  Name = molecules/RJURFGZVJUQBHK-IIXSONLDSA-N.pdb
REMARK                            x       y       z     vdW  Elec       q    Type
REMARK                         _______ _______ _______ _____ _____    ______ ____
ROOT
ATOM      1  C   LIG    1       -0.675   2.929   2.852  0.00  0.00    +0.063 A 
ATOM      2  C   LIG    1       -0.202   2.100   3.811  0.00  0.00    +0.108 A 
ATOM      3  C   LIG    1       -0.317   2.495   5.152  0.00  0.00    +0.155 A 
ATOM      4  O   LIG    1        0.119   1.731   6.115  0.00  0.00    -0.455 OA
ATOM      5  C   LIG    1        0.680   0.588   5.839  0.00  0.00    +0.144 C 
ATOM      6  C   LIG    1        1.128  -0.223   6.865  0.00  0.00    +0.111 C 
ATOM      7  C   LIG    1        0.943   0.277   8.259  0.00  0.00    +0.029 C 
ATOM      8  C   LIG    1        1.715  -1.430   6.591  0.00  0.00    +0.192 C 
ATOM      9  O   LIG    1        2.124  -2.175   7.545  0.00  0.00    -0.290 OA
ATOM     10  C   LIG    1        1.897  -1.901   5.316  0.00  0.00    +0.083 C 
ATOM     11  C   LIG    1        1.454  -1.096   4.233  0.00  0.00    +0.087 C 
ATOM     12  C   LIG    1        0.848   0.123   4.471  0.00  0.00    +0.107 C 
ATOM     13  C   LIG    1       -0.900   3.716   5.436  0.00  0.00    -0.006 A 
ATOM     14  C   LIG    1       -1.023   4.126   6.850  0.00  0.00    +0.047 C 
ATOM     15  C   LIG    1       -1.367   4.552   4.450  0.00  0.00    +0.008 A 
ATOM     16  N   LIG    1        0.387   0.913   3.472  0.00  0.00    -0.206 NA
ATOM     17  C   LIG    1       -1.267   4.184   3.132  0.00  0.00    +0.015 A 
ENDROOT
BRANCH   1  18
ATOM     18  C   LIG    1       -0.886   2.454   1.446  0.00  0.00    +0.247 C 
ATOM     19  N   LIG    1       -2.207   1.977   1.250  0.00  0.00    -0.297 N 
ATOM     20  H   LIG    1       -2.807   2.036   2.173  0.00  0.00    +0.150 HD
ATOM     21  O   LIG    1       -0.011   2.499   0.583  0.00  0.00    -0.270 OA
BRANCH  19  22
ATOM     22  C   LIG    1       -2.920   1.460   0.165  0.00  0.00    +0.200 C 
ATOM     23  C   LIG    1       -3.813   2.551  -0.393  0.00  0.00    +0.203 C 
ATOM     24  C   LIG    1       -3.427   3.850   0.298  0.00  0.00    +0.054 C 
ATOM     25  O   LIG    1       -3.522   2.750  -1.773  0.00  0.00    -0.458 OA
ATOM     26  C   LIG    1       -4.496   3.061  -2.704  0.00  0.00    +0.328 C 
ATOM     27  C   LIG    1       -5.729   2.216  -2.780  0.00  0.00    +0.187 C 
ATOM     28  N   LIG    1       -6.786   2.680  -1.926  0.00  0.00    -0.290 N 
ATOM     29  C   LIG    1       -7.675   1.818  -1.250  0.00  0.00    +0.233 C 
ATOM     30  C   LIG    1       -7.304   0.638  -0.457  0.00  0.00    +0.203 C 
ATOM     31  N   LIG    1       -7.966  -0.570  -0.912  0.00  0.00    -0.294 N 
ATOM     32  C   LIG    1       -9.433  -0.492  -0.976  0.00  0.00    +0.132 C 
ATOM     33  C   LIG    1       -7.339  -1.778  -1.278  0.00  0.00    +0.236 C 
ATOM     34  O   LIG    1       -7.762  -2.818  -0.659  0.00  0.00    -0.274 OA
ATOM     35  C   LIG    1       -6.272  -1.958  -2.281  0.00  0.00    +0.162 C 
ATOM     36  N   LIG    1       -5.215  -2.833  -1.869  0.00  0.00    -0.288 N 
ATOM     37  C   LIG    1       -3.892  -2.463  -1.632  0.00  0.00    +0.237 C 
ATOM     38  C   LIG    1       -3.458  -1.386  -0.707  0.00  0.00    +0.162 C 
ATOM     39  N   LIG    1       -2.385  -0.587  -1.265  0.00  0.00    -0.302 N 
ATOM     40  H   LIG    1       -1.767  -1.055  -1.965  0.00  0.00    +0.150 HD
ATOM     41  O   LIG    1       -2.953  -3.093  -2.255  0.00  0.00    -0.274 OA
ATOM     42  C   LIG    1       -5.812  -4.181  -1.786  0.00  0.00    +0.109 C 
ATOM     43  C   LIG    1       -6.885  -4.153  -2.847  0.00  0.00    +0.021 C 
ATOM     44  C   LIG    1       -6.848  -2.787  -3.466  0.00  0.00    +0.033 C 
ATOM     45  O   LIG    1       -8.926   2.084  -1.330  0.00  0.00    -0.274 OA
ATOM     46  C   LIG    1       -6.946   4.131  -1.747  0.00  0.00    +0.133 C 
ATOM     47  O   LIG    1       -4.427   4.020  -3.515  0.00  0.00    -0.249 OA
ATOM     48  C   LIG    1       -2.151   0.793  -0.901  0.00  0.00    +0.238 C 
ATOM     49  O   LIG    1       -1.265   1.405  -1.530  0.00  0.00    -0.274 OA
BRANCH  38  50
ATOM     50  C   LIG    1       -2.988  -2.094   0.566  0.00  0.00    +0.012 C 
ATOM     51  C   LIG    1       -4.182  -2.910   1.081  0.00  0.00    +0.009 C 
ATOM     52  C   LIG    1       -1.882  -3.080   0.252  0.00  0.00    +0.009 C 
ENDBRANCH  38  50
BRANCH  27  53
ATOM     53  C   LIG    1       -6.167   2.004  -4.202  0.00  0.00    +0.014 C 
ATOM     54  C   LIG    1       -7.270   0.981  -4.336  0.00  0.00    +0.009 C 
ATOM     55  C   LIG    1       -5.051   1.647  -5.122  0.00  0.00    +0.009 C 
ENDBRANCH  27  53
ENDBRANCH  19  22
ENDBRANCH   1  18
BRANCH  11  56
ATOM     56  C   LIG    1        1.753  -1.596   2.946  0.00  0.00    +0.249 C 
ATOM     57  O   LIG    1        2.196  -2.810   2.893  0.00  0.00    -0.270 OA
ATOM     58  N   LIG    1        1.683  -0.998   1.647  0.00  0.00    -0.297 N 
ATOM     59  H   LIG    1        1.351  -0.053   1.532  0.00  0.00    +0.150 HD
BRANCH  58  60
ATOM     60  C   LIG    1        2.139  -1.855   0.523  0.00  0.00    +0.200 C 
ATOM     61  C   LIG    1        3.485  -2.394   0.858  0.00  0.00    +0.238 C 
ATOM     62  N   LIG    1        4.563  -1.831   1.532  0.00  0.00    -0.302 N 
ATOM     63  H   LIG    1        4.831  -2.330   2.471  0.00  0.00    +0.150 HD
ATOM     64  C   LIG    1        5.440  -0.746   1.264  0.00  0.00    +0.162 C 
ATOM     65  C   LIG    1        5.014   0.591   1.743  0.00  0.00    +0.237 C 
ATOM     66  O   LIG    1        4.231   0.651   2.726  0.00  0.00    -0.274 OA
ATOM     67  N   LIG    1        5.516   1.737   1.069  0.00  0.00    -0.288 N 
ATOM     68  C   LIG    1        5.928   3.011   1.586  0.00  0.00    +0.109 C 
ATOM     69  C   LIG    1        5.315   3.941   0.553  0.00  0.00    +0.021 C 
ATOM     70  C   LIG    1        5.455   3.191  -0.737  0.00  0.00    +0.033 C 
ATOM     71  C   LIG    1        5.671   1.743  -0.357  0.00  0.00    +0.162 C 
ATOM     72  C   LIG    1        6.974   1.272  -0.859  0.00  0.00    +0.236 C 
ATOM     73  O   LIG    1        7.979   1.881  -0.299  0.00  0.00    -0.274 OA
ATOM     74  N   LIG    1        7.335   0.318  -1.796  0.00  0.00    -0.294 N 
ATOM     75  C   LIG    1        8.485  -0.547  -1.375  0.00  0.00    +0.132 C 
ATOM     76  C   LIG    1        6.869  -0.002  -3.095  0.00  0.00    +0.203 C 
ATOM     77  C   LIG    1        5.522   0.264  -3.527  0.00  0.00    +0.233 C 
ATOM     78  O   LIG    1        5.164   1.515  -3.374  0.00  0.00    -0.274 OA
ATOM     79  N   LIG    1        4.485  -0.497  -4.086  0.00  0.00    -0.290 N 
ATOM     80  C   LIG    1        3.919  -1.760  -3.838  0.00  0.00    +0.187 C 
ATOM     81  C   LIG    1        2.542  -1.716  -3.191  0.00  0.00    +0.328 C 
ATOM     82  O   LIG    1        2.351  -1.864  -1.908  0.00  0.00    -0.458 OA
ATOM     83  O   LIG    1        1.638  -1.517  -4.103  0.00  0.00    -0.249 OA
ATOM     84  C   LIG    1        3.813   0.223  -5.254  0.00  0.00    +0.133 C 
ATOM     85  O   LIG    1        3.661  -3.618   0.436  0.00  0.00    -0.274 OA
ATOM     86  C   LIG    1        1.872  -1.268  -0.756  0.00  0.00    +0.203 C 
ATOM     87  C   LIG    1        2.163   0.238  -0.802  0.00  0.00    +0.054 C 
BRANCH  64  88
ATOM     88  C   LIG    1        6.803  -0.958   1.977  0.00  0.00    +0.012 C 
ATOM     89  C   LIG    1        6.604  -0.832   3.467  0.00  0.00    +0.009 C 
ATOM     90  C   LIG    1        7.483  -2.211   1.544  0.00  0.00    +0.009 C 
ENDBRANCH  64  88
BRANCH  80  91
ATOM     91  C   LIG    1        4.715  -2.925  -3.404  0.00  0.00    +0.014 C 
ATOM     92  C   LIG    1        5.478  -2.880  -2.144  0.00  0.00    +0.009 C 
ATOM     93  C   LIG    1        5.538  -3.527  -4.550  0.00  0.00    +0.009 C 
ENDBRANCH  80  91
ENDBRANCH  58  60
ENDBRANCH  11  56
BRANCH  10  94
ATOM     94  N   LIG    1        2.521  -3.166   5.096  0.00  0.00    -0.355 N 
ATOM     95  H   LIG    1        1.970  -4.049   5.028  0.00  0.00    +0.142 HD
ATOM     96  H   LIG    1        3.567  -3.254   4.998  0.00  0.00    +0.142 HD
ENDBRANCH  10  94
TORSDOF 9
