REMARK  Name = molecules/RKHQGWMMUURILY-UHRZLXHJSA-N.pdb
REMARK                            x       y       z     vdW  Elec       q    Type
REMARK                         _______ _______ _______ _____ _____    ______ ____
ROOT
ATOM      1  C   LIG    1        3.265   0.749  -0.826  0.00  0.00    +0.014 C 
ATOM      2  C   LIG    1        2.632  -0.425  -0.182  0.00  0.00    +0.006 C 
ATOM      3  C   LIG    1        1.622  -0.094   0.902  0.00  0.00    +0.005 C 
ATOM      4  C   LIG    1        2.441   0.512   1.970  0.00  0.00    +0.011 C 
ATOM      5  C   LIG    1        3.809  -0.194   1.796  0.00  0.00    +0.022 C 
ATOM      6  C   LIG    1        4.023  -0.943   3.116  0.00  0.00    +0.010 C 
ATOM      7  C   LIG    1        0.508   0.731   0.348  0.00  0.00    +0.022 C 
ATOM      8  C   LIG    1       -0.425   1.065   1.446  0.00  0.00    -0.019 C 
ATOM      9  C   LIG    1       -1.734   1.051   1.355  0.00  0.00    -0.050 C 
ATOM     10  C   LIG    1       -2.553   1.406   2.523  0.00  0.00    +0.044 C 
ATOM     11  C   LIG    1       -2.332   0.675   0.067  0.00  0.00    -0.036 C 
ATOM     12  C   LIG    1       -3.617   0.421   0.026  0.00  0.00    +0.032 C 
ATOM     13  C   LIG    1       -4.238   0.026  -1.225  0.00  0.00    +0.071 A 
ATOM     14  N   LIG    1       -5.531  -0.273  -1.556  0.00  0.00    -0.232 N 
ATOM     15  N   LIG    1       -5.588  -0.558  -2.844  0.00  0.00    -0.174 NA
ATOM     16  C   LIG    1       -4.356  -0.454  -3.370  0.00  0.00    +0.139 A 
ATOM     17  C   LIG    1       -3.490  -0.084  -2.349  0.00  0.00    -0.001 A 
ATOM     18  C   LIG    1       -2.030   0.150  -2.368  0.00  0.00    +0.050 C 
ATOM     19  C   LIG    1       -1.414   0.595  -1.112  0.00  0.00    +0.003 C 
ATOM     20  C   LIG    1       -0.961   2.056  -1.311  0.00  0.00    +0.017 C 
ATOM     21  C   LIG    1       -0.234  -0.188  -0.618  0.00  0.00    +0.035 C 
ATOM     22  C   LIG    1        0.630  -0.793  -1.650  0.00  0.00    +0.120 C 
ATOM     23  C   LIG    1        3.608  -1.185   0.728  0.00  0.00    +0.112 C 
ATOM     24  C   LIG    1        1.926  -1.340  -1.145  0.00  0.00    +0.041 C 
ENDROOT
BRANCH  14  25
ATOM     25  C   LIG    1       -6.571  -0.249  -0.591  0.00  0.00    +0.066 A 
ATOM     26  C   LIG    1       -6.536  -0.977   0.571  0.00  0.00    +0.028 A 
ATOM     27  C   LIG    1       -7.586  -0.902   1.461  0.00  0.00    +0.002 A 
ATOM     28  C   LIG    1       -8.674  -0.100   1.192  0.00  0.00    +0.000 A 
ATOM     29  C   LIG    1       -8.709   0.624   0.035  0.00  0.00    +0.002 A 
ATOM     30  C   LIG    1       -7.657   0.549  -0.856  0.00  0.00    +0.028 A 
ENDBRANCH  14  25
BRANCH  22  31
ATOM     31  O   LIG    1        0.900   0.034  -2.730  0.00  0.00    -0.391 OA
ATOM     32  H   LIG    1        1.800  -0.115  -3.119  0.00  0.00    +0.210 HD
ENDBRANCH  22  31
BRANCH  23  33
ATOM     33  O   LIG    1        2.731  -2.179   1.315  0.00  0.00    -0.385 OA
ATOM     34  H   LIG    1        3.275  -2.866   1.745  0.00  0.00    +0.210 HD
ENDBRANCH  23  33
BRANCH  23  35
ATOM     35  C   LIG    1        4.656  -1.858   0.049  0.00  0.00    +0.205 C 
ATOM     36  O   LIG    1        4.576  -3.140   0.140  0.00  0.00    -0.218 OA
BRANCH  35  37
ATOM     37  C   LIG    1        5.811  -1.457  -0.743  0.00  0.00    +0.276 C 
BRANCH  37  38
ATOM     38  O   LIG    1        6.249  -0.169  -0.802  0.00  0.00    -0.462 OA
BRANCH  38  39
ATOM     39  C   LIG    1        6.839   0.619   0.134  0.00  0.00    +0.304 C 
ATOM     40  O   LIG    1        7.062   0.160   1.257  0.00  0.00    -0.251 OA
ATOM     41  C   LIG    1        7.210   2.012  -0.193  0.00  0.00    +0.136 C 
ENDBRANCH  38  39
ENDBRANCH  37  38
ENDBRANCH  35  37
ENDBRANCH  23  35
TORSDOF 7
