REMARK  Name = molecules/RKUQLAPSGZJLGP-CYBMUJFWSA-N.pdb
REMARK                            x       y       z     vdW  Elec       q    Type
REMARK                         _______ _______ _______ _____ _____    ______ ____
ROOT
ATOM      1  C   LIG    1       -0.247  -1.241   0.624  0.00  0.00    +0.261 C 
ENDROOT
BRANCH   1   2
ATOM      2  O   LIG    1        0.939  -0.641   0.572  0.00  0.00    -0.489 OA
BRANCH   2   3
ATOM      3  C   LIG    1        2.142  -0.648   0.026  0.00  0.00    +0.124 A 
ATOM      4  C   LIG    1        3.051   0.380   0.399  0.00  0.00    -0.006 A 
ATOM      5  C   LIG    1        2.590   1.408   1.387  0.00  0.00    +0.048 C 
ATOM      6  C   LIG    1        4.308   0.430  -0.124  0.00  0.00    -0.044 A 
ATOM      7  C   LIG    1        5.232   1.518   0.291  0.00  0.00    +0.044 C 
ATOM      8  C   LIG    1        4.739  -0.519  -1.035  0.00  0.00    +0.004 A 
ATOM      9  C   LIG    1        3.891  -1.529  -1.421  0.00  0.00    +0.004 A 
ATOM     10  C   LIG    1        2.606  -1.583  -0.888  0.00  0.00    +0.046 A 
ENDBRANCH   2   3
ENDBRANCH   1   2
BRANCH   1  11
ATOM     11  C   LIG    1       -1.038  -1.162  -0.671  0.00  0.00    +0.166 C 
BRANCH  11  12
ATOM     12  O   LIG    1       -0.384  -1.727  -1.751  0.00  0.00    -0.387 OA
ATOM     13  H   LIG    1       -0.614  -1.295  -2.611  0.00  0.00    +0.210 HD
ENDBRANCH  11  12
BRANCH  11  14
ATOM     14  C   LIG    1       -1.345   0.280  -0.979  0.00  0.00    +0.116 C 
BRANCH  14  15
ATOM     15  N   LIG    1       -2.060   0.933   0.036  0.00  0.00    -0.309 NA
ATOM     16  H   LIG    1       -1.501   1.113   0.878  0.00  0.00    +0.123 HD
BRANCH  15  17
ATOM     17  C   LIG    1       -3.416   0.656   0.266  0.00  0.00    +0.011 C 
ATOM     18  C   LIG    1       -3.869   1.664   1.355  0.00  0.00    +0.027 C 
ATOM     19  C   LIG    1       -3.841  -0.682   0.731  0.00  0.00    +0.027 C 
ATOM     20  C   LIG    1       -4.309   1.009  -0.928  0.00  0.00    +0.027 C 
ENDBRANCH  15  17
ENDBRANCH  14  15
ENDBRANCH  11  14
ENDBRANCH   1  11
TORSDOF 7
