REMARK  Name = molecules/RLAWWYSOJDYHDC-BZSNNMDCSA-N.pdb
REMARK                            x       y       z     vdW  Elec       q    Type
REMARK                         _______ _______ _______ _____ _____    ______ ____
ROOT
ATOM      1  C   UNK A  1       -1.458   0.508   0.679  0.00  0.00    +0.141 C 
ENDROOT
BRANCH   1   2
ATOM      2  C   UNK A  1       -2.517  -0.558   0.733  0.00  0.00    +0.233 C 
ATOM      3  O   UNK A  1       -2.928  -0.687   1.998  0.00  0.00    -0.274 OA
ATOM      4  N   PRO A  2       -3.073  -1.347  -0.247  0.00  0.00    -0.287 N 
ATOM      5  CA  PRO A  2       -4.257  -2.188  -0.002  0.00  0.00    +0.184 C 
ATOM      6  CB  PRO A  2       -4.315  -3.200  -1.123  0.00  0.00    +0.035 C 
ATOM      7  CG  PRO A  2       -2.852  -3.218  -1.541  0.00  0.00    +0.021 C 
ATOM      8  CD  PRO A  2       -2.634  -1.683  -1.575  0.00  0.00    +0.109 C 
BRANCH   5   9
ATOM      9  C   PRO A  2       -4.109  -2.915   1.308  0.00  0.00    +0.325 C 
ATOM     10  OXT PRO A  2       -5.117  -3.376   1.902  0.00  0.00    -0.249 OA
BRANCH   9  11
ATOM     11  O   PRO A  2       -2.873  -3.076   1.870  0.00  0.00    -0.479 OA
ATOM     12  H   PRO A  2       -2.471  -3.861   2.298  0.00  0.00    +0.295 HD
ENDBRANCH   9  11
ENDBRANCH   5   9
ENDBRANCH   1   2
BRANCH   1  13
ATOM     13  N   UNK A  1       -0.274  -0.254   0.680  0.00  0.00    -0.294 NA
ATOM     14  H   UNK A  1       -0.369  -1.112   1.216  0.00  0.00    +0.123 HD
BRANCH  13  15
ATOM     15  C   UNK A  1        1.027   0.234   0.544  0.00  0.00    +0.164 C 
BRANCH  15  16
ATOM     16  C   UNK A  1        1.332   0.458  -0.915  0.00  0.00    +0.322 C 
ATOM     17  O   UNK A  1        0.933  -0.404  -1.728  0.00  0.00    -0.249 OA
BRANCH  16  18
ATOM     18  O   UNK A  1        2.012   1.569  -1.385  0.00  0.00    -0.480 OA
ATOM     19  H   UNK A  1        2.541   2.165  -0.748  0.00  0.00    +0.295 HD
ENDBRANCH  16  18
ENDBRANCH  15  16
BRANCH  15  20
ATOM     20  C   UNK A  1        1.912  -0.913   1.026  0.00  0.00    +0.035 C 
BRANCH  20  21
ATOM     21  C   UNK A  1        3.322  -0.844   1.199  0.00  0.00    +0.037 C 
BRANCH  21  22
ATOM     22  C   UNK A  1        4.464  -0.817   0.365  0.00  0.00    -0.047 A 
ATOM     23  C   UNK A  1        5.629  -1.431   0.911  0.00  0.00    +0.003 A 
ATOM     24  C   UNK A  1        6.879  -1.352   0.342  0.00  0.00    +0.000 A 
ATOM     25  C   UNK A  1        7.016  -0.617  -0.844  0.00  0.00    +0.000 A 
ATOM     26  C   UNK A  1        5.942  -0.006  -1.417  0.00  0.00    +0.000 A 
ATOM     27  C   UNK A  1        4.693  -0.133  -0.788  0.00  0.00    +0.003 A 
ENDBRANCH  21  22
ENDBRANCH  20  21
ENDBRANCH  15  20
ENDBRANCH  13  15
ENDBRANCH   1  13
BRANCH   1  28
ATOM     28  C   UNK A  1       -1.726   1.501  -0.375  0.00  0.00    +0.028 C 
BRANCH  28  29
ATOM     29  C   UNK A  1       -0.810   2.710  -0.271  0.00  0.00    +0.003 C 
BRANCH  29  30
ATOM     30  C   UNK A  1       -1.226   3.612   0.932  0.00  0.00    +0.015 C 
BRANCH  30  31
ATOM     31  C   UNK A  1       -2.477   4.373   0.515  0.00  0.00    +0.077 C 
BRANCH  31  32
ATOM     32  N   UNK A  1       -2.002   5.232  -0.630  0.00  0.00    -0.330 NA
ATOM     33  H   UNK A  1       -1.251   5.807  -0.174  0.00  0.00    +0.118 HD
ATOM     34  H   UNK A  1       -2.782   5.821  -0.886  0.00  0.00    +0.118 HD
ENDBRANCH  31  32
ENDBRANCH  30  31
ENDBRANCH  29  30
ENDBRANCH  28  29
ENDBRANCH   1  28
TORSDOF 15
