REMARK  Name = molecules/RLGQACBPNDBWTB-UHFFFAOYSA-N.pdb
REMARK                            x       y       z     vdW  Elec       q    Type
REMARK                         _______ _______ _______ _____ _____    ______ ____
ROOT
ATOM      1  C   LIG    1       -0.160   2.974   1.071  0.00  0.00    -0.000 C 
ENDROOT
BRANCH   1   2
ATOM      2  C   LIG    1       -1.202   2.256   0.241  0.00  0.00    -0.000 C 
BRANCH   2   3
ATOM      3  C   LIG    1       -2.229   1.687   1.191  0.00  0.00    -0.000 C 
BRANCH   3   4
ATOM      4  C   LIG    1       -3.311   0.946   0.395  0.00  0.00    -0.002 C 
BRANCH   4   5
ATOM      5  C   LIG    1       -4.348   0.373   1.338  0.00  0.00    -0.018 C 
BRANCH   5   6
ATOM      6  C   LIG    1       -5.423  -0.361   0.621  0.00  0.00    -0.076 C 
BRANCH   6   7
ATOM      7  N   LIG    1       -5.035  -1.470  -0.179  0.00  0.00    +0.374 N 
ATOM      8  C   LIG    1       -3.817  -2.125   0.155  0.00  0.00    -0.093 C 
ATOM      9  C   LIG    1       -6.106  -2.484  -0.199  0.00  0.00    -0.093 C 
ATOM     10  C   LIG    1       -4.947  -1.003  -1.561  0.00  0.00    -0.093 C 
ENDBRANCH   6   7
ENDBRANCH   5   6
ENDBRANCH   4   5
ENDBRANCH   3   4
ENDBRANCH   2   3
ENDBRANCH   1   2
BRANCH   1  11
ATOM     11  C   LIG    1        0.917   3.582   0.270  0.00  0.00    -0.000 C 
BRANCH  11  12
ATOM     12  C   LIG    1        1.767   2.809  -0.636  0.00  0.00    -0.000 C 
BRANCH  12  13
ATOM     13  C   LIG    1        2.613   1.745  -0.049  0.00  0.00    -0.000 C 
BRANCH  13  14
ATOM     14  C   LIG    1        1.880   0.604   0.516  0.00  0.00    -0.000 C 
BRANCH  14  15
ATOM     15  C   LIG    1        2.800  -0.456   1.140  0.00  0.00    -0.000 C 
BRANCH  15  16
ATOM     16  C   LIG    1        3.717  -0.991   0.068  0.00  0.00    -0.000 C 
BRANCH  16  17
ATOM     17  C   LIG    1        4.619  -2.065   0.582  0.00  0.00    -0.000 C 
BRANCH  17  18
ATOM     18  C   LIG    1        5.493  -2.639  -0.449  0.00  0.00    -0.000 C 
BRANCH  18  19
ATOM     19  C   LIG    1        6.458  -1.789  -1.170  0.00  0.00    -0.003 C 
ATOM     20  C   LIG    1        5.946  -0.679  -2.006  0.00  0.00    +0.004 C 
ENDBRANCH  18  19
ENDBRANCH  17  18
ENDBRANCH  16  17
ENDBRANCH  15  16
ENDBRANCH  14  15
ENDBRANCH  13  14
ENDBRANCH  12  13
ENDBRANCH  11  12
ENDBRANCH   1  11
TORSDOF 15
