REMARK  Name = molecules/RLISWLLILOTWGG-UHFFFAOYSA-N.pdb
REMARK                            x       y       z     vdW  Elec       q    Type
REMARK                         _______ _______ _______ _____ _____    ______ ____
ROOT
ATOM      1  C   LIG    1        0.067  -0.176  -0.363  0.00  0.00    +0.133 A 
ATOM      2  C   LIG    1       -1.272  -0.086  -0.080  0.00  0.00    +0.078 A 
ATOM      3  C   LIG    1       -1.960   1.091  -0.290  0.00  0.00    +0.017 A 
ATOM      4  C   LIG    1       -1.304   2.220  -0.797  0.00  0.00    +0.001 A 
ATOM      5  C   LIG    1        0.023   2.120  -1.075  0.00  0.00    +0.004 A 
ATOM      6  C   LIG    1        0.715   0.923  -0.860  0.00  0.00    +0.046 A 
ENDROOT
BRANCH   2   7
ATOM      7  C   LIG    1       -1.990  -1.244   0.451  0.00  0.00    +0.245 C 
ATOM      8  N   LIG    1       -3.375  -1.168   0.751  0.00  0.00    -0.325 N 
ATOM      9  H   LIG    1       -3.807  -1.491   1.637  0.00  0.00    +0.145 HD
ATOM     10  H   LIG    1       -3.995  -0.758   0.022  0.00  0.00    +0.145 HD
ATOM     11  O   LIG    1       -1.417  -2.336   0.661  0.00  0.00    -0.270 OA
ENDBRANCH   2   7
BRANCH   1  12
ATOM     12  O   LIG    1        0.756  -1.346  -0.157  0.00  0.00    -0.480 OA
BRANCH  12  13
ATOM     13  C   LIG    1        2.111  -1.556  -0.399  0.00  0.00    +0.349 C 
BRANCH  13  14
ATOM     14  C   LIG    1        3.034  -0.722   0.368  0.00  0.00    +0.343 C 
ATOM     15  O   LIG    1        4.283  -0.876   0.137  0.00  0.00    -0.247 OA
BRANCH  14  16
ATOM     16  O   LIG    1        2.720   0.218   1.319  0.00  0.00    -0.478 OA
ATOM     17  H   LIG    1        3.281   1.065   1.427  0.00  0.00    +0.295 HD
ENDBRANCH  14  16
ENDBRANCH  13  14
ENDBRANCH  12  13
ENDBRANCH   1  12
TORSDOF 5
