REMARK  Name = molecules/RMMXLENWKUUMAY-UHFFFAOYSA-N.pdb
REMARK                            x       y       z     vdW  Elec       q    Type
REMARK                         _______ _______ _______ _____ _____    ______ ____
ROOT
ATOM      1  N   LIG    1       -0.245  -1.877  -1.103  0.00  0.00    -0.323 N 
ATOM      2  C   LIG    1       -1.380  -1.571  -0.436  0.00  0.00    +0.070 A 
ATOM      3  C   LIG    1       -1.787  -2.666   0.257  0.00  0.00    +0.092 A 
ATOM      4  C   LIG    1       -2.927  -2.643   1.031  0.00  0.00    -0.022 A 
ATOM      5  C   LIG    1       -3.334  -3.870   1.776  0.00  0.00    +0.046 C 
ATOM      6  C   LIG    1       -3.652  -1.487   1.091  0.00  0.00    +0.017 A 
ATOM      7  C   LIG    1       -3.271  -0.334   0.393  0.00  0.00    +0.020 A 
ATOM      8  N   LIG    1       -0.908  -3.656   0.025  0.00  0.00    -0.232 NA
ATOM      9  C   LIG    1       -2.147  -0.410  -0.349  0.00  0.00    +0.039 A 
ATOM     10  C   LIG    1        0.040  -3.149  -0.819  0.00  0.00    +0.111 A 
ENDROOT
BRANCH   7  11
ATOM     11  C   LIG    1       -4.106   0.866   0.518  0.00  0.00    +0.142 A 
ATOM     12  N   LIG    1       -5.250   0.889   1.270  0.00  0.00    -0.228 NA
ATOM     13  C   LIG    1       -5.833   2.092   1.230  0.00  0.00    +0.090 A 
ATOM     14  C   LIG    1       -6.983   2.628   1.804  0.00  0.00    +0.030 A 
ATOM     15  C   LIG    1       -7.362   3.933   1.591  0.00  0.00    +0.002 A 
ATOM     16  C   LIG    1       -6.554   4.703   0.779  0.00  0.00    +0.002 A 
ATOM     17  C   LIG    1       -5.409   4.168   0.208  0.00  0.00    +0.028 A 
ATOM     18  C   LIG    1       -5.041   2.859   0.430  0.00  0.00    +0.069 A 
ATOM     19  N   LIG    1       -3.993   2.083   0.009  0.00  0.00    -0.327 N 
ATOM     20  C   LIG    1       -2.961   2.573  -0.848  0.00  0.00    +0.151 C 
ENDBRANCH   7  11
BRANCH   1  21
ATOM     21  C   LIG    1        0.492  -0.992  -1.942  0.00  0.00    +0.158 C 
BRANCH  21  22
ATOM     22  C   LIG    1        1.560  -0.221  -1.259  0.00  0.00    -0.028 A 
ATOM     23  C   LIG    1        1.353   0.953  -0.568  0.00  0.00    +0.006 A 
ATOM     24  C   LIG    1        2.360   1.656   0.052  0.00  0.00    +0.009 A 
ATOM     25  C   LIG    1        3.661   1.145  -0.029  0.00  0.00    -0.017 A 
ATOM     26  C   LIG    1        3.907  -0.029  -0.713  0.00  0.00    +0.009 A 
ATOM     27  C   LIG    1        2.855  -0.678  -1.307  0.00  0.00    +0.006 A 
BRANCH  25  28
ATOM     28  C   LIG    1        4.732   1.833   0.647  0.00  0.00    -0.004 A 
ATOM     29  C   LIG    1        4.631   1.930   2.028  0.00  0.00    +0.009 A 
ATOM     30  C   LIG    1        5.638   2.524   2.757  0.00  0.00    +0.001 A 
ATOM     31  C   LIG    1        6.755   3.026   2.112  0.00  0.00    +0.001 A 
ATOM     32  C   LIG    1        6.843   2.926   0.757  0.00  0.00    +0.015 A 
ATOM     33  C   LIG    1        5.819   2.323   0.006  0.00  0.00    +0.067 A 
BRANCH  33  34
ATOM     34  C   LIG    1        5.972   2.314  -1.425  0.00  0.00    +0.337 C 
ATOM     35  O   LIG    1        7.017   2.750  -1.955  0.00  0.00    -0.245 OA
BRANCH  34  36
ATOM     36  O   LIG    1        4.992   1.838  -2.250  0.00  0.00    -0.477 OA
ATOM     37  H   LIG    1        4.100   2.314  -2.433  0.00  0.00    +0.295 HD
ENDBRANCH  34  36
ENDBRANCH  33  34
ENDBRANCH  25  28
ENDBRANCH  21  22
ENDBRANCH   1  21
BRANCH  10  38
ATOM     38  C   LIG    1        1.177  -3.939  -1.302  0.00  0.00    +0.074 C 
BRANCH  38  39
ATOM     39  C   LIG    1        1.120  -5.380  -0.767  0.00  0.00    +0.004 C 
ATOM     40  C   LIG    1        2.283  -6.184  -1.262  0.00  0.00    +0.004 C 
ENDBRANCH  38  39
ENDBRANCH  10  38
TORSDOF 8
