REMARK  Name = molecules/RMMXTBMQSGEXHJ-UHFFFAOYSA-N.pdb
REMARK                            x       y       z     vdW  Elec       q    Type
REMARK                         _______ _______ _______ _____ _____    ______ ____
ROOT
ATOM      1  O   LIG    1        0.038   2.172   0.309  0.00  0.00    -0.264 OA
ATOM      2  C   LIG    1        0.299   0.930   0.162  0.00  0.00    +0.293 A 
ATOM      3  N   LIG    1       -0.648  -0.022   0.077  0.00  0.00    -0.216 N 
ATOM      4  N   LIG    1       -0.002  -1.158  -0.067  0.00  0.00    -0.282 N 
ATOM      5  C   LIG    1        1.331  -0.974  -0.078  0.00  0.00    +0.059 A 
ATOM      6  C   LIG    1        2.353  -2.019  -0.221  0.00  0.00    +0.067 C 
ATOM      7  C   LIG    1       -0.717  -2.436  -0.194  0.00  0.00    +0.171 C 
ATOM      8  C   LIG    1        1.565   0.386   0.070  0.00  0.00    +0.117 A 
ENDROOT
BRANCH   3   9
ATOM      9  C   LIG    1       -2.053   0.181   0.134  0.00  0.00    +0.067 A 
ATOM     10  C   LIG    1       -2.732   0.277   1.330  0.00  0.00    +0.028 A 
ATOM     11  C   LIG    1       -4.099   0.473   1.389  0.00  0.00    +0.002 A 
ATOM     12  C   LIG    1       -4.829   0.581   0.230  0.00  0.00    +0.000 A 
ATOM     13  C   LIG    1       -4.152   0.485  -0.988  0.00  0.00    +0.002 A 
ATOM     14  C   LIG    1       -2.787   0.288  -1.027  0.00  0.00    +0.028 A 
ENDBRANCH   3   9
BRANCH   8  15
ATOM     15  N   LIG    1        2.792   1.083   0.120  0.00  0.00    -0.330 N 
ATOM     16  C   LIG    1        2.744   2.535   0.288  0.00  0.00    +0.129 C 
ATOM     17  C   LIG    1        4.068   0.469   0.016  0.00  0.00    +0.129 C 
ENDBRANCH   8  15
TORSDOF 2
