REMARK  Name = molecules/RMQKPRRJSKFBRU-LJQANCHMSA-N.pdb
REMARK                            x       y       z     vdW  Elec       q    Type
REMARK                         _______ _______ _______ _____ _____    ______ ____
ROOT
ATOM      1  C   LIG    1       -2.095   0.362  -0.381  0.00  0.00    +0.168 C 
ENDROOT
BRANCH   1   2
ATOM      2  C   LIG    1       -2.367  -0.914   0.298  0.00  0.00    -0.022 A 
ATOM      3  C   LIG    1       -2.053  -0.967   1.659  0.00  0.00    +0.005 A 
ATOM      4  C   LIG    1       -2.235  -2.097   2.405  0.00  0.00    +0.000 A 
ATOM      5  C   LIG    1       -2.749  -3.233   1.787  0.00  0.00    +0.000 A 
ATOM      6  C   LIG    1       -3.063  -3.194   0.445  0.00  0.00    +0.000 A 
ATOM      7  C   LIG    1       -2.863  -2.015  -0.290  0.00  0.00    +0.005 A 
ENDBRANCH   1   2
BRANCH   1   8
ATOM      8  C   LIG    1       -0.653   0.711  -0.026  0.00  0.00    +0.234 C 
ATOM      9  O   LIG    1       -0.440   1.786   0.519  0.00  0.00    -0.274 OA
ATOM     10  N   LIG    1        0.380  -0.188  -0.326  0.00  0.00    -0.313 N 
ATOM     11  H   LIG    1        0.137  -1.096  -0.789  0.00  0.00    +0.149 HD
BRANCH  10  12
ATOM     12  C   LIG    1        1.784   0.035  -0.046  0.00  0.00    +0.119 C 
BRANCH  12  13
ATOM     13  C   LIG    1        2.625  -1.147  -0.488  0.00  0.00    +0.103 C 
BRANCH  13  14
ATOM     14  N   LIG    1        4.027  -0.994  -0.271  0.00  0.00    -0.301 NA
BRANCH  14  15
ATOM     15  C   LIG    1        4.293  -0.901   1.123  0.00  0.00    +0.081 C 
ATOM     16  C   LIG    1        5.763  -0.763   1.481  0.00  0.00    +0.020 C 
ENDBRANCH  14  15
BRANCH  14  17
ATOM     17  C   LIG    1        4.682  -0.023  -1.082  0.00  0.00    +0.081 C 
ATOM     18  C   LIG    1        4.766  -0.364  -2.537  0.00  0.00    +0.020 C 
ENDBRANCH  14  17
ENDBRANCH  13  14
ENDBRANCH  12  13
ENDBRANCH  10  12
ENDBRANCH   1   8
BRANCH   1  19
ATOM     19  C   LIG    1       -2.945   1.436   0.190  0.00  0.00    +0.327 C 
ATOM     20  O   LIG    1       -3.768   1.137   1.082  0.00  0.00    -0.249 OA
BRANCH  19  21
ATOM     21  O   LIG    1       -2.839   2.734  -0.245  0.00  0.00    -0.464 OA
BRANCH  21  22
ATOM     22  C   LIG    1       -3.683   3.736   0.331  0.00  0.00    +0.229 C 
ATOM     23  C   LIG    1       -3.496   3.853   1.825  0.00  0.00    +0.048 C 
ENDBRANCH  21  22
ENDBRANCH  19  21
ENDBRANCH   1  19
BRANCH   1  24
ATOM     24  C   LIG    1       -2.131   0.337  -1.866  0.00  0.00    +0.029 C 
ATOM     25  C   LIG    1       -3.468   0.066  -2.463  0.00  0.00    +0.006 C 
ENDBRANCH   1  24
TORSDOF 11
