REMARK  Name = molecules/RMTYNAPTNBJHQI-LLDVTBCESA-N.pdb
REMARK                            x       y       z     vdW  Elec       q    Type
REMARK                         _______ _______ _______ _____ _____    ______ ____
ROOT
ATOM      1  N   LIG    1       -0.564  -1.067  -0.193  0.00  0.00    -0.293 N 
ATOM      2  C   LIG    1        0.277  -1.184   0.923  0.00  0.00    +0.319 C 
ATOM      3  O   LIG    1        0.360  -0.271   1.780  0.00  0.00    -0.251 OA
ATOM      4  N   LIG    1        1.052  -2.357   1.091  0.00  0.00    -0.169 N 
ATOM      5  H   LIG    1        1.006  -3.145   0.388  0.00  0.00    +0.178 HD
ATOM      6  H   LIG    1       -0.596  -1.853  -0.876  0.00  0.00    +0.151 HD
ENDROOT
BRANCH   1  10
ATOM      7  C   LIG    1       -4.697   0.013  -2.155  0.00  0.00    +0.014 C 
ATOM      8  C   LIG    1       -3.261  -0.036  -1.908  0.00  0.00    +0.001 C 
ATOM      9  C   LIG    1       -2.835  -0.415  -0.517  0.00  0.00    +0.141 C 
ATOM     10  C   LIG    1       -1.401   0.071  -0.478  0.00  0.00    +0.107 C 
ATOM     11  C   LIG    1       -1.148   0.738  -1.793  0.00  0.00    +0.018 C 
ATOM     12  C   LIG    1       -1.110  -0.212  -2.947  0.00  0.00    +0.006 C 
ATOM     13  C   LIG    1       -2.552   1.324  -2.027  0.00  0.00    -0.023 C 
ATOM     14  C   LIG    1       -2.972   2.303  -0.999  0.00  0.00    +0.012 C 
ATOM     15  C   LIG    1       -2.671   1.871  -3.428  0.00  0.00    +0.012 C 
ATOM     16  C   LIG    1       -2.463  -0.882  -2.879  0.00  0.00    +0.010 C 
BRANCH   9  17
ATOM     17  O   LIG    1       -2.926  -1.780  -0.273  0.00  0.00    -0.389 OA
ATOM     18  H   LIG    1       -3.835  -2.037  -0.011  0.00  0.00    +0.210 HD
ENDBRANCH   9  17
ENDBRANCH   1  10
BRANCH   4  19
ATOM     19  S   LIG    1        2.116  -2.589   2.433  0.00  0.00    +0.076 S 
ATOM     20  O   LIG    1        1.332  -2.670   3.713  0.00  0.00    -0.150 OA
ATOM     21  O   LIG    1        2.891  -3.854   2.312  0.00  0.00    -0.150 OA
BRANCH  19  22
ATOM     22  C   LIG    1        3.262  -1.284   2.602  0.00  0.00    +0.109 A 
ATOM     23  C   LIG    1        3.057  -0.161   3.342  0.00  0.00    +0.029 A 
ATOM     24  C   LIG    1        4.032   0.829   3.417  0.00  0.00    +0.005 A 
ATOM     25  C   LIG    1        5.235   0.707   2.748  0.00  0.00    -0.050 A 
ATOM     26  C   LIG    1        6.284   1.773   2.829  0.00  0.00    +0.044 C 
ATOM     27  C   LIG    1        5.451  -0.423   1.999  0.00  0.00    +0.005 A 
ATOM     28  C   LIG    1        4.478  -1.392   1.934  0.00  0.00    +0.029 A 
ENDBRANCH  19  22
ENDBRANCH   4  19
TORSDOF 4
