REMARK  Name = molecules/RMWVZGDJPAKBDE-UHFFFAOYSA-N.pdb
REMARK                            x       y       z     vdW  Elec       q    Type
REMARK                         _______ _______ _______ _____ _____    ______ ____
ROOT
ATOM      1  C   LIG    1        0.150  -0.067  -0.476  0.00  0.00    +0.146 A 
ATOM      2  C   LIG    1       -0.407  -1.310  -0.184  0.00  0.00    +0.101 A 
ATOM      3  C   LIG    1       -1.726  -1.408   0.167  0.00  0.00    +0.019 A 
ATOM      4  C   LIG    1       -2.455  -0.256   0.217  0.00  0.00    +0.013 A 
ATOM      5  C   LIG    1       -1.931   0.954  -0.070  0.00  0.00    +0.058 A 
ATOM      6  C   LIG    1       -0.589   1.071  -0.429  0.00  0.00    +0.059 A 
ENDROOT
BRANCH   5   7
ATOM      7  C   LIG    1       -2.678   2.247  -0.077  0.00  0.00    +0.418 C 
ATOM      8  F   LIG    1       -3.854   2.058   0.691  0.00  0.00    -0.166 F 
ATOM      9  F   LIG    1       -1.930   3.231   0.513  0.00  0.00    -0.166 F 
ATOM     10  F   LIG    1       -3.075   2.595  -1.326  0.00  0.00    -0.166 F 
ENDBRANCH   5   7
BRANCH   2  11
ATOM     11  C   LIG    1        0.442  -2.492  -0.293  0.00  0.00    +0.340 C 
ATOM     12  O   LIG    1        1.589  -2.409  -0.731  0.00  0.00    -0.245 OA
BRANCH  11  13
ATOM     13  O   LIG    1       -0.125  -3.724   0.101  0.00  0.00    -0.477 OA
ATOM     14  H   LIG    1        0.382  -4.238   0.747  0.00  0.00    +0.295 HD
ENDBRANCH  11  13
ENDBRANCH   2  11
BRANCH   1  15
ATOM     15  O   LIG    1        1.528  -0.033  -0.804  0.00  0.00    -0.425 OA
BRANCH  15  16
ATOM     16  C   LIG    1        2.327   0.590   0.214  0.00  0.00    +0.309 C 
ATOM     17  O   LIG    1        1.764   1.046   1.191  0.00  0.00    -0.251 OA
ATOM     18  C   LIG    1        3.799   0.681   0.075  0.00  0.00    +0.136 C 
ENDBRANCH  15  16
ENDBRANCH   1  15
TORSDOF 5
