REMARK  Name = molecules/RNFNDJAIBTYOQL-UHFFFAOYSA-N.pdb
REMARK                            x       y       z     vdW  Elec       q    Type
REMARK                         _______ _______ _______ _____ _____    ______ ____
ROOT
ATOM      1  C   LIG    1       -0.539   0.151  -0.401  0.00  0.00    +0.296 C 
ENDROOT
BRANCH   1   2
ATOM      2  C   LIG    1        0.895  -0.228  -0.095  0.00  0.00    +0.240 C 
ATOM      3 CL   LIG    1        1.190  -0.177   1.667  0.00  0.00    -0.078 Cl
ATOM      4 CL   LIG    1        1.353  -1.778  -0.763  0.00  0.00    -0.078 Cl
ATOM      5 CL   LIG    1        1.950   1.025  -0.818  0.00  0.00    -0.078 Cl
ENDBRANCH   1   2
BRANCH   1   6
ATOM      6  O   LIG    1       -0.801   1.427   0.054  0.00  0.00    -0.364 OA
ATOM      7  H   LIG    1       -0.839   1.501   1.037  0.00  0.00    +0.213 HD
ENDBRANCH   1   6
BRANCH   1   8
ATOM      8  O   LIG    1       -1.450  -0.779   0.040  0.00  0.00    -0.364 OA
ATOM      9  H   LIG    1       -1.144  -1.331   0.796  0.00  0.00    +0.213 HD
ENDBRANCH   1   8
TORSDOF 3
