REMARK  Name = molecules/RNLQIBCLLYYYFJ-UHFFFAOYSA-N.pdb
REMARK                            x       y       z     vdW  Elec       q    Type
REMARK                         _______ _______ _______ _____ _____    ______ ____
ROOT
ATOM      1  C   LIG    1        2.421   0.150   0.438  0.00  0.00    +0.090 A 
ATOM      2  C   LIG    1        1.062   0.411   0.581  0.00  0.00    +0.038 A 
ATOM      3  C   LIG    1        0.125  -0.229  -0.203  0.00  0.00    +0.000 A 
ATOM      4  C   LIG    1        0.579  -1.137  -1.134  0.00  0.00    +0.094 A 
ATOM      5  N   LIG    1        1.913  -1.395  -1.275  0.00  0.00    -0.327 N 
ATOM      6  H   LIG    1        2.266  -2.086  -1.982  0.00  0.00    +0.168 HD
ATOM      7  C   LIG    1        2.827  -0.767  -0.507  0.00  0.00    +0.270 A 
ATOM      8  O   LIG    1        4.058  -1.026  -0.661  0.00  0.00    -0.266 OA
ENDROOT
BRANCH   3   9
ATOM      9  C   LIG    1       -1.300   0.027  -0.073  0.00  0.00    -0.014 A 
ATOM     10  C   LIG    1       -1.720   1.294   0.319  0.00  0.00    +0.028 A 
ATOM     11  C   LIG    1       -3.051   1.618   0.466  0.00  0.00    +0.111 A 
ATOM     12  N   LIG    1       -3.974   0.676   0.222  0.00  0.00    -0.263 NA
ATOM     13  C   LIG    1       -3.606  -0.576  -0.163  0.00  0.00    +0.111 A 
ATOM     14  C   LIG    1       -2.279  -0.908  -0.312  0.00  0.00    +0.028 A 
ENDBRANCH   3   9
BRANCH   1  15
ATOM     15  N   LIG    1        3.365   0.821   1.255  0.00  0.00    -0.354 N 
ATOM     16  H   LIG    1        3.052   1.387   2.071  0.00  0.00    +0.142 HD
ATOM     17  H   LIG    1        4.389   0.780   1.080  0.00  0.00    +0.142 HD
ENDBRANCH   1  15
TORSDOF 2
