REMARK  Name = molecules/RNOAOAWBMHREKO-QFIPXVFZSA-N.pdb
REMARK                            x       y       z     vdW  Elec       q    Type
REMARK                         _______ _______ _______ _____ _____    ______ ____
ROOT
ATOM      1  C   LIG    1        0.831   0.104  -0.910  0.00  0.00    +0.107 A 
ATOM      2  N   LIG    1       -0.385  -0.329  -0.463  0.00  0.00    -0.168 NA
ATOM      3  N   LIG    1       -1.224  -0.462  -1.467  0.00  0.00    -0.246 N 
ATOM      4  C   LIG    1       -2.618  -0.875  -1.599  0.00  0.00    +0.114 C 
ATOM      5  C   LIG    1       -2.700  -1.889  -2.685  0.00  0.00    +0.046 C 
ATOM      6  C   LIG    1       -2.460  -1.130  -4.002  0.00  0.00    +0.105 C 
ATOM      7  N   LIG    1       -1.355  -0.212  -3.812  0.00  0.00    -0.329 N 
ATOM      8  H   LIG    1       -1.098   0.414  -4.601  0.00  0.00    +0.147 HD
ATOM      9  C   LIG    1       -0.611  -0.130  -2.614  0.00  0.00    +0.130 A 
ATOM     10  C   LIG    1        0.681   0.226  -2.268  0.00  0.00    +0.103 A 
ENDROOT
BRANCH   4  11
ATOM     11  C   LIG    1       -3.233  -1.298  -0.292  0.00  0.00    +0.017 C 
ATOM     12  C   LIG    1       -3.106  -0.204   0.725  0.00  0.00    +0.024 C 
ATOM     13  C   LIG    1       -4.402   0.501   1.040  0.00  0.00    +0.108 C 
ATOM     14  N   LIG    1       -5.470  -0.421   1.291  0.00  0.00    -0.298 N 
ATOM     15  C   LIG    1       -6.641   0.002   1.939  0.00  0.00    +0.239 C 
ATOM     16  O   LIG    1       -7.590  -0.824   2.159  0.00  0.00    -0.271 OA
ATOM     17  C   LIG    1       -5.330  -1.785   0.871  0.00  0.00    +0.108 C 
ATOM     18  C   LIG    1       -4.658  -1.723  -0.509  0.00  0.00    +0.024 C 
BRANCH  15  19
ATOM     19  C   LIG    1       -6.832   1.382   2.385  0.00  0.00    +0.060 C 
ATOM     20  C   LIG    1       -7.933   1.762   2.987  0.00  0.00    +0.013 C 
ENDBRANCH  15  19
ENDBRANCH   4  11
BRANCH   1  24
ATOM     21  C   LIG    1        4.279   0.747   1.593  0.00  0.00    +0.128 A 
ATOM     22  C   LIG    1        3.602  -0.453   1.567  0.00  0.00    +0.047 A 
ATOM     23  C   LIG    1        2.508  -0.653   0.754  0.00  0.00    +0.014 A 
ATOM     24  C   LIG    1        2.015   0.348  -0.096  0.00  0.00    +0.003 A 
ATOM     25  C   LIG    1        2.696   1.539  -0.060  0.00  0.00    +0.014 A 
ATOM     26  C   LIG    1        3.808   1.742   0.765  0.00  0.00    +0.047 A 
BRANCH  21  27
ATOM     27  O   LIG    1        5.382   0.964   2.405  0.00  0.00    -0.456 OA
BRANCH  27  30
ATOM     28  C   LIG    1        8.616  -0.680   1.964  0.00  0.00    +0.004 A 
ATOM     29  C   LIG    1        7.271  -0.468   2.303  0.00  0.00    +0.046 A 
ATOM     30  C   LIG    1        6.680   0.753   2.081  0.00  0.00    +0.128 A 
ATOM     31  C   LIG    1        7.434   1.760   1.522  0.00  0.00    +0.046 A 
ATOM     32  C   LIG    1        8.768   1.569   1.180  0.00  0.00    +0.004 A 
ATOM     33  C   LIG    1        9.355   0.339   1.406  0.00  0.00    +0.000 A 
ENDBRANCH  27  30
ENDBRANCH  21  27
ENDBRANCH   1  24
BRANCH  10  34
ATOM     34  C   LIG    1        1.662   0.627  -3.262  0.00  0.00    +0.247 C 
ATOM     35  N   LIG    1        2.977   0.943  -2.854  0.00  0.00    -0.325 N 
ATOM     36  H   LIG    1        3.671   0.244  -2.501  0.00  0.00    +0.145 HD
ATOM     37  H   LIG    1        3.286   1.957  -2.907  0.00  0.00    +0.145 HD
ATOM     38  O   LIG    1        1.361   0.698  -4.495  0.00  0.00    -0.270 OA
ENDBRANCH  10  34
TORSDOF 6
