REMARK  Name = molecules/ROBJKLPZIPNAMV-UHFFFAOYSA-N.pdb
REMARK                            x       y       z     vdW  Elec       q    Type
REMARK                         _______ _______ _______ _____ _____    ______ ____
ROOT
ATOM      1  C   LIG    1       -3.787  -2.466  -0.118  0.00  0.00    +0.050 A 
ATOM      2  C   LIG    1       -2.780  -1.532  -0.055  0.00  0.00    +0.024 A 
ATOM      3  C   LIG    1       -3.033  -0.173   0.072  0.00  0.00    +0.148 A 
ATOM      4  C   LIG    1       -4.352   0.223   0.135  0.00  0.00    +0.082 A 
ATOM      5  C   LIG    1       -5.361  -0.713   0.072  0.00  0.00    +0.055 A 
ATOM      6  O   LIG    1       -1.877   0.443   0.103  0.00  0.00    -0.454 OA
ATOM      7  C   LIG    1       -0.894  -0.420   0.005  0.00  0.00    +0.136 A 
ATOM      8  C   LIG    1       -1.392  -1.702  -0.099  0.00  0.00    +0.058 A 
ATOM      9  C   LIG    1       -5.094  -2.073  -0.056  0.00  0.00    +0.125 A 
ATOM     10  F   LIG    1       -6.087  -2.993  -0.118  0.00  0.00    -0.205 F 
ENDROOT
BRANCH   7  11
ATOM     11  C   LIG    1        0.521  -0.087   0.006  0.00  0.00    +0.017 A 
ATOM     12  C   LIG    1        0.952   1.217   0.114  0.00  0.00    +0.012 A 
ATOM     13  C   LIG    1        2.276   1.591   0.120  0.00  0.00    +0.005 A 
ATOM     14  C   LIG    1        3.224   0.581   0.010  0.00  0.00    -0.034 A 
ATOM     15  C   LIG    1        2.844  -0.737  -0.101  0.00  0.00    +0.005 A 
ATOM     16  C   LIG    1        1.503  -1.055  -0.101  0.00  0.00    +0.012 A 
BRANCH  14  17
ATOM     17  C   LIG    1        4.650   0.997   0.017  0.00  0.00    +0.116 C 
BRANCH  17  18
ATOM     18  N   LIG    1        5.529  -0.155  -0.104  0.00  0.00    -0.315 NA
ATOM     19  H   LIG    1        5.361  -0.747   0.742  0.00  0.00    +0.122 HD
ATOM     20  C   LIG    1        6.915   0.222  -0.099  0.00  0.00    +0.101 C 
ENDBRANCH  17  18
ENDBRANCH  14  17
ENDBRANCH   7  11
BRANCH   4  21
ATOM     21  C   LIG    1       -4.676   1.640   0.269  0.00  0.00    +0.245 C 
ATOM     22  N   LIG    1       -6.019   2.083   0.336  0.00  0.00    -0.325 N 
ATOM     23  H   LIG    1       -6.764   1.581   0.854  0.00  0.00    +0.145 HD
ATOM     24  H   LIG    1       -6.274   2.958  -0.159  0.00  0.00    +0.145 HD
ATOM     25  O   LIG    1       -3.780   2.515   0.328  0.00  0.00    -0.270 OA
ENDBRANCH   4  21
TORSDOF 4
