REMARK  Name = molecules/ROHFNLRQFUQHCH-YFKPBYRVSA-N.pdb
REMARK                            x       y       z     vdW  Elec       q    Type
REMARK                         _______ _______ _______ _____ _____    ______ ____
ROOT
ATOM      1  CA  LEU A  1        1.058  -0.798   0.110  0.00  0.00    +0.161 C 
ENDROOT
BRANCH   1   2
ATOM      2  N   LEU A  1        2.185  -0.945   1.049  0.00  0.00    -0.318 NA
ATOM      3  H1  LEU A  1        1.863  -1.471   1.901  0.00  0.00    +0.119 HD
ATOM      4  H2  LEU A  1        2.986  -1.419   0.578  0.00  0.00    +0.119 HD
ENDBRANCH   1   2
BRANCH   1   5
ATOM      5  C   LEU A  1        1.655  -0.409  -1.189  0.00  0.00    +0.322 C 
ATOM      6  O   LEU A  1        0.994  -0.244  -2.254  0.00  0.00    -0.249 OA
BRANCH   5   7
ATOM      7  OXT LEU A  1        3.036  -0.191  -1.334  0.00  0.00    -0.480 OA
ATOM      8  HXT LEU A  1        3.405   0.750  -1.356  0.00  0.00    +0.295 HD
ENDBRANCH   5   7
ENDBRANCH   1   5
BRANCH   1   9
ATOM      9  CB  LEU A  1        0.141   0.285   0.627  0.00  0.00    +0.033 C 
BRANCH   9  11
ATOM     10  CD2 LEU A  1       -1.892   1.635   0.396  0.00  0.00    +0.007 C 
ATOM     11  CG  LEU A  1       -1.059   0.527  -0.250  0.00  0.00    -0.015 C 
ATOM     12  CD1 LEU A  1       -1.880  -0.710  -0.448  0.00  0.00    +0.007 C 
ENDBRANCH   9  11
ENDBRANCH   1   9
TORSDOF 5
