REMARK  Name = molecules/RONZAEMNMFQXRA-MRXNPFEDSA-N.pdb
REMARK                            x       y       z     vdW  Elec       q    Type
REMARK                         _______ _______ _______ _____ _____    ______ ____
ROOT
ATOM      1  C   LIG    1        3.740   0.119   1.604  0.00  0.00    +0.105 C 
ATOM      2  N   LIG    1        2.476  -0.270   1.033  0.00  0.00    -0.302 NA
ATOM      3  C   LIG    1        1.772   0.846   0.440  0.00  0.00    +0.111 C 
ATOM      4  C   LIG    1        0.783   0.374  -0.624  0.00  0.00    +0.119 C 
ATOM      5  N   LIG    1        0.390  -0.946  -0.297  0.00  0.00    -0.305 N 
ATOM      6  C   LIG    1       -0.841  -1.547   0.072  0.00  0.00    +0.125 A 
ATOM      7  C   LIG    1       -1.964  -0.848   0.466  0.00  0.00    -0.003 A 
ATOM      8  C   LIG    1       -3.075  -1.597   0.791  0.00  0.00    +0.009 A 
ATOM      9  C   LIG    1       -3.037  -2.977   0.716  0.00  0.00    +0.020 A 
ATOM     10  C   LIG    1       -1.883  -3.648   0.313  0.00  0.00    +0.113 A 
ATOM     11  C   LIG    1       -2.219   0.569   0.613  0.00  0.00    +0.074 C 
ATOM     12  C   LIG    1       -1.499   1.458  -0.284  0.00  0.00    -0.038 A 
ATOM     13  C   LIG    1       -2.304   2.532  -0.609  0.00  0.00    +0.004 A 
ATOM     14  C   LIG    1       -1.863   3.542  -1.458  0.00  0.00    +0.000 A 
ATOM     15  C   LIG    1       -0.608   3.450  -1.968  0.00  0.00    +0.000 A 
ATOM     16  C   LIG    1        0.201   2.372  -1.643  0.00  0.00    +0.006 A 
ATOM     17  N   LIG    1       -0.817  -2.884   0.004  0.00  0.00    -0.240 NA
ATOM     18  C   LIG    1        1.431  -1.977  -0.325  0.00  0.00    +0.122 C 
ATOM     19  C   LIG    1       -0.247   1.364  -0.792  0.00  0.00    -0.022 A 
ATOM     20  C   LIG    1        2.740  -1.333   0.081  0.00  0.00    +0.103 C 
ENDROOT
TORSDOF 0
