REMARK  Name = molecules/ROYOYTLGDLIGBX-UHFFFAOYSA-N.pdb
REMARK                            x       y       z     vdW  Elec       q    Type
REMARK                         _______ _______ _______ _____ _____    ______ ____
ROOT
ATOM      1  C   LIG    1        0.499   0.692   0.289  0.00  0.00    +0.078 C 
ATOM      2  C   LIG    1       -0.410  -0.425   0.542  0.00  0.00    +0.023 A 
ATOM      3  C   LIG    1        0.213  -1.496   1.166  0.00  0.00    +0.032 A 
ATOM      4  C   LIG    1       -0.529  -2.610   1.406  0.00  0.00    +0.042 A 
ATOM      5 CL   LIG    1        0.269  -3.969   2.192  0.00  0.00    -0.084 Cl
ATOM      6  C   LIG    1       -1.874  -2.664   1.038  0.00  0.00    +0.022 A 
ATOM      7  C   LIG    1       -2.481  -1.584   0.421  0.00  0.00    +0.025 A 
ATOM      8  C   LIG    1       -1.740  -0.467   0.179  0.00  0.00    +0.045 A 
ATOM      9  N   LIG    1       -2.513   0.633  -0.359  0.00  0.00    -0.272 N 
ATOM     10  C   LIG    1       -2.152   2.012  -0.152  0.00  0.00    +0.241 C 
ATOM     11  C   LIG    1       -1.087   2.547   0.791  0.00  0.00    +0.238 C 
ATOM     12  O   LIG    1       -2.798   2.836  -0.830  0.00  0.00    -0.273 OA
ATOM     13  C   LIG    1       -3.672   0.262  -1.088  0.00  0.00    +0.138 C 
ATOM     14  N   LIG    1        0.210   1.959   0.443  0.00  0.00    -0.273 NA
ENDROOT
BRANCH   1  17
ATOM     15  F   LIG    1        2.378   2.648   0.416  0.00  0.00    -0.205 F 
ATOM     16  C   LIG    1        2.768   1.413  -0.043  0.00  0.00    +0.133 A 
ATOM     17  C   LIG    1        1.855   0.349  -0.065  0.00  0.00    +0.036 A 
ATOM     18  C   LIG    1        2.281  -0.843  -0.525  0.00  0.00    +0.013 A 
ATOM     19  C   LIG    1        3.576  -1.021  -0.959  0.00  0.00    +0.001 A 
ATOM     20  C   LIG    1        4.439   0.040  -0.921  0.00  0.00    +0.003 A 
ATOM     21  C   LIG    1        4.069   1.290  -0.465  0.00  0.00    +0.039 A 
ENDBRANCH   1  17
TORSDOF 1
