REMARK  Name = molecules/RQAITHJHUFFEIV-SNVBAGLBSA-N.pdb
REMARK                            x       y       z     vdW  Elec       q    Type
REMARK                         _______ _______ _______ _____ _____    ______ ____
ROOT
ATOM      1  C   LIG    1        1.138  -0.650  -0.166  0.00  0.00    +0.341 C 
ATOM      2  O   LIG    1        0.754  -0.878  -1.337  0.00  0.00    -0.245 OA
ENDROOT
BRANCH   1   3
ATOM      3  C   LIG    1        2.484  -0.130   0.026  0.00  0.00    +0.077 A 
ATOM      4  C   LIG    1        2.958   0.139   1.294  0.00  0.00    +0.125 A 
ATOM      5  N   LIG    1        4.197   0.620   1.496  0.00  0.00    -0.262 NA
ATOM      6  C   LIG    1        5.048   0.865   0.465  0.00  0.00    +0.111 A 
ATOM      7  C   LIG    1        4.593   0.604  -0.797  0.00  0.00    +0.020 A 
ATOM      8  C   LIG    1        3.328   0.111  -1.037  0.00  0.00    +0.018 A 
ENDBRANCH   1   3
BRANCH   1   9
ATOM      9  O   LIG    1        0.263  -0.904   0.866  0.00  0.00    -0.459 OA
BRANCH   9  10
ATOM     10  C   LIG    1       -1.051  -1.409   0.712  0.00  0.00    +0.264 C 
BRANCH  10  11
ATOM     11  C   LIG    1       -1.841  -0.440  -0.126  0.00  0.00    +0.156 C 
ATOM     12  O   LIG    1       -1.925   0.807   0.432  0.00  0.00    -0.373 OA
ATOM     13  C   LIG    1       -3.025   1.457  -0.053  0.00  0.00    +0.160 C 
ATOM     14  C   LIG    1       -3.853   0.446  -0.829  0.00  0.00    +0.031 C 
ATOM     15  C   LIG    1       -3.322  -0.843  -0.183  0.00  0.00    +0.037 C 
ENDBRANCH  10  11
ENDBRANCH   9  10
ENDBRANCH   1   9
TORSDOF 4
