REMARK  Name = molecules/RQNADZJRELIICT-UHFFFAOYSA-N.pdb
REMARK                            x       y       z     vdW  Elec       q    Type
REMARK                         _______ _______ _______ _____ _____    ______ ____
ROOT
ATOM      1  C   LIG    1        3.215   0.258   0.191  0.00  0.00    +0.030 A 
ATOM      2  C   LIG    1        2.746   1.511   0.525  0.00  0.00    +0.025 A 
ATOM      3  C   LIG    1        1.393   1.774   0.532  0.00  0.00    +0.031 A 
ATOM      4  C   LIG    1        0.441   0.795   0.203  0.00  0.00    +0.078 A 
ATOM      5  N   LIG    1       -0.837   1.121   0.205  0.00  0.00    -0.246 NA
ATOM      6  C   LIG    1       -1.900   0.389  -0.087  0.00  0.00    +0.079 A 
ATOM      7  C   LIG    1       -3.162   0.988  -0.037  0.00  0.00    +0.034 A 
ATOM      8  C   LIG    1       -4.315   0.306  -0.349  0.00  0.00    -0.028 A 
ATOM      9  C   LIG    1       -5.660   0.961  -0.317  0.00  0.00    +0.046 C 
ATOM     10  C   LIG    1       -4.258  -1.027  -0.731  0.00  0.00    +0.029 A 
ATOM     11  C   LIG    1       -3.012  -1.605  -0.778  0.00  0.00    +0.040 A 
ATOM     12  C   LIG    1       -1.862  -0.929  -0.468  0.00  0.00    +0.040 A 
ATOM     13  S   LIG    1       -0.277  -1.592  -0.545  0.00  0.00    -0.085 S 
ATOM     14  C   LIG    1        0.928  -0.450  -0.127  0.00  0.00    +0.040 A 
ATOM     15  C   LIG    1        2.281  -0.705  -0.130  0.00  0.00    +0.040 A 
ENDROOT
BRANCH   1  16
ATOM     16  N   LIG    1        4.608  -0.053   0.161  0.00  0.00    -0.336 N 
ATOM     17  C   LIG    1        5.106  -1.261   0.777  0.00  0.00    +0.129 C 
ATOM     18  C   LIG    1        5.538   0.856  -0.490  0.00  0.00    +0.129 C 
ENDBRANCH   1  16
BRANCH  10  19
ATOM     19  N   LIG    1       -5.398  -1.782  -1.065  0.00  0.00    -0.358 N 
ATOM     20  H   LIG    1       -5.732  -2.590  -0.495  0.00  0.00    +0.142 HD
ATOM     21  H   LIG    1       -5.917  -1.512  -1.927  0.00  0.00    +0.142 HD
ENDBRANCH  10  19
TORSDOF 2
