REMARK  Name = molecules/RQTOOFIXOKYGAN-UHFFFAOYSA-N.pdb
REMARK                            x       y       z     vdW  Elec       q    Type
REMARK                         _______ _______ _______ _____ _____    ______ ____
ROOT
ATOM      1  C   LIG    1        0.281   0.002  -0.193  0.00  0.00    +0.020 A 
ATOM      2  C   LIG    1       -0.491  -0.865   0.529  0.00  0.00    +0.060 A 
ATOM      3  C   LIG    1        0.100  -2.010   1.111  0.00  0.00    +0.046 A 
ATOM      4  C   LIG    1       -0.647  -2.909   1.830  0.00  0.00    +0.190 A 
ATOM      5  O   LIG    1       -0.049  -3.919   2.332  0.00  0.00    -0.287 OA
ATOM      6  C   LIG    1       -1.963  -2.699   1.979  0.00  0.00    +0.084 A 
ATOM      7  C   LIG    1       -2.553  -1.556   1.389  0.00  0.00    +0.131 A 
ATOM      8  C   LIG    1        1.454  -2.268   0.953  0.00  0.00    +0.029 A 
ATOM      9  C   LIG    1        2.230  -1.438   0.245  0.00  0.00    +0.065 A 
ATOM     10  C   LIG    1        3.570  -1.672   0.071  0.00  0.00    +0.193 A 
ATOM     11  O   LIG    1        4.098  -2.676   0.576  0.00  0.00    -0.287 OA
ATOM     12  C   LIG    1        4.362  -0.795  -0.670  0.00  0.00    +0.105 A 
ATOM     13  C   LIG    1        3.716   0.299  -1.203  0.00  0.00    +0.215 A 
ATOM     14  O   LIG    1        2.418   0.510  -1.025  0.00  0.00    -0.448 OA
ATOM     15  N   LIG    1       -1.831  -0.660   0.677  0.00  0.00    -0.335 N 
ATOM     16  C   LIG    1        1.661  -0.331  -0.314  0.00  0.00    +0.145 A 
ENDROOT
BRANCH   7  17
ATOM     17  C   LIG    1       -3.974  -1.418   1.578  0.00  0.00    +0.354 C 
ATOM     18  O   LIG    1       -4.588  -2.325   2.294  0.00  0.00    -0.243 OA
BRANCH  17  19
ATOM     19  O   LIG    1       -4.807  -0.469   1.119  0.00  0.00    -0.476 OA
ATOM     20  H   LIG    1       -5.747  -0.663   0.784  0.00  0.00    +0.295 HD
ENDBRANCH  17  19
ENDBRANCH   7  17
BRANCH  13  21
ATOM     21  C   LIG    1        4.462   1.274  -1.995  0.00  0.00    +0.373 C 
ATOM     22  O   LIG    1        3.915   2.283  -2.498  0.00  0.00    -0.242 OA
BRANCH  21  23
ATOM     23  O   LIG    1        5.819   1.092  -2.207  0.00  0.00    -0.475 OA
ATOM     24  H   LIG    1        6.451   1.066  -1.421  0.00  0.00    +0.296 HD
ENDBRANCH  21  23
ENDBRANCH  13  21
BRANCH  15  25
ATOM     25  C   LIG    1       -2.436   0.413  -0.027  0.00  0.00    +0.119 C 
ATOM     26  C   LIG    1       -2.988   0.024  -1.391  0.00  0.00    +0.027 C 
ENDBRANCH  15  25
BRANCH   1  27
ATOM     27  C   LIG    1       -0.172   1.287  -0.663  0.00  0.00    +0.041 C 
BRANCH  27  28
ATOM     28  C   LIG    1        0.009   2.425   0.341  0.00  0.00    +0.001 C 
ATOM     29  C   LIG    1       -0.519   3.671  -0.299  0.00  0.00    +0.004 C 
ENDBRANCH  27  28
ENDBRANCH   1  27
TORSDOF 7
