REMARK  Name = molecules/RRGUKTPIGVIEKM-UHFFFAOYSA-N.pdb
REMARK                            x       y       z     vdW  Elec       q    Type
REMARK                         _______ _______ _______ _____ _____    ______ ____
ROOT
ATOM      1  C   LIG    1       -0.540  -1.200   0.142  0.00  0.00    +0.041 C 
ENDROOT
BRANCH   1   2
ATOM      2  C   LIG    1        0.471  -2.275  -0.086  0.00  0.00    +0.011 C 
BRANCH   2   3
ATOM      3  C   LIG    1        1.864  -1.786  -0.202  0.00  0.00    +0.078 C 
BRANCH   3   4
ATOM      4  C   LIG    1        2.153  -1.026  -1.412  0.00  0.00    +0.152 A 
ATOM      5  N   LIG    1        3.324  -0.299  -1.480  0.00  0.00    -0.226 N 
ATOM      6  N   LIG    1        3.353   0.216  -2.689  0.00  0.00    -0.044 NA
ATOM      7  N   LIG    1        2.283  -0.151  -3.351  0.00  0.00    -0.023 NA
ATOM      8  N   LIG    1        1.522  -0.916  -2.595  0.00  0.00    -0.113 NA
BRANCH   5   9
ATOM      9  C   LIG    1        4.325  -0.108  -0.487  0.00  0.00    +0.111 C 
ATOM     10  C   LIG    1        5.359  -1.190  -0.418  0.00  0.00    +0.027 C 
ATOM     11  C   LIG    1        6.199  -0.911   0.837  0.00  0.00    +0.002 C 
ATOM     12  C   LIG    1        6.857   0.451   0.704  0.00  0.00    +0.000 C 
ATOM     13  C   LIG    1        5.726   1.468   0.745  0.00  0.00    +0.002 C 
ATOM     14  C   LIG    1        4.957   1.277  -0.550  0.00  0.00    +0.027 C 
ENDBRANCH   5   9
ENDBRANCH   3   4
ENDBRANCH   2   3
ENDBRANCH   1   2
BRANCH   1  15
ATOM     15  C   LIG    1       -0.727  -0.127  -0.840  0.00  0.00    +0.229 C 
BRANCH  15  16
ATOM     16  O   LIG    1       -1.757   0.747  -0.423  0.00  0.00    -0.492 OA
BRANCH  16  17
ATOM     17  C   LIG    1       -3.086   0.519  -0.272  0.00  0.00    +0.121 A 
ATOM     18  C   LIG    1       -3.887   1.549   0.200  0.00  0.00    +0.051 A 
ATOM     19  C   LIG    1       -5.232   1.338   0.355  0.00  0.00    -0.022 A 
ATOM     20  C   LIG    1       -6.114   2.433   0.854  0.00  0.00    +0.046 C 
ATOM     21  C   LIG    1       -7.326   1.856   1.531  0.00  0.00    +0.101 C 
ATOM     22  C   LIG    1       -7.996   0.851   0.677  0.00  0.00    +0.218 C 
ATOM     23  O   LIG    1       -9.214   0.880   0.380  0.00  0.00    -0.275 OA
ATOM     24  N   LIG    1       -7.168  -0.199   0.183  0.00  0.00    -0.285 N 
ATOM     25  H   LIG    1       -7.545  -1.140  -0.065  0.00  0.00    +0.155 HD
ATOM     26  C   LIG    1       -5.772   0.112   0.043  0.00  0.00    +0.037 A 
ATOM     27  C   LIG    1       -4.984  -0.913  -0.426  0.00  0.00    +0.027 A 
ATOM     28  C   LIG    1       -3.630  -0.703  -0.584  0.00  0.00    +0.047 A 
ENDBRANCH  16  17
ENDBRANCH  15  16
ENDBRANCH   1  15
TORSDOF 7
