REMARK  Name = molecules/RRUDCFGSUDOHDG-UHFFFAOYSA-N.pdb
REMARK                            x       y       z     vdW  Elec       q    Type
REMARK                         _______ _______ _______ _____ _____    ______ ____
ROOT
ATOM      1  C   LIG    1       -1.444   0.410  -0.145  0.00  0.00    +0.111 C 
ATOM      2  C   LIG    1       -0.219  -0.378  -0.491  0.00  0.00    +0.232 C 
ATOM      3  N   LIG    1        1.031  -0.119   0.132  0.00  0.00    -0.198 N 
ATOM      4  H   LIG    1        1.144   0.628   0.852  0.00  0.00    +0.182 HD
ATOM      5  O   LIG    1       -0.260  -1.298  -1.347  0.00  0.00    -0.274 OA
ENDROOT
BRANCH   3   6
ATOM      6  O   LIG    1        2.128  -0.834  -0.186  0.00  0.00    -0.295 OA
ATOM      7  H   LIG    1        2.889  -0.172  -0.234  0.00  0.00    +0.241 HD
ENDBRANCH   3   6
TORSDOF 1
