REMARK  Name = molecules/RRYMAQUWDLIUPV-BXKDBHETSA-N.pdb
REMARK                            x       y       z     vdW  Elec       q    Type
REMARK                         _______ _______ _______ _____ _____    ______ ____
ROOT
ATOM      1  CA  LIG    1        0.936   0.653   1.611  0.00  0.00    +0.125 C 
ATOM      2  C   LIG    1        1.679  -0.382   1.319  0.00  0.00    +0.006 C 
ATOM      3  C   LIG    1        1.202  -1.616   0.611  0.00  0.00    +0.107 C 
ATOM      4  S   LIG    1       -0.566  -1.846   0.606  0.00  0.00    -0.131 S 
ATOM      5  C   LIG    1       -1.321  -0.501   1.535  0.00  0.00    +0.169 C 
ATOM      6  CA  LIG    1       -2.411   0.245   0.810  0.00  0.00    +0.191 C 
ATOM      7  C   LIG    1       -1.535   1.436   0.783  0.00  0.00    +0.244 C 
ATOM      8  O   LIG    1       -1.771   2.618   0.418  0.00  0.00    -0.273 OA
ATOM      9  N   LIG    1       -0.481   0.658   1.298  0.00  0.00    -0.249 N 
ENDROOT
BRANCH   6  10
ATOM     10  N   LIG    1       -2.772  -0.291  -0.489  0.00  0.00    -0.301 N 
ATOM     11  C   LIG    1       -4.129  -0.522  -0.762  0.00  0.00    +0.228 C 
ATOM     12  O   LIG    1       -5.003  -0.276   0.084  0.00  0.00    -0.275 OA
ATOM     13  H   LIG    1       -2.030  -0.498  -1.201  0.00  0.00    +0.150 HD
BRANCH  11  14
ATOM     14  C   LIG    1       -4.523  -1.067  -2.074  0.00  0.00    +0.214 C 
BRANCH  14  15
ATOM     15  C   LIG    1       -5.971  -1.241  -2.177  0.00  0.00    +0.072 C 
ATOM     16  N   LIG    1       -7.112  -1.393  -2.245  0.00  0.00    -0.196 NA
ENDBRANCH  14  15
ENDBRANCH  11  14
ENDBRANCH   6  10
BRANCH   1  17
ATOM     17  C   LIG    1        1.409   1.858   2.263  0.00  0.00    +0.351 C 
ATOM     18  OXT LIG    1        2.578   2.075   2.633  0.00  0.00    -0.244 OA
BRANCH  17  19
ATOM     19  O   LIG    1        0.548   2.952   2.551  0.00  0.00    -0.476 OA
ATOM     20  H   LIG    1        0.672   3.843   2.132  0.00  0.00    +0.295 HD
ENDBRANCH  17  19
ENDBRANCH   1  17
BRANCH   2  21
ATOM     21  C   LIG    1        3.122  -0.429   1.642  0.00  0.00    +0.266 C 
BRANCH  21  22
ATOM     22  O   LIG    1        3.916  -0.585   0.474  0.00  0.00    -0.460 OA
BRANCH  22  23
ATOM     23  C   LIG    1        3.878   0.347  -0.542  0.00  0.00    +0.304 C 
ATOM     24  O   LIG    1        3.124   1.339  -0.411  0.00  0.00    -0.251 OA
ATOM     25  C   LIG    1        4.724   0.177  -1.782  0.00  0.00    +0.136 C 
ENDBRANCH  22  23
ENDBRANCH  21  22
ENDBRANCH   2  21
TORSDOF 8
