REMARK  Name = molecules/RTHCYVBBDHJXIQ-INIZCTEOSA-N.pdb
REMARK                            x       y       z     vdW  Elec       q    Type
REMARK                         _______ _______ _______ _____ _____    ______ ____
ROOT
ATOM      1  C   LIG    1       -0.746  -0.061   0.151  0.00  0.00    +0.205 C 
ENDROOT
BRANCH   1   2
ATOM      2  C   LIG    1       -1.690  -1.206   0.230  0.00  0.00    -0.007 A 
ATOM      3  C   LIG    1       -2.273  -1.588   1.424  0.00  0.00    +0.007 A 
ATOM      4  C   LIG    1       -3.156  -2.650   1.517  0.00  0.00    +0.000 A 
ATOM      5  C   LIG    1       -3.487  -3.375   0.392  0.00  0.00    +0.000 A 
ATOM      6  C   LIG    1       -2.925  -3.020  -0.804  0.00  0.00    +0.000 A 
ATOM      7  C   LIG    1       -2.044  -1.955  -0.879  0.00  0.00    +0.007 A 
ENDBRANCH   1   2
BRANCH   1   8
ATOM      8  C   LIG    1       -1.338   1.127  -0.607  0.00  0.00    +0.064 C 
BRANCH   8   9
ATOM      9  C   LIG    1       -2.552   1.683   0.049  0.00  0.00    +0.084 C 
BRANCH   9  10
ATOM     10  N   LIG    1       -2.994   2.815  -0.789  0.00  0.00    -0.319 NA
ATOM     11  C   LIG    1       -1.932   3.819  -0.613  0.00  0.00    +0.101 C 
ATOM     12  H   LIG    1       -2.970   2.550  -1.779  0.00  0.00    +0.122 HD
ENDBRANCH   9  10
ENDBRANCH   8   9
ENDBRANCH   1   8
BRANCH   1  13
ATOM     13  O   LIG    1        0.373  -0.434  -0.615  0.00  0.00    -0.484 OA
BRANCH  13  14
ATOM     14  C   LIG    1        1.691  -0.333  -0.283  0.00  0.00    +0.121 A 
ATOM     15  C   LIG    1        2.144   0.195   0.902  0.00  0.00    +0.046 A 
ATOM     16  C   LIG    1        3.494   0.288   1.212  0.00  0.00    +0.016 A 
ATOM     17  C   LIG    1        4.450  -0.164   0.303  0.00  0.00    +0.055 A 
ATOM     18  C   LIG    1        4.012  -0.693  -0.884  0.00  0.00    +0.016 A 
ATOM     19  C   LIG    1        2.655  -0.780  -1.180  0.00  0.00    +0.046 A 
BRANCH  17  20
ATOM     20  C   LIG    1        5.900  -0.078   0.603  0.00  0.00    +0.417 C 
ATOM     21  F   LIG    1        6.045   0.522   1.830  0.00  0.00    -0.166 F 
ATOM     22  F   LIG    1        6.415  -1.340   0.654  0.00  0.00    -0.166 F 
ATOM     23  F   LIG    1        6.471   0.702  -0.399  0.00  0.00    -0.166 F 
ENDBRANCH  17  20
ENDBRANCH  13  14
ENDBRANCH   1  13
TORSDOF 7
