REMARK  Name = molecules/RTRQQBHATOEIAF-UUOKFMHZSA-N.pdb
REMARK                            x       y       z     vdW  Elec       q    Type
REMARK                         _______ _______ _______ _____ _____    ______ ____
ROOT
ATOM      1  N   LIG    1        0.746   0.764   0.015  0.00  0.00    -0.289 N 
ATOM      2  C   LIG    1        1.071   1.822   0.777  0.00  0.00    +0.203 A 
ATOM      3  N   LIG    1        2.391   1.915   0.862  0.00  0.00    -0.229 NA
ATOM      4  C   LIG    1        2.964   0.916   0.155  0.00  0.00    +0.164 A 
ATOM      5  C   LIG    1        1.903   0.207  -0.367  0.00  0.00    +0.131 A 
ENDROOT
BRANCH   1  10
ATOM      6  C2* LIG    1       -0.728  -1.149  -0.443  0.00  0.00    +0.195 C 
ATOM      7  C3* LIG    1       -2.096  -1.416   0.200  0.00  0.00    +0.178 C 
ATOM      8  C4* LIG    1       -2.609  -0.029   0.402  0.00  0.00    +0.177 C 
ATOM      9  O4* LIG    1       -1.443   0.672   0.741  0.00  0.00    -0.346 OA
ATOM     10  C1* LIG    1       -0.573   0.328  -0.314  0.00  0.00    +0.253 C 
BRANCH   6  11
ATOM     11  O2* LIG    1       -0.848  -1.474  -1.806  0.00  0.00    -0.385 OA
ATOM     12  H2* LIG    1       -0.885  -0.668  -2.345  0.00  0.00    +0.210 HD
ENDBRANCH   6  11
BRANCH   7  13
ATOM     13  O3* LIG    1       -2.901  -2.174  -0.668  0.00  0.00    -0.386 OA
ATOM     14  H3* LIG    1       -3.121  -1.567  -1.431  0.00  0.00    +0.210 HD
ENDBRANCH   7  13
BRANCH   8  15
ATOM     15  C5* LIG    1       -3.553   0.095   1.576  0.00  0.00    +0.190 C 
BRANCH  15  16
ATOM     16  O5* LIG    1       -4.755  -0.572   1.345  0.00  0.00    -0.392 OA
ATOM     17  H5* LIG    1       -5.268  -0.023   0.713  0.00  0.00    +0.210 HD
ENDBRANCH  15  16
ENDBRANCH   8  15
ENDBRANCH   1  10
BRANCH   4  18
ATOM     18  C   LIG    1        4.375   0.629  -0.031  0.00  0.00    +0.263 C 
ATOM     19  N   LIG    1        5.412   1.409   0.542  0.00  0.00    -0.324 N 
ATOM     20  H   LIG    1        5.349   1.847   1.488  0.00  0.00    +0.145 HD
ATOM     21  H   LIG    1        6.276   1.550  -0.009  0.00  0.00    +0.145 HD
ATOM     22  O   LIG    1        4.698  -0.358  -0.732  0.00  0.00    -0.269 OA
ENDBRANCH   4  18
BRANCH   5  23
ATOM     23  N   LIG    1        2.011  -0.953  -1.195  0.00  0.00    -0.343 N 
ATOM     24  H   LIG    1        2.293  -1.876  -0.801  0.00  0.00    +0.144 HD
ATOM     25  H   LIG    1        1.807  -0.879  -2.203  0.00  0.00    +0.144 HD
ENDBRANCH   5  23
TORSDOF 7
