REMARK  Name = molecules/RUJBDQSFYCKFAA-HNNXBMFYSA-N.pdb
REMARK                            x       y       z     vdW  Elec       q    Type
REMARK                         _______ _______ _______ _____ _____    ______ ____
ROOT
ATOM      1  C   LIG    1       -1.608   2.240  -1.610  0.00  0.00    +0.065 C 
ATOM      2  C   LIG    1       -1.791   0.929  -0.982  0.00  0.00    -0.026 A 
ATOM      3  C   LIG    1       -0.832   0.011  -0.664  0.00  0.00    +0.010 A 
ATOM      4  C   LIG    1       -1.140  -1.251  -0.164  0.00  0.00    +0.059 A 
ATOM      5  C   LIG    1       -2.463  -1.585   0.025  0.00  0.00    +0.162 A 
ATOM      6  C   LIG    1       -3.457  -0.667  -0.285  0.00  0.00    +0.162 A 
ATOM      7  C   LIG    1        0.609   0.180  -0.734  0.00  0.00    +0.101 C 
ATOM      8  N   LIG    1        1.206   0.900  -1.657  0.00  0.00    -0.149 NA
ATOM      9  N   LIG    1        0.581   1.612  -2.692  0.00  0.00    -0.158 NA
ATOM     10  C   LIG    1       -3.091   0.575  -0.785  0.00  0.00    +0.054 A 
ATOM     11  C   LIG    1       -0.591   2.180  -2.694  0.00  0.00    +0.045 C 
ATOM     12  C   LIG    1       -0.939   2.851  -3.951  0.00  0.00    +0.063 C 
ENDROOT
BRANCH   7  13
ATOM     13  C   LIG    1        1.466  -0.440   0.252  0.00  0.00    +0.006 A 
ATOM     14  C   LIG    1        1.058  -0.832   1.485  0.00  0.00    +0.014 A 
ATOM     15  C   LIG    1        1.940  -1.322   2.453  0.00  0.00    +0.050 A 
ATOM     16  C   LIG    1        3.285  -1.423   2.181  0.00  0.00    +0.162 A 
ATOM     17  C   LIG    1        3.727  -1.030   0.934  0.00  0.00    +0.162 A 
ATOM     18  C   LIG    1        2.840  -0.552  -0.003  0.00  0.00    +0.059 A 
BRANCH  16  19
ATOM     19  O   LIG    1        4.172  -1.908   3.137  0.00  0.00    -0.491 OA
ATOM     20  C   LIG    1        3.718  -2.332   4.418  0.00  0.00    +0.277 C 
ENDBRANCH  16  19
BRANCH  17  21
ATOM     21  O   LIG    1        5.088  -1.149   0.708  0.00  0.00    -0.491 OA
ATOM     22  C   LIG    1        5.633  -0.775  -0.528  0.00  0.00    +0.277 C 
ENDBRANCH  17  21
ENDBRANCH   7  13
BRANCH   1  23
ATOM     23  C   LIG    1       -1.377   3.395  -0.725  0.00  0.00    +0.011 C 
ATOM     24  C   LIG    1       -0.178   3.346   0.158  0.00  0.00    +0.005 C 
ENDBRANCH   1  23
BRANCH   5  25
ATOM     25  O   LIG    1       -2.756  -2.841   0.525  0.00  0.00    -0.491 OA
ATOM     26  C   LIG    1       -1.753  -3.793   0.826  0.00  0.00    +0.277 C 
ENDBRANCH   5  25
BRANCH   6  27
ATOM     27  O   LIG    1       -4.776  -1.043  -0.078  0.00  0.00    -0.491 OA
ATOM     28  C   LIG    1       -5.869  -0.182  -0.351  0.00  0.00    +0.277 C 
ENDBRANCH   6  27
TORSDOF 6
