REMARK  Name = molecules/RUZYUOTYCVRMRZ-FQEVSTJZSA-N.pdb
REMARK                            x       y       z     vdW  Elec       q    Type
REMARK                         _______ _______ _______ _____ _____    ______ ____
ROOT
ATOM      1  N   LIG    1       -0.217  -0.132  -0.673  0.00  0.00    -0.297 N 
ATOM      2  C   LIG    1        0.468  -0.797   0.411  0.00  0.00    +0.127 C 
ATOM      3  C   LIG    1        1.582   0.113   0.859  0.00  0.00    +0.127 C 
ATOM      4  N   LIG    1        2.454   0.370  -0.260  0.00  0.00    -0.295 N 
ATOM      5  C   LIG    1        3.761   0.845   0.035  0.00  0.00    +0.260 C 
ATOM      6  O   LIG    1        4.143   1.032   1.234  0.00  0.00    -0.271 OA
ATOM      7  C   LIG    1        2.018   0.165  -1.599  0.00  0.00    +0.127 C 
ATOM      8  C   LIG    1        0.530   0.422  -1.779  0.00  0.00    +0.127 C 
ENDROOT
BRANCH   1  16
ATOM      9  C   LIG    1       -3.554   0.770  -1.769  0.00  0.00    +0.129 A 
ATOM     10  C   LIG    1       -4.334   0.261  -0.746  0.00  0.00    +0.044 A 
ATOM     11  C   LIG    1       -3.714  -0.385   0.307  0.00  0.00    +0.082 A 
ATOM     12  C   LIG    1       -4.514  -0.891   1.326  0.00  0.00    +0.078 A 
ATOM     13  C   LIG    1       -5.867  -0.738   1.260  0.00  0.00    +0.164 A 
ATOM     14  C   LIG    1       -6.516  -0.098   0.221  0.00  0.00    +0.162 A 
ATOM     15  N   LIG    1       -2.370  -0.526   0.353  0.00  0.00    -0.214 NA
ATOM     16  C   LIG    1       -1.611  -0.020  -0.661  0.00  0.00    +0.220 A 
ATOM     17  C   LIG    1       -5.705   0.406  -0.796  0.00  0.00    +0.062 A 
ATOM     18  N   LIG    1       -2.237   0.603  -1.671  0.00  0.00    -0.199 NA
BRANCH   9  19
ATOM     19  N   LIG    1       -4.210   1.426  -2.833  0.00  0.00    -0.343 N 
ATOM     20  H   LIG    1       -4.573   2.379  -2.715  0.00  0.00    +0.144 HD
ATOM     21  H   LIG    1       -4.321   0.938  -3.736  0.00  0.00    +0.144 HD
ENDBRANCH   9  19
BRANCH  13  22
ATOM     22  O   LIG    1       -6.666  -1.239   2.269  0.00  0.00    -0.491 OA
ATOM     23  C   LIG    1       -6.102  -1.916   3.386  0.00  0.00    +0.277 C 
ENDBRANCH  13  22
BRANCH  14  24
ATOM     24  O   LIG    1       -7.897   0.033   0.197  0.00  0.00    -0.491 OA
ATOM     25  C   LIG    1       -8.513   0.694  -0.882  0.00  0.00    +0.277 C 
ENDBRANCH  14  24
ENDBRANCH   1  16
BRANCH   5  26
ATOM     26  C   LIG    1        4.695   1.131  -1.057  0.00  0.00    +0.296 C 
ATOM     27  O   LIG    1        5.907   1.673  -0.483  0.00  0.00    -0.473 OA
ATOM     28  C   LIG    1        6.624   0.731   0.280  0.00  0.00    +0.163 A 
ATOM     29  C   LIG    1        7.541   1.197   1.206  0.00  0.00    +0.049 A 
ATOM     30  C   LIG    1        8.286   0.317   1.994  0.00  0.00    +0.004 A 
ATOM     31  C   LIG    1        8.102  -1.045   1.844  0.00  0.00    +0.004 A 
ATOM     32  C   LIG    1        7.184  -1.494   0.915  0.00  0.00    +0.049 A 
ATOM     33  C   LIG    1        6.447  -0.628   0.136  0.00  0.00    +0.162 A 
ATOM     34  O   LIG    1        5.513  -1.060  -0.809  0.00  0.00    -0.484 OA
ATOM     35  C   LIG    1        5.153  -0.114  -1.800  0.00  0.00    +0.283 C 
ENDBRANCH   5  26
TORSDOF 5
