REMARK  Name = molecules/RVMGXWBCQGAWBR-UHFFFAOYSA-N.pdb
REMARK                            x       y       z     vdW  Elec       q    Type
REMARK                         _______ _______ _______ _____ _____    ______ ____
ROOT
ATOM      1  O   LIG    1        0.147  -2.767  -0.996  0.00  0.00    -0.287 OA
ATOM      2  C   LIG    1       -0.225  -1.614  -0.649  0.00  0.00    +0.193 A 
ATOM      3  C   LIG    1        0.748  -0.759  -0.199  0.00  0.00    +0.064 A 
ATOM      4  C   LIG    1        0.374   0.510   0.189  0.00  0.00    +0.140 A 
ATOM      5  C   LIG    1        1.360   1.389   0.650  0.00  0.00    +0.047 A 
ATOM      6  C   LIG    1        2.689   1.032   0.730  0.00  0.00    +0.004 A 
ATOM      7  C   LIG    1        3.032  -0.239   0.336  0.00  0.00    +0.001 A 
ATOM      8  O   LIG    1       -0.881   0.872   0.123  0.00  0.00    -0.448 OA
ATOM      9  C   LIG    1       -1.865   0.105  -0.298  0.00  0.00    +0.215 A 
ATOM     10  C   LIG    1        2.088  -1.131  -0.122  0.00  0.00    +0.015 A 
ATOM     11  C   LIG    1       -1.528  -1.192  -0.701  0.00  0.00    +0.105 A 
ENDROOT
BRANCH   9  12
ATOM     12  C   LIG    1       -3.237   0.565  -0.348  0.00  0.00    +0.373 C 
ATOM     13  O   LIG    1       -4.129  -0.194  -0.752  0.00  0.00    -0.242 OA
BRANCH  12  14
ATOM     14  O   LIG    1       -3.547   1.838   0.051  0.00  0.00    -0.475 OA
ATOM     15  H   LIG    1       -3.631   2.016   1.046  0.00  0.00    +0.296 HD
ENDBRANCH  12  14
ENDBRANCH   9  12
TORSDOF 2
