REMARK  Name = molecules/RVXGRCNWGOHSDE-SFHVURJKSA-N.pdb
REMARK                            x       y       z     vdW  Elec       q    Type
REMARK                         _______ _______ _______ _____ _____    ______ ____
ROOT
ATOM      1  C   LIG    1       -4.023  -0.369   2.084  0.00  0.00    +0.000 A 
ATOM      2  C   LIG    1       -4.342   0.977   1.886  0.00  0.00    +0.000 A 
ATOM      3  C   LIG    1       -3.658   1.641   0.892  0.00  0.00    +0.004 A 
ATOM      4  C   LIG    1       -2.688   1.034   0.103  0.00  0.00    -0.043 A 
ATOM      5  C   LIG    1       -2.407  -0.270   0.325  0.00  0.00    -0.031 A 
ATOM      6  C   LIG    1       -1.353  -0.936  -0.512  0.00  0.00    +0.052 C 
ATOM      7  C   LIG    1       -1.508  -2.417  -0.535  0.00  0.00    +0.024 C 
ATOM      8  C   LIG    1       -1.537  -0.357  -1.885  0.00  0.00    +0.144 C 
ATOM      9  C   LIG    1       -1.475   1.109  -2.063  0.00  0.00    +0.080 C 
ATOM     10  O   LIG    1       -1.734  -1.090  -2.837  0.00  0.00    -0.296 OA
ATOM     11  C   LIG    1       -2.050   1.887  -0.923  0.00  0.00    +0.043 C 
ATOM     12  C   LIG    1       -3.063  -0.980   1.308  0.00  0.00    +0.005 A 
ENDROOT
BRANCH   6  13
ATOM     13  C   LIG    1        0.028  -0.476  -0.067  0.00  0.00    +0.034 C 
BRANCH  13  14
ATOM     14  C   LIG    1        1.071  -1.163  -0.900  0.00  0.00    +0.085 C 
BRANCH  14  15
ATOM     15  N   LIG    1        2.420  -0.776  -0.560  0.00  0.00    -0.302 NA
ATOM     16  C   LIG    1        2.744  -1.044   0.822  0.00  0.00    +0.084 C 
ATOM     17  C   LIG    1        4.183  -0.576   1.039  0.00  0.00    +0.015 C 
ATOM     18  C   LIG    1        4.333   0.913   0.837  0.00  0.00    +0.002 C 
ATOM     19  C   LIG    1        3.069   1.474   0.225  0.00  0.00    +0.015 C 
ATOM     20  C   LIG    1        2.699   0.596  -0.931  0.00  0.00    +0.084 C 
ENDBRANCH  14  15
ENDBRANCH  13  14
ENDBRANCH   6  13
TORSDOF 3
