REMARK  Name = molecules/RWOLIGKRDWLZSV-OWOJBTEDSA-N.pdb
REMARK                            x       y       z     vdW  Elec       q    Type
REMARK                         _______ _______ _______ _____ _____    ______ ____
ROOT
ATOM      1  C   LIG    1       -0.502  -0.523  -0.401  0.00  0.00    +0.048 C 
ATOM      2  C   LIG    1        0.315   0.310   0.228  0.00  0.00    +0.035 C 
ENDROOT
BRANCH   2   3
ATOM      3  C   LIG    1        1.767   0.221   0.096  0.00  0.00    +0.104 A 
ATOM      4  C   LIG    1        2.569   1.108   0.769  0.00  0.00    +0.144 A 
ATOM      5  N   LIG    1        3.914   0.993   0.621  0.00  0.00    -0.220 NA
ATOM      6  C   LIG    1        4.474   0.052  -0.151  0.00  0.00    +0.232 A 
ATOM      7  N   LIG    1        3.676  -0.804  -0.800  0.00  0.00    -0.113 NA
ATOM      8  N   LIG    1        2.372  -0.697  -0.660  0.00  0.00    -0.145 NA
BRANCH   6   9
ATOM      9  N   LIG    1        5.897  -0.035  -0.281  0.00  0.00    -0.326 N 
ATOM     10  H   LIG    1        6.400  -0.522   0.493  0.00  0.00    +0.145 HD
ATOM     11  H   LIG    1        6.366   0.368  -1.100  0.00  0.00    +0.145 HD
ENDBRANCH   6   9
ENDBRANCH   2   3
BRANCH   1  12
ATOM     12  C   LIG    1       -1.949  -0.419  -0.257  0.00  0.00    +0.131 A 
ATOM     13  O   LIG    1       -2.672   0.401   0.426  0.00  0.00    -0.435 OA
ATOM     14  C   LIG    1       -3.953   0.183   0.306  0.00  0.00    +0.280 A 
ATOM     15  C   LIG    1       -4.115  -0.892  -0.543  0.00  0.00    +0.076 A 
ATOM     16  C   LIG    1       -2.835  -1.266  -0.895  0.00  0.00    +0.052 A 
BRANCH  14  17
ATOM     17  N   LIG    1       -5.019   0.916   0.934  0.00  0.00    +0.093 N 
ATOM     18  O   LIG    1       -4.732   1.872   1.684  0.00  0.00    -0.123 OA
ATOM     19  O   LIG    1       -6.311   0.571   0.714  0.00  0.00    -0.123 OA
ENDBRANCH  14  17
ENDBRANCH   1  12
TORSDOF 4
