REMARK  Name = molecules/RWTNPBWLLIMQHL-GDLZYMKVSA-N.pdb
REMARK                            x       y       z     vdW  Elec       q    Type
REMARK                         _______ _______ _______ _____ _____    ______ ____
ROOT
ATOM      1  C   LIG    1       -2.462  -0.763   0.422  0.00  0.00    +0.032 C 
ATOM      2  C   LIG    1       -1.032  -0.368   0.082  0.00  0.00    +0.022 C 
ATOM      3  C   LIG    1       -0.821  -0.191  -1.409  0.00  0.00    +0.085 C 
ATOM      4  N   LIG    1       -0.900  -1.471  -2.031  0.00  0.00    -0.302 NA
ATOM      5  C   LIG    1       -1.923  -2.304  -1.369  0.00  0.00    +0.085 C 
ATOM      6  C   LIG    1       -3.026  -1.374  -0.829  0.00  0.00    +0.022 C 
ENDROOT
BRANCH   1   7
ATOM      7  C   LIG    1       -3.237   0.347   1.013  0.00  0.00    +0.119 C 
BRANCH   7   8
ATOM      8  C   LIG    1       -4.570  -0.045   1.505  0.00  0.00    -0.011 A 
ATOM      9  C   LIG    1       -4.882  -1.342   1.752  0.00  0.00    +0.007 A 
ATOM     10  C   LIG    1       -6.140  -1.679   2.208  0.00  0.00    +0.000 A 
ATOM     11  C   LIG    1       -7.104  -0.730   2.425  0.00  0.00    +0.000 A 
ATOM     12  C   LIG    1       -6.777   0.582   2.171  0.00  0.00    +0.000 A 
ATOM     13  C   LIG    1       -5.539   0.951   1.718  0.00  0.00    +0.007 A 
ENDBRANCH   7   8
BRANCH   7  14
ATOM     14  C   LIG    1       -3.308   1.554   0.141  0.00  0.00    -0.011 A 
ATOM     15  C   LIG    1       -2.448   2.633   0.297  0.00  0.00    +0.007 A 
ATOM     16  C   LIG    1       -2.502   3.753  -0.514  0.00  0.00    +0.000 A 
ATOM     17  C   LIG    1       -3.454   3.796  -1.522  0.00  0.00    +0.000 A 
ATOM     18  C   LIG    1       -4.296   2.726  -1.666  0.00  0.00    +0.000 A 
ATOM     19  C   LIG    1       -4.241   1.602  -0.851  0.00  0.00    +0.007 A 
ENDBRANCH   7  14
BRANCH   7  20
ATOM     20  O   LIG    1       -2.535   0.782   2.170  0.00  0.00    -0.379 OA
ATOM     21  H   LIG    1       -2.420   0.018   2.757  0.00  0.00    +0.211 HD
ENDBRANCH   7  20
ENDBRANCH   1   7
BRANCH   4  22
ATOM     22  C   LIG    1        0.299  -2.240  -2.062  0.00  0.00    +0.084 C 
BRANCH  22  23
ATOM     23  C   LIG    1        1.477  -1.609  -2.711  0.00  0.00    +0.018 C 
BRANCH  23  24
ATOM     24  C   LIG    1        2.648  -2.553  -2.680  0.00  0.00    +0.037 C 
BRANCH  24  25
ATOM     25  C   LIG    1        3.094  -2.945  -1.302  0.00  0.00    +0.145 C 
BRANCH  25  26
ATOM     26  C   LIG    1        3.601  -1.712  -0.614  0.00  0.00    -0.019 A 
ATOM     27  C   LIG    1        2.880  -1.163   0.419  0.00  0.00    +0.006 A 
ATOM     28  C   LIG    1        3.341  -0.019   1.062  0.00  0.00    +0.005 A 
ATOM     29  C   LIG    1        4.537   0.590   0.674  0.00  0.00    -0.031 A 
ATOM     30  C   LIG    1        5.222   0.013  -0.355  0.00  0.00    +0.005 A 
ATOM     31  C   LIG    1        4.779  -1.128  -1.009  0.00  0.00    +0.006 A 
BRANCH  29  32
ATOM     32  C   LIG    1        5.029   1.794   1.365  0.00  0.00    +0.087 C 
ATOM     33  C   LIG    1        4.004   2.346   2.339  0.00  0.00    +0.027 C 
ATOM     34  C   LIG    1        6.236   1.322   2.195  0.00  0.00    +0.027 C 
BRANCH  32  35
ATOM     35  C   LIG    1        5.431   2.818   0.412  0.00  0.00    +0.315 C 
ATOM     36  O   LIG    1        4.811   3.919   0.399  0.00  0.00    -0.250 OA
BRANCH  35  37
ATOM     37  O   LIG    1        6.462   2.631  -0.474  0.00  0.00    -0.480 OA
ATOM     38  H   LIG    1        6.562   3.139  -1.337  0.00  0.00    +0.295 HD
ENDBRANCH  35  37
ENDBRANCH  32  35
ENDBRANCH  29  32
ENDBRANCH  25  26
BRANCH  25  39
ATOM     39  O   LIG    1        4.191  -3.836  -1.379  0.00  0.00    -0.387 OA
ATOM     40  H   LIG    1        4.009  -4.674  -0.895  0.00  0.00    +0.210 HD
ENDBRANCH  25  39
ENDBRANCH  24  25
ENDBRANCH  23  24
ENDBRANCH  22  23
ENDBRANCH   4  22
TORSDOF 13
