REMARK  Name = molecules/RXTHKWVSXOIHJS-GOSISDBHSA-N.pdb
REMARK                            x       y       z     vdW  Elec       q    Type
REMARK                         _______ _______ _______ _____ _____    ______ ____
ROOT
ATOM      1  C   LIG    1       -0.885   0.056   0.100  0.00  0.00    +0.132 C 
ENDROOT
BRANCH   1   2
ATOM      2  N   LIG    1       -2.332   0.117   0.053  0.00  0.00    -0.270 N 
ATOM      3  C   LIG    1       -2.947   1.339  -0.267  0.00  0.00    +0.220 C 
ATOM      4  O   LIG    1       -4.229   1.258  -0.442  0.00  0.00    -0.275 OA
BRANCH   2   5
ATOM      5  C   LIG    1       -3.134  -1.043   0.289  0.00  0.00    +0.036 A 
ATOM      6  C   LIG    1       -3.189  -1.605   1.542  0.00  0.00    +0.023 A 
ATOM      7  C   LIG    1       -3.948  -2.723   1.823  0.00  0.00    +0.002 A 
ATOM      8  C   LIG    1       -4.689  -3.321   0.833  0.00  0.00    +0.000 A 
ATOM      9  C   LIG    1       -4.649  -2.776  -0.427  0.00  0.00    +0.002 A 
ATOM     10  C   LIG    1       -3.879  -1.649  -0.695  0.00  0.00    +0.023 A 
ENDBRANCH   2   5
BRANCH   3  11
ATOM     11  C   LIG    1       -2.351   2.651  -0.416  0.00  0.00    +0.093 C 
ATOM     12  C   LIG    1       -3.413   3.679  -0.770  0.00  0.00    +0.013 C 
ENDBRANCH   3  11
ENDBRANCH   1   2
BRANCH   1  13
ATOM     13  C   LIG    1       -0.202  -0.342  -1.131  0.00  0.00    +0.071 C 
ATOM     14  C   LIG    1       -0.415   0.455  -2.365  0.00  0.00    +0.026 C 
BRANCH  13  15
ATOM     15  N   LIG    1        1.262  -0.352  -0.917  0.00  0.00    -0.301 NA
ATOM     16  C   LIG    1        1.735   0.963  -0.656  0.00  0.00    +0.105 C 
BRANCH  15  17
ATOM     17  C   LIG    1        1.609  -1.316   0.060  0.00  0.00    +0.089 C 
BRANCH  17  18
ATOM     18  C   LIG    1        3.040  -1.700   0.141  0.00  0.00    +0.050 C 
BRANCH  18  19
ATOM     19  C   LIG    1        4.032  -0.684   0.469  0.00  0.00    -0.046 A 
ATOM     20  C   LIG    1        4.319  -0.382   1.807  0.00  0.00    +0.003 A 
ATOM     21  C   LIG    1        5.256   0.561   2.129  0.00  0.00    +0.000 A 
ATOM     22  C   LIG    1        5.967   1.262   1.157  0.00  0.00    +0.000 A 
ATOM     23  C   LIG    1        5.700   0.980  -0.158  0.00  0.00    +0.000 A 
ATOM     24  C   LIG    1        4.759   0.033  -0.482  0.00  0.00    +0.003 A 
ENDBRANCH  18  19
ENDBRANCH  17  18
ENDBRANCH  15  17
ENDBRANCH  13  15
ENDBRANCH   1  13
TORSDOF 8
