REMARK  Name = molecules/RXXBBHGCAXVBES-XMUHMHRVSA-N.pdb
REMARK                            x       y       z     vdW  Elec       q    Type
REMARK                         _______ _______ _______ _____ _____    ______ ____
ROOT
ATOM      1  C   LIG    1       -1.876  -1.292   1.064  0.00  0.00    +0.016 C 
ATOM      2  C   LIG    1       -1.985   0.088   0.403  0.00  0.00    -0.004 C 
ATOM      3  C   LIG    1       -2.616   0.999   1.392  0.00  0.00    +0.019 C 
ATOM      4  C   LIG    1       -4.110   0.843   1.495  0.00  0.00    +0.084 C 
ATOM      5  C   LIG    1       -4.670   1.008   0.141  0.00  0.00    +0.197 C 
ATOM      6  O   LIG    1       -5.709   1.669  -0.023  0.00  0.00    -0.289 OA
ATOM      7  C   LIG    1       -3.983   0.389  -0.969  0.00  0.00    +0.159 C 
ATOM      8  C   LIG    1       -0.591   0.577   0.005  0.00  0.00    +0.003 C 
ATOM      9  C   LIG    1        0.186   1.064   1.185  0.00  0.00    +0.005 C 
ATOM     10  C   LIG    1        1.602   1.358   0.731  0.00  0.00    +0.010 C 
ATOM     11  C   LIG    1        2.191   0.075   0.300  0.00  0.00    -0.000 C 
ATOM     12  C   LIG    1        2.091  -0.976   1.352  0.00  0.00    +0.014 C 
ATOM     13  C   LIG    1        3.613   0.139  -0.189  0.00  0.00    +0.069 C 
ATOM     14  C   LIG    1        3.714  -1.217  -0.906  0.00  0.00    +0.035 C 
ATOM     15  C   LIG    1        2.281  -1.555  -1.343  0.00  0.00    +0.007 C 
ATOM     16  C   LIG    1        3.852   1.191  -1.225  0.00  0.00    +0.042 C 
ATOM     17  C   LIG    1        1.506  -0.329  -1.014  0.00  0.00    +0.001 C 
ATOM     18  C   LIG    1        0.042  -0.536  -0.753  0.00  0.00    -0.003 C 
ATOM     19  C   LIG    1       -0.633  -0.630  -2.104  0.00  0.00    +0.008 C 
ATOM     20  C   LIG    1       -2.111  -0.666  -2.048  0.00  0.00    +0.035 C 
ATOM     21  C   LIG    1       -2.726  -0.052  -0.877  0.00  0.00    -0.019 C 
ENDROOT
BRANCH   7  22
ATOM     22  O   LIG    1       -4.698   0.264  -2.174  0.00  0.00    -0.503 OA
ATOM     23  H   LIG    1       -4.661   1.054  -2.803  0.00  0.00    +0.292 HD
ENDBRANCH   7  22
BRANCH  13  24
ATOM     24  O   LIG    1        4.535   0.250   0.826  0.00  0.00    -0.388 OA
ATOM     25  H   LIG    1        4.112   0.194   1.728  0.00  0.00    +0.210 HD
ENDBRANCH  13  24
TORSDOF 2
