REMARK  Name = molecules/RYBJORHCUPVNMB-UHFFFAOYSA-N.pdb
REMARK                            x       y       z     vdW  Elec       q    Type
REMARK                         _______ _______ _______ _____ _____    ______ ____
ROOT
ATOM      1  C   LIG    1       -1.647   1.402  -0.223  0.00  0.00    +0.081 C 
ENDROOT
BRANCH   1   2
ATOM      2  N   LIG    1       -2.893   1.940   0.039  0.00  0.00    -0.316 NA
ATOM      3  H   LIG    1       -2.883   2.945   0.355  0.00  0.00    +0.122 HD
BRANCH   2   4
ATOM      4  C   LIG    1       -4.089   1.349  -0.236  0.00  0.00    +0.085 C 
BRANCH   4   5
ATOM      5  C   LIG    1       -4.605   0.179   0.556  0.00  0.00    +0.050 C 
BRANCH   5   6
ATOM      6  C   LIG    1       -5.964  -0.130  -0.053  0.00  0.00    -0.042 A 
ATOM      7  C   LIG    1       -7.116   0.444   0.389  0.00  0.00    +0.052 A 
ATOM      8  C   LIG    1       -8.356   0.160  -0.170  0.00  0.00    +0.158 A 
ATOM      9  C   LIG    1       -8.420  -0.740  -1.218  0.00  0.00    +0.158 A 
ATOM     10  C   LIG    1       -7.254  -1.337  -1.683  0.00  0.00    +0.049 A 
ATOM     11  C   LIG    1       -6.026  -1.025  -1.093  0.00  0.00    +0.007 A 
BRANCH   8  12
ATOM     12  O   LIG    1       -9.541   0.727   0.257  0.00  0.00    -0.503 OA
ATOM     13  H   LIG    1       -9.493   1.383   1.019  0.00  0.00    +0.292 HD
ENDBRANCH   8  12
BRANCH   9  14
ATOM     14  O   LIG    1       -9.637  -1.062  -1.816  0.00  0.00    -0.503 OA
ATOM     15  H   LIG    1      -10.490  -0.630  -1.482  0.00  0.00    +0.292 HD
ENDBRANCH   9  14
ENDBRANCH   5   6
ENDBRANCH   4   5
ENDBRANCH   2   4
ENDBRANCH   1   2
BRANCH   1  16
ATOM     16  C   LIG    1       -1.265   0.229   0.593  0.00  0.00    +0.015 C 
BRANCH  16  17
ATOM     17  C   LIG    1        0.151  -0.286   0.334  0.00  0.00    +0.001 C 
BRANCH  17  18
ATOM     18  C   LIG    1        1.181   0.736   0.640  0.00  0.00    +0.001 C 
BRANCH  18  19
ATOM     19  C   LIG    1        2.615   0.282   0.420  0.00  0.00    +0.015 C 
BRANCH  19  20
ATOM     20  C   LIG    1        2.919  -0.889   1.253  0.00  0.00    +0.081 C 
BRANCH  20  21
ATOM     21  N   LIG    1        4.164  -1.483   1.260  0.00  0.00    -0.316 NA
ATOM     22  H   LIG    1        4.262  -2.196   0.505  0.00  0.00    +0.122 HD
BRANCH  21  23
ATOM     23  C   LIG    1        5.323  -0.975   1.800  0.00  0.00    +0.085 C 
BRANCH  23  24
ATOM     24  C   LIG    1        6.044   0.152   1.173  0.00  0.00    +0.050 C 
BRANCH  24  25
ATOM     25  C   LIG    1        6.566  -0.064  -0.177  0.00  0.00    -0.046 A 
ATOM     26  C   LIG    1        7.838  -0.608  -0.350  0.00  0.00    +0.003 A 
ATOM     27  C   LIG    1        8.397  -0.823  -1.588  0.00  0.00    +0.000 A 
ATOM     28  C   LIG    1        7.656  -0.481  -2.711  0.00  0.00    +0.000 A 
ATOM     29  C   LIG    1        6.402   0.056  -2.562  0.00  0.00    +0.000 A 
ATOM     30  C   LIG    1        5.853   0.266  -1.287  0.00  0.00    +0.003 A 
ENDBRANCH  24  25
ENDBRANCH  23  24
ENDBRANCH  21  23
ENDBRANCH  20  21
ENDBRANCH  19  20
ENDBRANCH  18  19
ENDBRANCH  17  18
ENDBRANCH  16  17
ENDBRANCH   1  16
TORSDOF 15
