REMARK  Name = molecules/RYJXBGGBZJGVQF-GFCCVEGCSA-N.pdb
REMARK                            x       y       z     vdW  Elec       q    Type
REMARK                         _______ _______ _______ _____ _____    ______ ____
ROOT
ATOM      1  C   LIG    1       -1.996   0.572  -0.081  0.00  0.00    +0.084 A 
ATOM      2  C   LIG    1       -2.422  -0.503   0.639  0.00  0.00    +0.174 A 
ATOM      3  C   LIG    1       -3.757  -0.800   0.906  0.00  0.00    +0.164 A 
ATOM      4  C   LIG    1       -4.699   0.066   0.392  0.00  0.00    +0.078 A 
ATOM      5  C   LIG    1       -4.336   1.171  -0.347  0.00  0.00    +0.109 A 
ATOM      6  C   LIG    1       -3.004   1.416  -0.578  0.00  0.00    +0.045 A 
ENDROOT
BRANCH   1   7
ATOM      7  C   LIG    1       -0.642   0.946  -0.314  0.00  0.00    +0.248 C 
ATOM      8  N   LIG    1        0.525   0.338   0.162  0.00  0.00    -0.310 N 
ATOM      9  H   LIG    1        0.496  -0.481   0.795  0.00  0.00    +0.149 HD
ATOM     10  O   LIG    1       -0.434   1.979  -1.065  0.00  0.00    -0.270 OA
BRANCH   8  11
ATOM     11  C   LIG    1        1.853   0.879  -0.214  0.00  0.00    +0.123 C 
BRANCH  11  12
ATOM     12  C   LIG    1        2.887   0.040   0.429  0.00  0.00    +0.074 C 
ATOM     13  N   LIG    1        4.242   0.446   0.152  0.00  0.00    -0.294 NA
ATOM     14  C   LIG    1        5.023  -0.677   0.681  0.00  0.00    +0.085 C 
ATOM     15  C   LIG    1        4.175  -1.902   0.587  0.00  0.00    +0.017 C 
ATOM     16  C   LIG    1        2.870  -1.397   0.019  0.00  0.00    +0.022 C 
BRANCH  13  17
ATOM     17  C   LIG    1        4.551   0.520  -1.238  0.00  0.00    +0.111 C 
BRANCH  17  18
ATOM     18  C   LIG    1        5.915   1.067  -1.419  0.00  0.00    -0.019 C 
ATOM     19  C   LIG    1        6.650   1.435  -0.388  0.00  0.00    +0.005 C 
ENDBRANCH  17  18
ENDBRANCH  13  17
ENDBRANCH  11  12
ENDBRANCH   8  11
ENDBRANCH   1   7
BRANCH   5  20
ATOM     20  S   LIG    1       -5.581   2.242  -0.979  0.00  0.00    +0.056 S 
ATOM     21  O   LIG    1       -6.807   1.420  -1.343  0.00  0.00    -0.153 OA
ATOM     22  O   LIG    1       -5.035   2.799  -2.281  0.00  0.00    -0.153 OA
BRANCH  20  23
ATOM     23  N   LIG    1       -5.969   3.499   0.107  0.00  0.00    -0.204 NA
ATOM     24  H   LIG    1       -7.000   3.492   0.267  0.00  0.00    +0.144 HD
ATOM     25  H   LIG    1       -5.702   4.415  -0.344  0.00  0.00    +0.144 HD
ENDBRANCH  20  23
ENDBRANCH   5  20
BRANCH   2  26
ATOM     26  O   LIG    1       -1.522  -1.406   1.165  0.00  0.00    -0.491 OA
ATOM     27  C   LIG    1       -1.220  -2.575   0.366  0.00  0.00    +0.277 C 
ENDBRANCH   2  26
BRANCH   3  28
ATOM     28  O   LIG    1       -4.120  -1.919   1.654  0.00  0.00    -0.491 OA
ATOM     29  C   LIG    1       -5.497  -2.148   1.878  0.00  0.00    +0.277 C 
ENDBRANCH   3  28
TORSDOF 9
