REMARK  Name = molecules/RYMZZMVNJRMUDD-HGQWONQESA-N.pdb
REMARK                            x       y       z     vdW  Elec       q    Type
REMARK                         _______ _______ _______ _____ _____    ______ ____
ROOT
ATOM      1  C   LIG    1        1.459   0.278  -1.677  0.00  0.00    +0.185 C 
ATOM      2  C   LIG    1        0.047  -0.077  -1.438  0.00  0.00    +0.063 C 
ATOM      3  C   LIG    1       -0.329  -0.145   0.050  0.00  0.00    +0.007 C 
ATOM      4  C   LIG    1       -0.090  -1.549   0.486  0.00  0.00    +0.012 C 
ATOM      5  C   LIG    1        0.064  -1.760   1.955  0.00  0.00    +0.012 C 
ATOM      6  C   LIG    1       -1.115  -2.436  -0.126  0.00  0.00    -0.023 C 
ATOM      7  C   LIG    1       -1.227  -2.328  -1.442  0.00  0.00    -0.000 C 
ATOM      8  C   LIG    1       -0.328  -1.355  -2.093  0.00  0.00    -0.044 C 
ATOM      9  C   LIG    1        0.152  -1.643  -3.304  0.00  0.00    -0.020 C 
ATOM     10  C   LIG    1        1.071  -0.650  -3.975  0.00  0.00    +0.012 C 
ATOM     11  C   LIG    1        1.773  -1.315  -5.125  0.00  0.00    +0.012 C 
ATOM     12  C   LIG    1        2.102  -0.339  -2.893  0.00  0.00    +0.052 C 
ENDROOT
BRANCH   1  13
ATOM     13  O   LIG    1        2.324   0.063  -0.576  0.00  0.00    -0.460 OA
BRANCH  13  14
ATOM     14  C   LIG    1        3.017   1.085   0.059  0.00  0.00    +0.313 C 
ATOM     15  O   LIG    1        2.818   2.253  -0.423  0.00  0.00    -0.250 OA
BRANCH  14  16
ATOM     16  C   LIG    1        3.921   0.913   1.197  0.00  0.00    +0.062 C 
ATOM     17  C   LIG    1        4.516   2.230   1.592  0.00  0.00    +0.022 C 
ATOM     18  C   LIG    1        5.097  -0.009   0.852  0.00  0.00    +0.022 C 
BRANCH  16  19
ATOM     19  C   LIG    1        3.264   0.319   2.423  0.00  0.00    +0.014 C 
ATOM     20  C   LIG    1        4.369   0.225   3.484  0.00  0.00    +0.005 C 
ENDBRANCH  16  19
ENDBRANCH  14  16
ENDBRANCH  13  14
ENDBRANCH   1  13
BRANCH   3  21
ATOM     21  C   LIG    1       -1.780   0.263   0.142  0.00  0.00    +0.008 C 
BRANCH  21  22
ATOM     22  C   LIG    1       -2.312   0.252   1.530  0.00  0.00    +0.045 C 
BRANCH  22  23
ATOM     23  C   LIG    1       -3.762   0.670   1.598  0.00  0.00    +0.179 C 
ATOM     24  O   LIG    1       -3.906   2.045   1.294  0.00  0.00    -0.461 OA
ATOM     25  C   LIG    1       -5.181   2.576   1.238  0.00  0.00    +0.310 C 
ATOM     26  O   LIG    1       -5.362   3.784   1.518  0.00  0.00    -0.251 OA
ATOM     27  C   LIG    1       -6.282   1.662   0.842  0.00  0.00    +0.152 C 
ATOM     28  C   LIG    1       -5.609   0.610  -0.052  0.00  0.00    +0.129 C 
ATOM     29  C   LIG    1       -4.677  -0.199   0.819  0.00  0.00    +0.076 C 
BRANCH  28  30
ATOM     30  O   LIG    1       -6.577  -0.175  -0.652  0.00  0.00    -0.391 OA
ATOM     31  H   LIG    1       -7.043   0.415  -1.319  0.00  0.00    +0.210 HD
ENDBRANCH  28  30
ENDBRANCH  22  23
ENDBRANCH  21  22
ENDBRANCH   3  21
TORSDOF 8
