REMARK  Name = molecules/RYOOHIUJEJZCFT-GOSISDBHSA-N.pdb
REMARK                            x       y       z     vdW  Elec       q    Type
REMARK                         _______ _______ _______ _____ _____    ______ ____
ROOT
ATOM      1  C   LIG    1        0.284  -0.122  -0.047  0.00  0.00    +0.194 C 
ENDROOT
BRANCH   1   2
ATOM      2  C   LIG    1       -0.289  -1.461  -0.183  0.00  0.00    -0.020 A 
ATOM      3  C   LIG    1       -0.102  -2.364   0.869  0.00  0.00    +0.006 A 
ATOM      4  C   LIG    1       -0.616  -3.639   0.834  0.00  0.00    +0.000 A 
ATOM      5  C   LIG    1       -1.336  -4.051  -0.265  0.00  0.00    +0.000 A 
ATOM      6  C   LIG    1       -1.518  -3.161  -1.300  0.00  0.00    +0.000 A 
ATOM      7  C   LIG    1       -1.003  -1.892  -1.255  0.00  0.00    +0.006 A 
ENDBRANCH   1   2
BRANCH   1   8
ATOM      8  C   LIG    1       -0.746   0.879   0.335  0.00  0.00    +0.329 C 
ATOM      9  O   LIG    1       -0.851   1.930  -0.325  0.00  0.00    -0.249 OA
BRANCH   8  10
ATOM     10  O   LIG    1       -1.571   0.638   1.408  0.00  0.00    -0.463 OA
BRANCH  10  11
ATOM     11  C   LIG    1       -2.561   1.530   1.828  0.00  0.00    +0.232 C 
BRANCH  11  12
ATOM     12  C   LIG    1       -3.560   1.762   0.724  0.00  0.00    +0.044 C 
BRANCH  12  13
ATOM     13  C   LIG    1       -4.247   0.512   0.279  0.00  0.00    -0.014 C 
ATOM     14  C   LIG    1       -5.051  -0.102   1.405  0.00  0.00    +0.007 C 
ATOM     15  C   LIG    1       -5.223   0.901  -0.834  0.00  0.00    +0.007 C 
ENDBRANCH  12  13
ENDBRANCH  11  12
ENDBRANCH  10  11
ENDBRANCH   8  10
ENDBRANCH   1   8
BRANCH   1  16
ATOM     16  N   LIG    1        0.959   0.354  -1.211  0.00  0.00    -0.299 NA
ATOM     17  H   LIG    1        0.312   0.657  -1.962  0.00  0.00    +0.123 HD
BRANCH  16  18
ATOM     18  C   LIG    1        1.940  -0.514  -1.778  0.00  0.00    +0.097 C 
BRANCH  18  19
ATOM     19  C   LIG    1        3.172  -0.700  -0.949  0.00  0.00    +0.099 C 
BRANCH  19  20
ATOM     20  N   LIG    1        3.863   0.503  -0.749  0.00  0.00    -0.302 NA
BRANCH  20  21
ATOM     21  C   LIG    1        5.039   0.301   0.037  0.00  0.00    +0.081 C 
ATOM     22  C   LIG    1        4.682  -0.063   1.459  0.00  0.00    +0.020 C 
ENDBRANCH  20  21
BRANCH  20  23
ATOM     23  C   LIG    1        3.206   1.729  -0.700  0.00  0.00    +0.081 C 
ATOM     24  C   LIG    1        4.068   2.936  -0.462  0.00  0.00    +0.020 C 
ENDBRANCH  20  23
ENDBRANCH  19  20
ENDBRANCH  18  19
ENDBRANCH  16  18
ENDBRANCH   1  16
TORSDOF 12
