REMARK  Name = molecules/RYQOILLJDKPETL-UHFFFAOYSA-N.pdb
REMARK                            x       y       z     vdW  Elec       q    Type
REMARK                         _______ _______ _______ _____ _____    ______ ____
ROOT
ATOM      1  C   LIG    1       -1.016  -0.747   0.388  0.00  0.00    +0.307 C 
ATOM      2  O   LIG    1       -0.570  -0.225   1.431  0.00  0.00    -0.251 OA
ENDROOT
BRANCH   1   3
ATOM      3  C   LIG    1       -1.972  -1.888   0.492  0.00  0.00    +0.128 C 
BRANCH   3   4
ATOM      4  C   LIG    1       -3.317  -1.343   0.931  0.00  0.00    +0.087 C 
BRANCH   4   5
ATOM      5  C   LIG    1       -3.856  -0.353  -0.033  0.00  0.00    +0.147 C 
ATOM      6  O   LIG    1       -3.210  -0.092  -1.014  0.00  0.00    -0.296 OA
BRANCH   5   7
ATOM      7  C   LIG    1       -5.167   0.269   0.260  0.00  0.00    +0.152 C 
BRANCH   7   8
ATOM      8  N   LIG    1       -5.526   1.214  -0.800  0.00  0.00    -0.324 NA
ATOM      9  H   LIG    1       -5.836   2.103  -0.343  0.00  0.00    +0.119 HD
ATOM     10  H   LIG    1       -4.712   1.372  -1.442  0.00  0.00    +0.119 HD
ENDBRANCH   7   8
ENDBRANCH   5   7
ENDBRANCH   4   5
ENDBRANCH   3   4
ENDBRANCH   1   3
BRANCH   1  11
ATOM     11  O   LIG    1       -0.581  -0.217  -0.802  0.00  0.00    -0.465 OA
BRANCH  11  12
ATOM     12  C   LIG    1        0.303   0.840  -0.892  0.00  0.00    +0.232 C 
BRANCH  12  13
ATOM     13  C   LIG    1        1.668   0.598  -0.258  0.00  0.00    +0.041 C 
BRANCH  13  14
ATOM     14  C   LIG    1        2.386  -0.538  -0.860  0.00  0.00    +0.003 C 
BRANCH  14  15
ATOM     15  C   LIG    1        3.699  -0.829  -0.231  0.00  0.00    -0.000 C 
BRANCH  15  16
ATOM     16  C   LIG    1        4.749   0.226  -0.261  0.00  0.00    -0.003 C 
ATOM     17  C   LIG    1        4.477   1.495   0.467  0.00  0.00    +0.004 C 
ENDBRANCH  15  16
ENDBRANCH  14  15
ENDBRANCH  13  14
ENDBRANCH  12  13
ENDBRANCH  11  12
ENDBRANCH   1  11
TORSDOF 11
