REMARK  Name = molecules/RYYCJUAHISIHTL-UHFFFAOYSA-N.pdb
REMARK                            x       y       z     vdW  Elec       q    Type
REMARK                         _______ _______ _______ _____ _____    ______ ____
ROOT
ATOM      1  C   LIG    1        0.648  -0.052  -0.137  0.00  0.00    +0.225 A 
ATOM      2  N   LIG    1       -0.153  -1.112   0.077  0.00  0.00    -0.287 N 
ATOM      3  C   LIG    1       -1.495  -0.935   0.233  0.00  0.00    +0.330 A 
ATOM      4  O   LIG    1       -2.249  -1.917   0.433  0.00  0.00    -0.247 OA
ATOM      5  N   LIG    1       -2.042   0.288   0.178  0.00  0.00    -0.259 N 
ATOM      6  H   LIG    1       -3.092   0.378   0.305  0.00  0.00    +0.175 HD
ATOM      7  C   LIG    1       -1.243   1.345  -0.035  0.00  0.00    +0.352 A 
ATOM      8  O   LIG    1       -1.768   2.483  -0.085  0.00  0.00    -0.245 OA
ATOM      9  H   LIG    1        0.290  -2.056   0.117  0.00  0.00    +0.172 HD
ATOM     10  N   LIG    1        0.083   1.168  -0.189  0.00  0.00    -0.168 NA
ENDROOT
BRANCH   1  11
ATOM     11  C   LIG    1        2.079  -0.269  -0.300  0.00  0.00    +0.373 C 
ATOM     12  O   LIG    1        2.569  -1.399  -0.248  0.00  0.00    -0.242 OA
BRANCH  11  13
ATOM     13  O   LIG    1        2.892   0.819  -0.519  0.00  0.00    -0.475 OA
ATOM     14  H   LIG    1        3.482   1.258   0.171  0.00  0.00    +0.296 HD
ENDBRANCH  11  13
ENDBRANCH   1  11
TORSDOF 2
