REMARK  Name = molecules/RZEKVGVHFLEQIL-UHFFFAOYSA-N.pdb
REMARK                            x       y       z     vdW  Elec       q    Type
REMARK                         _______ _______ _______ _____ _____    ______ ____
ROOT
ATOM      1  C   LIG    1       -0.639  -3.739  -0.398  0.00  0.00    +0.166 A 
ATOM      2  C   LIG    1       -1.694  -2.845  -0.239  0.00  0.00    +0.062 A 
ATOM      3  C   LIG    1       -1.074  -1.596  -0.001  0.00  0.00    +0.075 A 
ATOM      4  N   LIG    1        0.239  -1.753  -0.016  0.00  0.00    -0.232 N 
ATOM      5  N   LIG    1        0.468  -3.081  -0.261  0.00  0.00    -0.162 NA
ENDROOT
BRANCH   3   6
ATOM      6  C   LIG    1       -1.851  -0.371   0.216  0.00  0.00    +0.000 A 
ATOM      7  C   LIG    1       -1.273   0.831   0.552  0.00  0.00    +0.010 A 
ATOM      8  C   LIG    1       -2.128   1.931   0.769  0.00  0.00    +0.004 A 
ATOM      9  C   LIG    1       -3.482   1.842   0.668  0.00  0.00    -0.050 A 
ATOM     10  C   LIG    1       -4.377   3.029   0.913  0.00  0.00    +0.044 C 
ATOM     11  C   LIG    1       -4.065   0.642   0.332  0.00  0.00    +0.004 A 
ATOM     12  C   LIG    1       -3.237  -0.441   0.114  0.00  0.00    +0.010 A 
ENDBRANCH   3   6
BRANCH   4  13
ATOM     13  C   LIG    1        1.321  -0.840   0.138  0.00  0.00    +0.066 A 
ATOM     14  C   LIG    1        2.006  -0.599   1.307  0.00  0.00    +0.030 A 
ATOM     15  C   LIG    1        3.102   0.289   1.282  0.00  0.00    +0.030 A 
ATOM     16  C   LIG    1        3.512   0.919   0.157  0.00  0.00    +0.105 A 
ATOM     17  C   LIG    1        2.794   0.662  -1.005  0.00  0.00    +0.030 A 
ATOM     18  C   LIG    1        1.734  -0.196  -1.008  0.00  0.00    +0.030 A 
BRANCH  16  19
ATOM     19  S   LIG    1        4.884   1.998   0.037  0.00  0.00    +0.056 S 
ATOM     20  O   LIG    1        5.946   1.659   1.022  0.00  0.00    -0.153 OA
ATOM     21  O   LIG    1        5.539   1.769  -1.323  0.00  0.00    -0.153 OA
BRANCH  19  22
ATOM     22  N   LIG    1        4.495   3.650   0.162  0.00  0.00    -0.204 NA
ATOM     23  H   LIG    1        4.345   4.014   1.101  0.00  0.00    +0.144 HD
ATOM     24  H   LIG    1        5.183   4.242  -0.383  0.00  0.00    +0.144 HD
ENDBRANCH  19  22
ENDBRANCH  16  19
ENDBRANCH   4  13
BRANCH   1  25
ATOM     25  C   LIG    1       -0.897  -5.209  -0.667  0.00  0.00    +0.436 C 
ATOM     26  F   LIG    1       -1.922  -5.679   0.149  0.00  0.00    -0.164 F 
ATOM     27  F   LIG    1        0.248  -5.986  -0.494  0.00  0.00    -0.164 F 
ATOM     28  F   LIG    1       -1.393  -5.250  -1.952  0.00  0.00    -0.164 F 
ENDBRANCH   1  25
TORSDOF 5
