REMARK  Name = molecules/RZJQGNCSTQAWON-UHFFFAOYSA-N.pdb
REMARK                            x       y       z     vdW  Elec       q    Type
REMARK                         _______ _______ _______ _____ _____    ______ ____
ROOT
ATOM      1  O   LIG    1       -4.269  -0.232   2.704  0.00  0.00    -0.245 OA
ATOM      2  C   LIG    1       -3.037  -0.532   2.673  0.00  0.00    +0.340 C 
ATOM      3  O   LIG    1       -2.323  -1.151   3.683  0.00  0.00    -0.456 OA
ATOM      4  C   LIG    1       -1.013  -1.301   3.243  0.00  0.00    +0.269 C 
ATOM      5  C   LIG    1       -0.965  -0.710   1.864  0.00  0.00    +0.011 C 
ATOM      6  C   LIG    1       -2.166  -0.262   1.537  0.00  0.00    +0.073 C 
ENDROOT
BRANCH   5   7
ATOM      7  C   LIG    1        0.213  -0.598   1.014  0.00  0.00    -0.018 A 
ATOM      8  C   LIG    1        1.091  -1.647   0.858  0.00  0.00    +0.010 A 
ATOM      9  C   LIG    1        2.221  -1.560   0.070  0.00  0.00    +0.027 A 
ATOM     10  C   LIG    1        2.517  -0.398  -0.601  0.00  0.00    +0.088 A 
ATOM     11  C   LIG    1        1.657   0.666  -0.464  0.00  0.00    +0.027 A 
ATOM     12  C   LIG    1        0.535   0.572   0.323  0.00  0.00    +0.010 A 
BRANCH  10  13
ATOM     13  S   LIG    1        3.915  -0.214  -1.609  0.00  0.00    -0.006 S 
ATOM     14  C   LIG    1        5.322   0.401  -0.752  0.00  0.00    +0.200 C 
ATOM     15  O   LIG    1        4.257  -1.550  -2.206  0.00  0.00    -0.170 OA
ATOM     16  O   LIG    1        3.549   0.761  -2.718  0.00  0.00    -0.170 OA
ENDBRANCH  10  13
ENDBRANCH   5   7
BRANCH   6  17
ATOM     17  C   LIG    1       -2.552   0.357   0.256  0.00  0.00    -0.011 A 
ATOM     18  C   LIG    1       -3.367   1.468   0.241  0.00  0.00    +0.009 A 
ATOM     19  C   LIG    1       -3.742   2.036  -0.983  0.00  0.00    +0.001 A 
ATOM     20  C   LIG    1       -3.322   1.519  -2.185  0.00  0.00    +0.000 A 
ATOM     21  C   LIG    1       -2.508   0.410  -2.173  0.00  0.00    +0.001 A 
ATOM     22  C   LIG    1       -2.136  -0.154  -0.949  0.00  0.00    +0.009 A 
ENDBRANCH   6  17
TORSDOF 3
