REMARK  Name = molecules/RZPAKFUAFGMUPI-QESOVKLGSA-N.pdb
REMARK                            x       y       z     vdW  Elec       q    Type
REMARK                         _______ _______ _______ _____ _____    ______ ____
ROOT
ATOM      1  O   LIG    1       -1.274   4.792   2.593  0.00  0.00    -0.294 OA
ATOM      2  C   LIG    1       -0.955   4.679   1.405  0.00  0.00    +0.172 C 
ATOM      3  C   LIG    1        0.430   4.218   1.043  0.00  0.00    +0.151 C 
ATOM      4  O   LIG    1        1.384   4.823   1.942  0.00  0.00    -0.360 OA
ATOM      5  C   LIG    1        0.477   2.737   0.942  0.00  0.00    +0.051 C 
ATOM      6  C   LIG    1        0.980   2.210  -0.387  0.00  0.00    +0.018 C 
ATOM      7  C   LIG    1        0.949   0.699  -0.431  0.00  0.00    +0.130 C 
ATOM      8  C   LIG    1        0.036   0.106  -1.442  0.00  0.00    +0.045 C 
ATOM      9  C   LIG    1       -1.273  -0.442  -0.910  0.00  0.00    +0.140 C 
ATOM     10  C   LIG    1       -2.373  -0.001  -1.889  0.00  0.00    +0.124 C 
ATOM     11  C   LIG    1       -3.700   0.113  -1.291  0.00  0.00    +0.313 C 
ATOM     12  O   LIG    1       -4.203   1.251  -0.702  0.00  0.00    -0.461 OA
ATOM     13  C   LIG    1       -3.523   2.132   0.126  0.00  0.00    +0.179 C 
ATOM     14  C   LIG    1       -3.627   1.693   1.573  0.00  0.00    +0.052 C 
ATOM     15  C   LIG    1       -3.993   3.550  -0.064  0.00  0.00    +0.056 C 
ATOM     16  C   LIG    1       -3.321   4.477   0.897  0.00  0.00    +0.131 C 
ATOM     17  C   LIG    1       -3.869   3.927  -1.502  0.00  0.00    +0.014 C 
ATOM     18  O   LIG    1       -4.460  -0.889  -1.303  0.00  0.00    -0.250 OA
ATOM     19  C   LIG    1       -2.425  -0.973  -3.076  0.00  0.00    +0.022 C 
ATOM     20  C   LIG    1        0.835  -0.984  -2.174  0.00  0.00    +0.013 C 
ATOM     21  C   LIG    1        0.350   2.875  -1.565  0.00  0.00    +0.010 C 
ATOM     22  C   LIG    1        1.323   5.178   0.500  0.00  0.00    +0.204 C 
ATOM     23  C   LIG    1       -1.997   5.018   0.411  0.00  0.00    +0.084 C 
ATOM     24  C   LIG    1       -2.088   6.548   0.338  0.00  0.00    +0.018 C 
ENDROOT
BRANCH  16  25
ATOM     25  O   LIG    1       -4.202   5.489   1.251  0.00  0.00    -0.391 OA
ATOM     26  H   LIG    1       -4.290   5.616   2.227  0.00  0.00    +0.210 HD
ENDBRANCH  16  25
BRANCH   7  27
ATOM     27  O   LIG    1        2.295   0.320  -0.674  0.00  0.00    -0.345 OA
BRANCH  27  28
ATOM     28  C   LIG    1        2.901  -0.294   0.383  0.00  0.00    +0.281 C 
ATOM     29  O   LIG    1        3.939   0.456   0.937  0.00  0.00    -0.346 OA
ATOM     30  C   LIG    1        5.056   0.516   0.140  0.00  0.00    +0.120 C 
ATOM     31  C   LIG    1        5.717  -0.826  -0.036  0.00  0.00    +0.053 C 
ATOM     32  C   LIG    1        4.831  -1.835   0.689  0.00  0.00    +0.092 C 
ATOM     33  C   LIG    1        4.816   1.172  -1.204  0.00  0.00    +0.038 C 
ATOM     34  C   LIG    1        3.428  -1.669   0.136  0.00  0.00    +0.187 C 
BRANCH  32  35
ATOM     35  N   LIG    1        5.350  -3.159   0.510  0.00  0.00    -0.303 NA
ATOM     36  C   LIG    1        6.725  -3.134   1.042  0.00  0.00    +0.105 C 
ATOM     37  C   LIG    1        5.481  -3.529  -0.881  0.00  0.00    +0.105 C 
ENDBRANCH  32  35
BRANCH  34  38
ATOM     38  O   LIG    1        2.663  -2.655   0.793  0.00  0.00    -0.385 OA
ATOM     39  H   LIG    1        2.719  -2.451   1.779  0.00  0.00    +0.210 HD
ENDBRANCH  34  38
ENDBRANCH  27  28
ENDBRANCH   7  27
BRANCH   9  40
ATOM     40  O   LIG    1       -1.237  -1.808  -0.984  0.00  0.00    -0.347 OA
BRANCH  40  41
ATOM     41  C   LIG    1       -1.508  -2.482   0.230  0.00  0.00    +0.253 C 
ATOM     42  O   LIG    1       -0.365  -3.149   0.541  0.00  0.00    -0.346 OA
ATOM     43  C   LIG    1       -0.423  -4.400   1.046  0.00  0.00    +0.149 C 
ATOM     44  C   LIG    1       -0.573  -4.497   2.551  0.00  0.00    +0.041 C 
ATOM     45  C   LIG    1       -1.402  -5.295   0.327  0.00  0.00    +0.172 C 
ATOM     46  C   LIG    1       -2.765  -4.666   0.541  0.00  0.00    +0.154 C 
ATOM     47  C   LIG    1       -2.747  -3.256   0.047  0.00  0.00    +0.095 C 
BRANCH  46  48
ATOM     48  O   LIG    1       -3.190  -4.787   1.862  0.00  0.00    -0.377 OA
ATOM     49  C   LIG    1       -4.345  -5.592   1.947  0.00  0.00    +0.194 C 
ENDBRANCH  46  48
BRANCH  45  50
ATOM     50  O   LIG    1       -1.121  -5.191  -1.041  0.00  0.00    -0.387 OA
ATOM     51  H   LIG    1       -1.996  -5.311  -1.527  0.00  0.00    +0.210 HD
ENDBRANCH  45  50
ENDBRANCH  40  41
ENDBRANCH   9  40
TORSDOF 9
