REMARK  Name = molecules/RZVAJINKPMORJF-UHFFFAOYSA-N.pdb
REMARK                            x       y       z     vdW  Elec       q    Type
REMARK                         _______ _______ _______ _____ _____    ______ ____
ROOT
ATOM      1  C   LIG    1        0.434  -0.022  -1.122  0.00  0.00    +0.027 A 
ATOM      2  C   LIG    1        0.085  -0.074   0.201  0.00  0.00    +0.034 A 
ATOM      3  C   LIG    1        1.131  -0.108   1.133  0.00  0.00    +0.027 A 
ATOM      4  C   LIG    1        2.452  -0.091   0.761  0.00  0.00    +0.047 A 
ATOM      5  C   LIG    1        2.792  -0.039  -0.564  0.00  0.00    +0.117 A 
ATOM      6  C   LIG    1        1.781  -0.005  -1.495  0.00  0.00    +0.047 A 
ENDROOT
BRANCH   2   7
ATOM      7  N   LIG    1       -1.259  -0.094   0.648  0.00  0.00    -0.286 N 
ATOM      8  H   LIG    1       -1.395  -0.136   1.719  0.00  0.00    +0.155 HD
ATOM      9  C   LIG    1       -2.409  -0.066  -0.146  0.00  0.00    +0.214 C 
ATOM     10  C   LIG    1       -3.776  -0.094   0.492  0.00  0.00    +0.109 C 
ATOM     11  O   LIG    1       -2.436  -0.018  -1.387  0.00  0.00    -0.276 OA
ENDBRANCH   2   7
BRANCH   5  12
ATOM     12  O   LIG    1        4.123  -0.019  -1.002  0.00  0.00    -0.507 OA
ATOM     13  H   LIG    1        4.865  -0.044  -0.331  0.00  0.00    +0.292 HD
ENDBRANCH   5  12
TORSDOF 2
