REMARK  Name = molecules/RZWPJFMNFATBEG-UHFFFAOYSA-N.pdb
REMARK                            x       y       z     vdW  Elec       q    Type
REMARK                         _______ _______ _______ _____ _____    ______ ____
ROOT
ATOM      1  C   LIG    1       -2.300   0.103   0.534  0.00  0.00    +0.213 C 
ENDROOT
BRANCH   1   2
ATOM      2  C   LIG    1       -3.159  -1.107   0.526  0.00  0.00    -0.001 A 
ATOM      3  C   LIG    1       -4.348  -1.002   1.253  0.00  0.00    +0.007 A 
ATOM      4  C   LIG    1       -5.261  -2.028   1.349  0.00  0.00    +0.000 A 
ATOM      5  C   LIG    1       -4.965  -3.204   0.688  0.00  0.00    +0.000 A 
ATOM      6  C   LIG    1       -3.804  -3.343  -0.037  0.00  0.00    +0.000 A 
ATOM      7  C   LIG    1       -2.900  -2.275  -0.110  0.00  0.00    +0.007 A 
ENDBRANCH   1   2
BRANCH   1   8
ATOM      8  C   LIG    1       -2.778   1.076  -0.476  0.00  0.00    -0.001 A 
ATOM      9  C   LIG    1       -3.308   2.299  -0.108  0.00  0.00    +0.007 A 
ATOM     10  C   LIG    1       -3.757   3.210  -1.036  0.00  0.00    +0.000 A 
ATOM     11  C   LIG    1       -3.674   2.885  -2.372  0.00  0.00    +0.000 A 
ATOM     12  C   LIG    1       -3.150   1.673  -2.769  0.00  0.00    +0.000 A 
ATOM     13  C   LIG    1       -2.705   0.774  -1.820  0.00  0.00    +0.007 A 
ENDBRANCH   1   8
BRANCH   1  14
ATOM     14  O   LIG    1       -2.422   0.715   1.808  0.00  0.00    -0.370 OA
ATOM     15  H   LIG    1       -1.713   1.383   1.944  0.00  0.00    +0.212 HD
ENDBRANCH   1  14
BRANCH   1  16
ATOM     16  C   LIG    1       -0.864  -0.177   0.369  0.00  0.00    +0.349 C 
ATOM     17  O   LIG    1       -0.483  -0.662  -0.724  0.00  0.00    -0.247 OA
BRANCH  16  18
ATOM     18  O   LIG    1        0.093   0.059   1.335  0.00  0.00    -0.461 OA
BRANCH  18  19
ATOM     19  C   LIG    1        1.471  -0.185   1.227  0.00  0.00    +0.247 C 
BRANCH  19  20
ATOM     20  C   LIG    1        2.069   0.637   0.135  0.00  0.00    +0.125 C 
BRANCH  20  21
ATOM     21  N   LIG    1        3.470   0.456  -0.055  0.00  0.00    -0.299 NA
ATOM     22  C   LIG    1        4.252   0.943   1.021  0.00  0.00    +0.084 C 
ATOM     23  C   LIG    1        5.705   0.615   0.953  0.00  0.00    +0.015 C 
ATOM     24  C   LIG    1        6.106   0.115  -0.424  0.00  0.00    +0.002 C 
ATOM     25  C   LIG    1        5.261  -1.093  -0.710  0.00  0.00    +0.015 C 
ATOM     26  C   LIG    1        3.800  -0.807  -0.605  0.00  0.00    +0.084 C 
ENDBRANCH  20  21
ENDBRANCH  19  20
ENDBRANCH  18  19
ENDBRANCH  16  18
ENDBRANCH   1  16
TORSDOF 8
