REMARK  Name = molecules/RZXZIZDRFQFCTA-PVQJCKRUSA-N.pdb
REMARK                            x       y       z     vdW  Elec       q    Type
REMARK                         _______ _______ _______ _____ _____    ______ ____
ROOT
ATOM      1  C   LIG    1       -0.770  -0.085   0.081  0.00  0.00    +0.430 C 
ATOM      2  F   LIG    1       -0.846  -0.014   1.466  0.00  0.00    -0.167 F 
ATOM      3  F   LIG    1       -1.202  -1.317  -0.293  0.00  0.00    -0.167 F 
ATOM      4  F   LIG    1       -1.557   0.882  -0.526  0.00  0.00    -0.167 F 
ENDROOT
BRANCH   1   5
ATOM      5  C   LIG    1        0.693   0.165  -0.265  0.00  0.00    +0.336 C 
ATOM      6 BR   LIG    1        1.793  -1.168   0.570  0.00  0.00    -0.042 Br
ATOM      7  F   LIG    1        1.017   1.378   0.320  0.00  0.00    -0.224 F 
ENDBRANCH   1   5
TORSDOF 1
