REMARK  Name = molecules/SAADBVWGJQAEFS-UHFFFAOYSA-N.pdb
REMARK                            x       y       z     vdW  Elec       q    Type
REMARK                         _______ _______ _______ _____ _____    ______ ____
ROOT
ATOM      1  N   LIG    1       -0.203   0.092   0.834  0.00  0.00    -0.268 N 
ATOM      2  C   LIG    1        0.293  -0.393   2.096  0.00  0.00    +0.241 C 
ATOM      3  O   LIG    1       -0.276   0.051   3.099  0.00  0.00    -0.273 OA
ATOM      4  C   LIG    1        1.408  -1.366   2.365  0.00  0.00    +0.238 C 
ATOM      5  N   LIG    1        2.642  -0.753   1.881  0.00  0.00    -0.273 NA
ATOM      6  C   LIG    1        2.897  -0.274   0.694  0.00  0.00    +0.078 C 
ATOM      7  C   LIG    1        1.983  -0.263  -0.429  0.00  0.00    +0.023 A 
ATOM      8  C   LIG    1        2.593  -0.486  -1.645  0.00  0.00    +0.032 A 
ATOM      9  C   LIG    1        1.845  -0.435  -2.807  0.00  0.00    +0.042 A 
ATOM     10  C   LIG    1        0.494  -0.161  -2.715  0.00  0.00    +0.022 A 
ATOM     11  C   LIG    1       -0.126   0.058  -1.495  0.00  0.00    +0.025 A 
ATOM     12 CL   LIG    1        2.638  -0.708  -4.357  0.00  0.00    -0.084 Cl
ATOM     13  C   LIG    1        0.616   0.005  -0.335  0.00  0.00    +0.046 A 
ENDROOT
BRANCH   6  14
ATOM     14  C   LIG    1        4.242   0.239   0.488  0.00  0.00    +0.036 A 
ATOM     15  C   LIG    1        5.205  -0.248   1.414  0.00  0.00    +0.013 A 
ATOM     16  C   LIG    1        6.511   0.045   1.214  0.00  0.00    +0.001 A 
ATOM     17  C   LIG    1        6.979   0.796   0.158  0.00  0.00    +0.003 A 
ATOM     18  C   LIG    1        6.013   1.260  -0.729  0.00  0.00    +0.039 A 
ATOM     19  C   LIG    1        4.654   0.978  -0.550  0.00  0.00    +0.133 A 
ATOM     20  F   LIG    1        3.768   1.625  -1.393  0.00  0.00    -0.205 F 
ENDBRANCH   6  14
BRANCH   1  21
ATOM     21  C   LIG    1       -1.500   0.647   0.755  0.00  0.00    +0.129 C 
BRANCH  21  22
ATOM     22  C   LIG    1       -2.595  -0.341   0.518  0.00  0.00    +0.103 C 
BRANCH  22  23
ATOM     23  N   LIG    1       -3.890   0.300   0.453  0.00  0.00    -0.301 NA
BRANCH  23  24
ATOM     24  C   LIG    1       -4.928  -0.757   0.318  0.00  0.00    +0.081 C 
ATOM     25  C   LIG    1       -5.011  -1.567   1.589  0.00  0.00    +0.020 C 
ENDBRANCH  23  24
BRANCH  23  26
ATOM     26  C   LIG    1       -4.022   1.083  -0.757  0.00  0.00    +0.081 C 
ATOM     27  C   LIG    1       -5.412   1.711  -0.724  0.00  0.00    +0.020 C 
ENDBRANCH  23  26
ENDBRANCH  22  23
ENDBRANCH  21  22
ENDBRANCH   1  21
TORSDOF 6
