REMARK  Name = molecules/SADQVAVFGNTEOD-UHFFFAOYSA-N.pdb
REMARK                            x       y       z     vdW  Elec       q    Type
REMARK                         _______ _______ _______ _____ _____    ______ ____
ROOT
ATOM      1  C   LIG    1        1.672  -0.737   0.175  0.00  0.00    -0.022 A 
ATOM      2  C   LIG    1        2.102  -2.022   0.121  0.00  0.00    +0.087 A 
ATOM      3  N   LIG    1        3.442  -2.015  -0.035  0.00  0.00    -0.360 N 
ATOM      4  C   LIG    1        3.913  -0.744  -0.086  0.00  0.00    +0.047 A 
ATOM      5  C   LIG    1        5.174  -0.201  -0.220  0.00  0.00    +0.026 A 
ATOM      6  C   LIG    1        5.373   1.170  -0.231  0.00  0.00    +0.002 A 
ATOM      7  C   LIG    1        4.274   2.001  -0.103  0.00  0.00    +0.001 A 
ATOM      8  C   LIG    1        3.008   1.430   0.033  0.00  0.00    +0.010 A 
ATOM      9  H   LIG    1        4.063  -2.846  -0.112  0.00  0.00    +0.165 HD
ATOM     10  C   LIG    1        2.804   0.063   0.044  0.00  0.00    +0.003 A 
ENDROOT
BRANCH   1  11
ATOM     11  C   LIG    1        0.309  -0.176   0.355  0.00  0.00    +0.037 C 
BRANCH  11  12
ATOM     12  C   LIG    1       -0.792  -1.039  -0.189  0.00  0.00    +0.008 C 
BRANCH  12  13
ATOM     13  C   LIG    1       -2.094  -0.362   0.105  0.00  0.00    -0.008 C 
ATOM     14  C   LIG    1       -3.240  -1.234  -0.314  0.00  0.00    +0.018 C 
ATOM     15  C   LIG    1       -4.513  -0.394  -0.406  0.00  0.00    +0.081 C 
ATOM     16  N   LIG    1       -4.429   0.730   0.490  0.00  0.00    -0.316 NA
ATOM     17  H   LIG    1       -5.351   1.152   0.687  0.00  0.00    +0.122 HD
ATOM     18  C   LIG    1       -3.425   1.692   0.152  0.00  0.00    +0.081 C 
ATOM     19  C   LIG    1       -2.245   0.976  -0.526  0.00  0.00    +0.018 C 
ENDBRANCH  12  13
ENDBRANCH  11  12
ENDBRANCH   1  11
TORSDOF 3
