REMARK  Name = molecules/SAPNXPWPAUFAJU-UHFFFAOYSA-N.pdb
REMARK                            x       y       z     vdW  Elec       q    Type
REMARK                         _______ _______ _______ _____ _____    ______ ____
ROOT
ATOM      1  C   LIG    1       -2.120  -2.011   0.717  0.00  0.00    +0.112 C 
ENDROOT
BRANCH   1   2
ATOM      2  N   LIG    1       -2.667  -0.748   0.377  0.00  0.00    -0.300 N 
ATOM      3  C   LIG    1       -2.982   0.142   1.472  0.00  0.00    +0.037 A 
ATOM      4  C   LIG    1       -3.251  -0.539   2.630  0.00  0.00    +0.024 A 
ATOM      5  C   LIG    1       -3.563   0.182   3.760  0.00  0.00    +0.002 A 
ATOM      6  C   LIG    1       -3.600   1.581   3.705  0.00  0.00    +0.000 A 
ATOM      7  C   LIG    1       -3.323   2.202   2.521  0.00  0.00    +0.005 A 
ATOM      8  C   LIG    1       -3.000   1.517   1.343  0.00  0.00    -0.026 A 
ATOM      9  C   LIG    1       -2.787   2.459   0.268  0.00  0.00    +0.042 C 
ATOM     10  C   LIG    1       -2.372   2.041  -1.058  0.00  0.00    +0.042 C 
ATOM     11  C   LIG    1       -2.741   0.749  -1.605  0.00  0.00    -0.026 A 
ATOM     12  C   LIG    1       -2.997   0.780  -2.984  0.00  0.00    +0.005 A 
ATOM     13  C   LIG    1       -3.343  -0.374  -3.655  0.00  0.00    +0.000 A 
ATOM     14  C   LIG    1       -3.458  -1.604  -3.038  0.00  0.00    +0.002 A 
ATOM     15  C   LIG    1       -3.208  -1.651  -1.669  0.00  0.00    +0.024 A 
ATOM     16  C   LIG    1       -2.865  -0.481  -1.023  0.00  0.00    +0.037 A 
ENDBRANCH   1   2
BRANCH   1  17
ATOM     17  C   LIG    1       -0.789  -2.271  -0.045  0.00  0.00    +0.035 C 
BRANCH  17  18
ATOM     18  C   LIG    1        0.219  -1.174   0.338  0.00  0.00    +0.086 C 
BRANCH  18  19
ATOM     19  N   LIG    1        1.461  -1.401  -0.362  0.00  0.00    -0.298 NA
ATOM     20  C   LIG    1        2.018  -2.676   0.047  0.00  0.00    +0.105 C 
BRANCH  19  21
ATOM     21  C   LIG    1        2.387  -0.344  -0.003  0.00  0.00    +0.163 C 
BRANCH  21  22
ATOM     22  C   LIG    1        3.684  -0.488  -0.706  0.00  0.00    +0.177 C 
ATOM     23  O   LIG    1        3.810  -1.445  -1.511  0.00  0.00    -0.291 OA
BRANCH  22  24
ATOM     24  C   LIG    1        4.796   0.421  -0.504  0.00  0.00    +0.019 A 
ATOM     25  C   LIG    1        4.739   1.495   0.359  0.00  0.00    +0.013 A 
ATOM     26  C   LIG    1        5.824   2.334   0.521  0.00  0.00    +0.020 A 
ATOM     27  C   LIG    1        6.993   2.121  -0.174  0.00  0.00    +0.041 A 
ATOM     28 CL   LIG    1        8.393   3.173   0.011  0.00  0.00    -0.084 Cl
ATOM     29  C   LIG    1        7.073   1.065  -1.034  0.00  0.00    +0.020 A 
ATOM     30  C   LIG    1        5.979   0.234  -1.185  0.00  0.00    +0.013 A 
ENDBRANCH  22  24
ENDBRANCH  21  22
ENDBRANCH  19  21
ENDBRANCH  18  19
ENDBRANCH  17  18
ENDBRANCH   1  17
TORSDOF 7
