REMARK  Name = molecules/SAZUGELZHZOXHB-UHFFFAOYSA-N.pdb
REMARK                            x       y       z     vdW  Elec       q    Type
REMARK                         _______ _______ _______ _____ _____    ______ ____
ROOT
ATOM      1  C   LIG    1       -0.401  -0.883  -0.267  0.00  0.00    +0.237 C 
ATOM      2  N   LIG    1        1.040  -0.128  -0.765  0.00  0.00    -0.239 N 
ATOM      3  H   LIG    1        0.876   0.429   0.060  0.00  0.00    +0.159 HD
ATOM      4  C   LIG    1        1.252  -0.849  -1.832  0.00  0.00    +0.312 C 
ATOM      5  O   LIG    1        0.564  -1.787  -2.388  0.00  0.00    -0.252 OA
ATOM      6  N   LIG    1        2.472  -0.641  -2.625  0.00  0.00    -0.240 N 
ATOM      7  C   LIG    1        3.429   0.337  -2.314  0.00  0.00    +0.217 C 
ATOM      8  C   LIG    1        3.299   1.267  -1.139  0.00  0.00    +0.109 C 
ATOM      9  O   LIG    1        4.457   0.454  -3.055  0.00  0.00    -0.276 OA
ATOM     10  H   LIG    1        2.648  -1.227  -3.478  0.00  0.00    +0.159 HD
ATOM     11  O   LIG    1       -0.690  -1.776  -0.933  0.00  0.00    -0.274 OA
ENDROOT
BRANCH   1  12
ATOM     12  C   LIG    1       -1.020  -0.300   0.873  0.00  0.00    +0.102 C 
ATOM     13 BR   LIG    1       -0.054   1.175   1.695  0.00  0.00    -0.075 Br
BRANCH  12  14
ATOM     14  C   LIG    1       -1.345  -1.318   1.945  0.00  0.00    +0.024 C 
ATOM     15  C   LIG    1       -2.011  -0.662   3.142  0.00  0.00    +0.006 C 
ENDBRANCH  12  14
BRANCH  12  16
ATOM     16  C   LIG    1       -2.351   0.310   0.343  0.00  0.00    +0.024 C 
ATOM     17  C   LIG    1       -1.907   1.342  -0.693  0.00  0.00    +0.006 C 
ENDBRANCH  12  16
ENDBRANCH   1  12
TORSDOF 3
