REMARK  Name = molecules/SBDNJUWAMKYJOX-UHFFFAOYSA-N.pdb
REMARK                            x       y       z     vdW  Elec       q    Type
REMARK                         _______ _______ _______ _____ _____    ______ ____
ROOT
ATOM      1  N   LIG    1       -0.365   1.001  -0.358  0.00  0.00    -0.312 N 
ATOM      2  H   LIG    1       -0.557   1.843  -0.921  0.00  0.00    +0.152 HD
ENDROOT
BRANCH   1   9
ATOM      3  C   LIG    1        3.927  -1.002  -1.609  0.00  0.00    +0.045 C 
ATOM      4  C   LIG    1        3.122  -0.193  -0.665  0.00  0.00    -0.030 A 
ATOM      5  C   LIG    1        3.682   0.349   0.485  0.00  0.00    +0.006 A 
ATOM      6  C   LIG    1        2.928   1.102   1.360  0.00  0.00    +0.022 A 
ATOM      7  C   LIG    1        1.583   1.313   1.071  0.00  0.00    +0.064 A 
ATOM      8 CL   LIG    1        0.664   2.277   2.214  0.00  0.00    -0.082 Cl
ATOM      9  C   LIG    1        1.013   0.782  -0.065  0.00  0.00    +0.069 A 
ATOM     10  C   LIG    1        1.786   0.033  -0.926  0.00  0.00    +0.066 A 
ATOM     11 CL   LIG    1        1.126  -0.675  -2.395  0.00  0.00    -0.081 Cl
ENDBRANCH   1   9
BRANCH   1  12
ATOM     12  C   LIG    1       -1.379   0.135   0.088  0.00  0.00    +0.045 A 
ATOM     13  C   LIG    1       -0.971  -0.972   0.845  0.00  0.00    +0.024 A 
ATOM     14  C   LIG    1       -1.874  -1.896   1.340  0.00  0.00    +0.002 A 
ATOM     15  C   LIG    1       -3.209  -1.746   1.097  0.00  0.00    +0.001 A 
ATOM     16  C   LIG    1       -3.638  -0.674   0.359  0.00  0.00    +0.017 A 
ATOM     17  C   LIG    1       -2.729   0.259  -0.141  0.00  0.00    +0.080 A 
BRANCH  17  18
ATOM     18  C   LIG    1       -3.243   1.350  -0.900  0.00  0.00    +0.339 C 
ATOM     19  O   LIG    1       -2.543   2.240  -1.396  0.00  0.00    -0.245 OA
BRANCH  18  20
ATOM     20  O   LIG    1       -4.612   1.456  -1.119  0.00  0.00    -0.477 OA
ATOM     21  H   LIG    1       -5.249   1.802  -0.400  0.00  0.00    +0.295 HD
ENDBRANCH  18  20
ENDBRANCH  17  18
ENDBRANCH   1  12
TORSDOF 4
