REMARK  Name = molecules/SBFXHXZNBNFPHV-PXXBSISHSA-N.pdb
REMARK                            x       y       z     vdW  Elec       q    Type
REMARK                         _______ _______ _______ _____ _____    ______ ____
ROOT
ATOM      1  C   LIG    1       -3.029   1.204  -1.093  0.00  0.00    +0.269 C 
ATOM      2  N   LIG    1       -3.233  -0.153  -0.698  0.00  0.00    -0.233 N 
ATOM      3  C   LIG    1       -4.463  -0.691  -0.148  0.00  0.00    +0.170 C 
ATOM      4  C   LIG    1       -5.334   0.422   0.258  0.00  0.00    +0.237 C 
ATOM      5  O   LIG    1       -6.033   0.318   1.288  0.00  0.00    -0.274 OA
ATOM      6  N   LIG    1       -5.379   1.597  -0.512  0.00  0.00    -0.290 N 
ATOM      7  C   LIG    1       -6.350   2.663  -0.661  0.00  0.00    +0.108 C 
ATOM      8  C   LIG    1       -5.496   3.919  -0.872  0.00  0.00    +0.021 C 
ATOM      9  C   LIG    1       -4.081   3.402  -1.010  0.00  0.00    +0.031 C 
ATOM     10  C   LIG    1       -1.986  -0.788  -0.967  0.00  0.00    +0.271 C 
ATOM     11  O   LIG    1       -1.488  -1.799  -0.395  0.00  0.00    -0.270 OA
ATOM     12  C   LIG    1       -1.378  -0.006  -2.076  0.00  0.00    +0.220 C 
ATOM     13  C   LIG    1       -4.296   1.952  -1.387  0.00  0.00    +0.156 C 
ATOM     14  O   LIG    1       -2.213   1.126  -2.182  0.00  0.00    -0.298 OA
ENDROOT
BRANCH  12  15
ATOM     15  N   LIG    1       -0.076   0.468  -1.785  0.00  0.00    -0.280 N 
ATOM     16  C   LIG    1        1.072  -0.273  -1.413  0.00  0.00    +0.220 C 
ATOM     17  O   LIG    1        0.967  -1.517  -1.310  0.00  0.00    -0.275 OA
ATOM     18  H   LIG    1        0.095   1.517  -1.848  0.00  0.00    +0.152 HD
BRANCH  16  19
ATOM     19  C   LIG    1        2.388   0.341  -1.139  0.00  0.00    +0.090 C 
ATOM     20  C   LIG    1        2.340   1.463  -0.173  0.00  0.00    +0.097 C 
ATOM     21  N   LIG    1        3.483   1.737   0.585  0.00  0.00    -0.301 NA
ATOM     22  C   LIG    1        3.284   2.575   1.734  0.00  0.00    +0.105 C 
ATOM     23  C   LIG    1        4.514   0.792   0.700  0.00  0.00    +0.068 C 
ATOM     24  C   LIG    1        5.876   1.454   0.983  0.00  0.00    +0.056 C 
ATOM     25  C   LIG    1        6.793   0.353   1.422  0.00  0.00    -0.021 A 
ATOM     26  C   LIG    1        7.876   0.225   2.263  0.00  0.00    +0.087 A 
ATOM     27  N   LIG    1        8.303  -1.078   2.258  0.00  0.00    -0.360 N 
ATOM     28  H   LIG    1        9.090  -1.504   2.780  0.00  0.00    +0.165 HD
ATOM     29  C   LIG    1        7.517  -1.790   1.432  0.00  0.00    +0.047 A 
ATOM     30  C   LIG    1        7.421  -3.104   1.002  0.00  0.00    +0.026 A 
ATOM     31  C   LIG    1        6.439  -3.478   0.107  0.00  0.00    +0.002 A 
ATOM     32  C   LIG    1        5.505  -2.567  -0.403  0.00  0.00    +0.004 A 
ATOM     33  C   LIG    1        5.606  -1.250   0.032  0.00  0.00    -0.033 A 
ATOM     34  C   LIG    1        6.593  -0.912   0.921  0.00  0.00    +0.006 A 
ATOM     35  C   LIG    1        4.698  -0.166  -0.420  0.00  0.00    +0.038 C 
ATOM     36  C   LIG    1        3.359  -0.740  -0.802  0.00  0.00    +0.023 C 
ENDBRANCH  16  19
ENDBRANCH  12  15
BRANCH  12  37
ATOM     37  C   LIG    1       -1.569  -0.763  -3.340  0.00  0.00    +0.043 C 
ATOM     38  C   LIG    1       -0.980  -2.125  -3.429  0.00  0.00    +0.012 C 
ATOM     39  C   LIG    1       -3.092  -0.958  -3.484  0.00  0.00    +0.012 C 
ENDBRANCH  12  37
BRANCH   1  40
ATOM     40  O   LIG    1       -2.317   1.835  -0.048  0.00  0.00    -0.348 OA
ATOM     41  H   LIG    1       -1.801   2.600  -0.361  0.00  0.00    +0.214 HD
ENDBRANCH   1  40
BRANCH   3  42
ATOM     42  C   LIG    1       -4.189  -1.595   1.038  0.00  0.00    +0.015 C 
ATOM     43  C   LIG    1       -5.511  -2.130   1.541  0.00  0.00    +0.010 C 
BRANCH  42  44
ATOM     44  C   LIG    1       -3.485  -0.843   2.147  0.00  0.00    +0.002 C 
ATOM     45  C   LIG    1       -3.248  -1.812   3.284  0.00  0.00    +0.004 C 
ENDBRANCH  42  44
ENDBRANCH   3  42
TORSDOF 6
