REMARK  Name = molecules/SBNKFTQSBPKMBZ-UHFFFAOYSA-N.pdb
REMARK                            x       y       z     vdW  Elec       q    Type
REMARK                         _______ _______ _______ _____ _____    ______ ____
ROOT
ATOM      1  C   LIG    1        0.051   0.140   0.208  0.00  0.00    +0.133 A 
ATOM      2  C   LIG    1       -1.093  -0.601  -0.009  0.00  0.00    +0.078 A 
ATOM      3  C   LIG    1       -2.184   0.008  -0.640  0.00  0.00    +0.017 A 
ATOM      4  C   LIG    1       -2.117   1.326  -1.038  0.00  0.00    +0.001 A 
ATOM      5  C   LIG    1       -0.956   2.054  -0.810  0.00  0.00    +0.004 A 
ATOM      6  C   LIG    1        0.122   1.458  -0.189  0.00  0.00    +0.046 A 
ENDROOT
BRANCH   2   7
ATOM      7  C   LIG    1       -1.206  -1.994   0.395  0.00  0.00    +0.245 C 
ATOM      8  O   LIG    1       -0.233  -2.534   0.957  0.00  0.00    -0.270 OA
ATOM      9  N   LIG    1       -2.388  -2.736   0.163  0.00  0.00    -0.325 N 
ATOM     10  H   LIG    1       -3.107  -2.859   0.920  0.00  0.00    +0.145 HD
ATOM     11  H   LIG    1       -2.604  -3.189  -0.742  0.00  0.00    +0.145 HD
ENDBRANCH   2   7
BRANCH   1  12
ATOM     12  O   LIG    1        1.104  -0.507   0.836  0.00  0.00    -0.491 OA
BRANCH  12  14
ATOM     13  C   LIG    1        3.089   0.590  -0.045  0.00  0.00    +0.048 C 
ATOM     14  C   LIG    1        2.337   0.082   1.138  0.00  0.00    +0.226 C 
ENDBRANCH  12  14
ENDBRANCH   1  12
TORSDOF 3
