REMARK  Name = molecules/SBNPWPIBESPSIF-MHWMIDJBSA-N.pdb
REMARK                            x       y       z     vdW  Elec       q    Type
REMARK                         _______ _______ _______ _____ _____    ______ ____
ROOT
ATOM      1  C   LIG    1       -1.647   8.745   0.000  0.00  0.00    +0.000 C 
ATOM      2  C   LIG    1       -1.647   7.647   0.000  0.00  0.00    +0.000 C 
ENDROOT
TORSDOF 0
REMARK  Name = molecules/SBNPWPIBESPSIF-MHWMIDJBSA-N.pdb
REMARK                            x       y       z     vdW  Elec       q    Type
REMARK                         _______ _______ _______ _____ _____    ______ ____
ROOT
ATOM      1  C   LIG    1       -6.696  10.392   0.000  0.00  0.00    -0.021 A 
ATOM      2  C   LIG    1       -5.946  11.691   0.000  0.00  0.00    -0.036 A 
ATOM      3  C   LIG    1       -6.696  12.990   0.000  0.00  0.00    +0.004 A 
ATOM      4  C   LIG    1       -8.196  12.990   0.000  0.00  0.00    +0.000 A 
ATOM      5  C   LIG    1       -8.946  11.691   0.000  0.00  0.00    +0.001 A 
ATOM      6  C   LIG    1       -4.446  11.691   0.000  0.00  0.00    +0.036 C 
ATOM      7  C   LIG    1       -8.196  10.392   0.000  0.00  0.00    +0.008 A 
ENDROOT
BRANCH   1   9
ATOM      8  C   LIG    1       -4.446   9.093   0.000  0.00  0.00    -0.013 C 
ATOM      9  C   LIG    1       -5.946   9.093   0.000  0.00  0.00    +0.014 C 
BRANCH   8  10
ATOM     10  C   LIG    1       -3.696   7.794   0.000  0.00  0.00    +0.149 C 
ATOM     11  C   LIG    1       -2.946   6.495   0.000  0.00  0.00    +0.035 C 
BRANCH  10  12
ATOM     12  O   LIG    1       -2.946   8.397   0.000  0.00  0.00    -0.387 OA
ATOM     13  H   LIG    1       -2.901   9.066   0.000  0.00  0.00    +0.210 HD
ENDBRANCH  10  12
ENDBRANCH   8  10
ENDBRANCH   1   9
TORSDOF 3
REMARK  Name = molecules/SBNPWPIBESPSIF-MHWMIDJBSA-N.pdb
REMARK                            x       y       z     vdW  Elec       q    Type
REMARK                         _______ _______ _______ _____ _____    ______ ____
ROOT
ATOM      1  N   LIG    1       -0.696   5.196   0.000  0.00  0.00    -0.273 NA
ATOM      2  H   LIG    1       -0.703   6.079   0.000  0.00  0.00    +0.137 HD
ATOM      3  H   LIG    1       -1.251   5.699   0.000  0.00  0.00    +0.137 HD
ENDROOT
TORSDOF 0
REMARK  Name = molecules/SBNPWPIBESPSIF-MHWMIDJBSA-N.pdb
REMARK                            x       y       z     vdW  Elec       q    Type
REMARK                         _______ _______ _______ _____ _____    ______ ____
ROOT
ATOM      1  C   LIG    1        3.402   5.598   0.000  0.00  0.00    +0.000 C 
ENDROOT
TORSDOF 0
REMARK  Name = molecules/SBNPWPIBESPSIF-MHWMIDJBSA-N.pdb
REMARK                            x       y       z     vdW  Elec       q    Type
REMARK                         _______ _______ _______ _____ _____    ______ ____
ROOT
ATOM      1  N   LIG    1        0.402   8.196   0.000  0.00  0.00    -0.152 NA
ATOM      2  C   LIG    1       -0.147   7.647   0.000  0.00  0.00    +0.091 C 
ATOM      3  C   LIG    1       -0.348   6.897   0.000  0.00  0.00    +0.061 C 
ENDROOT
TORSDOF 0
REMARK  Name = molecules/SBNPWPIBESPSIF-MHWMIDJBSA-N.pdb
REMARK                            x       y       z     vdW  Elec       q    Type
REMARK                         _______ _______ _______ _____ _____    ______ ____
ROOT
ATOM      1  N   LIG    1        0.951   4.647   0.000  0.00  0.00    -0.255 NA
ATOM      2  C   LIG    1        0.054   3.897   0.000  0.00  0.00    +0.115 C 
ATOM      3  H   LIG    1        1.548   4.949   0.000  0.00  0.00    +0.141 HD
ENDROOT
TORSDOF 0
REMARK  Name = molecules/SBNPWPIBESPSIF-MHWMIDJBSA-N.pdb
REMARK                            x       y       z     vdW  Elec       q    Type
REMARK                         _______ _______ _______ _____ _____    ______ ____
ROOT
ATOM      1  C   LIG    1        6.549   5.745   0.000  0.00  0.00    +0.000 C 
ENDROOT
TORSDOF 0
REMARK  Name = molecules/SBNPWPIBESPSIF-MHWMIDJBSA-N.pdb
REMARK                            x       y       z     vdW  Elec       q    Type
REMARK                         _______ _______ _______ _____ _____    ______ ____
ROOT
ATOM      1  C   LIG    1        2.451   6.147   0.000  0.00  0.00    +0.174 C 
ATOM      2  O   LIG    1        3.156   5.973   0.000  0.00  0.00    -0.356 OA
ATOM      3  C   LIG    1        3.000   5.196   0.000  0.00  0.00    +0.182 C 
ENDROOT
TORSDOF 0
REMARK  Name = molecules/SBNPWPIBESPSIF-MHWMIDJBSA-N.pdb
REMARK                            x       y       z     vdW  Elec       q    Type
REMARK                         _______ _______ _______ _____ _____    ______ ____
ROOT
ATOM      1  C   LIG    1        4.701  12.642   0.000  0.00  0.00    +0.241 C 
ATOM      2  O   LIG    1        4.884  11.153   0.000  0.00  0.00    -0.273 OA
ATOM      3  N   LIG    1        6.000  13.392   0.000  0.00  0.00    -0.288 N 
ATOM      4  C   LIG    1        6.157  14.884   0.000  0.00  0.00    +0.164 C 
ATOM      5  C   LIG    1        7.624  15.196   0.000  0.00  0.00    +0.025 C 
ATOM      6  C   LIG    1        8.374  13.897   0.000  0.00  0.00    +0.025 C 
ATOM      7  C   LIG    1        7.370  12.782   0.000  0.00  0.00    +0.109 C 
ENDROOT
BRANCH   4   8
ATOM      8  C   LIG    1        6.000  16.376   0.000  0.00  0.00    +0.205 C 
ATOM      9  N   LIG    1        4.630  16.986   0.000  0.00  0.00    -0.241 NA
BRANCH   9  10
ATOM     10  C   LIG    1        4.473  18.478   0.000  0.00  0.00    +0.194 C 
ATOM     11  C   LIG    1        2.981  18.321   0.000  0.00  0.00    +0.043 C 
BRANCH  10  12
ATOM     12  C   LIG    1        5.965  18.635   0.000  0.00  0.00    +0.276 C 
ATOM     13  O   LIG    1        7.114  17.670   0.000  0.00  0.00    -0.270 OA
ATOM     14  N   LIG    1        6.575  20.005   0.000  0.00  0.00    -0.086 NA
ENDBRANCH  10  12
ENDBRANCH   9  10
BRANCH   8  15
ATOM     15  O   LIG    1        7.213  17.258   0.000  0.00  0.00    -0.494 OA
ATOM     16  H   LIG    1        7.519  16.692   0.000  0.00  0.00    +0.293 HD
ENDBRANCH   8  15
ENDBRANCH   4   8
BRANCH   1  17
ATOM     17  C   LIG    1        3.402  13.392   0.000  0.00  0.00    +0.195 C 
BRANCH  17  18
ATOM     18  N   LIG    1        2.652  12.093   0.000  0.00  0.00    -0.234 NA
ATOM     19  C   LIG    1        3.402  10.794   0.000  0.00  0.00    +0.272 C 
BRANCH  19  20
ATOM     20  O   LIG    1        4.891  10.611   0.000  0.00  0.00    -0.489 OA
ATOM     21  H   LIG    1        5.250   9.495   0.000  0.00  0.00    +0.294 HD
ENDBRANCH  19  20
ENDBRANCH  17  18
BRANCH  17  22
ATOM     22  C   LIG    1        2.103  14.142   0.000  0.00  0.00    +0.039 C 
BRANCH  22  23
ATOM     23  C   LIG    1        0.804  14.892   0.000  0.00  0.00    +0.043 C 
BRANCH  23  24
ATOM     24  C   LIG    1       -0.495  15.642   0.000  0.00  0.00    +0.244 C 
BRANCH  24  25
ATOM     25  N   LIG    1       -1.794  16.392   0.000  0.00  0.00    -0.102 NA
BRANCH  25  26
ATOM     26  C   LIG    1       -1.794  17.892   0.000  0.00  0.00    +0.534 C 
ATOM     27  N   LIG    1       -3.093  18.642   0.000  0.00  0.00    +0.135 NA
ATOM     28  N   LIG    1       -0.495  18.642   0.000  0.00  0.00    +0.135 NA
ENDBRANCH  25  26
ENDBRANCH  24  25
ENDBRANCH  23  24
ENDBRANCH  22  23
ENDBRANCH  17  22
ENDBRANCH   1  17
TORSDOF 12
REMARK  Name = molecules/SBNPWPIBESPSIF-MHWMIDJBSA-N.pdb
REMARK                            x       y       z     vdW  Elec       q    Type
REMARK                         _______ _______ _______ _____ _____    ______ ____
ROOT
ATOM      1  O   HOH    1       -2.845   9.648   0.000  0.00  0.00    -0.253 OA
ATOM      2  H   HOH    0       -2.207  10.575   0.000  0.00  0.00    +0.253 HD
ENDROOT
TORSDOF 0
REMARK  Name = molecules/SBNPWPIBESPSIF-MHWMIDJBSA-N.pdb
REMARK                            x       y       z     vdW  Elec       q    Type
REMARK                         _______ _______ _______ _____ _____    ______ ____
ROOT
ATOM      1  C   LIG    1       -0.348   9.495   0.000  0.00  0.00    -0.000 C 
ENDROOT
TORSDOF 0
REMARK  Name = molecules/SBNPWPIBESPSIF-MHWMIDJBSA-N.pdb
REMARK                            x       y       z     vdW  Elec       q    Type
REMARK                         _______ _______ _______ _____ _____    ______ ____
ROOT
ATOM      1  N   LIG    1       -1.647   7.245   0.000  0.00  0.00    -0.273 NA
ATOM      2  H   LIG    1       -1.189   6.568   0.000  0.00  0.00    +0.137 HD
ATOM      3  H   LIG    1       -2.689   6.568   0.000  0.00  0.00    +0.137 HD
ENDROOT
TORSDOF 0
REMARK  Name = molecules/SBNPWPIBESPSIF-MHWMIDJBSA-N.pdb
REMARK                            x       y       z     vdW  Elec       q    Type
REMARK                         _______ _______ _______ _____ _____    ______ ____
ROOT
ATOM      1  C   LIG    1       -2.196   5.196   0.000  0.00  0.00    +0.000 C 
ENDROOT
TORSDOF 0
REMARK  Name = molecules/SBNPWPIBESPSIF-MHWMIDJBSA-N.pdb
REMARK                            x       y       z     vdW  Elec       q    Type
REMARK                         _______ _______ _______ _____ _____    ______ ____
ROOT
ATOM      1  C   LIG    1       -3.843   3.147   0.000  0.00  0.00    +0.162 C 
ENDROOT
BRANCH   1   2
ATOM      2  C   LIG    1       -5.142   2.397   0.000  0.00  0.00    +0.029 C 
ATOM      3  C   LIG    1       -5.142   0.897   0.000  0.00  0.00    +0.058 C 
ATOM      4 CL   LIG    1       -6.441   0.147   0.000  0.00  0.00    -0.082 Cl
ENDBRANCH   1   2
BRANCH   1   5
ATOM      5  O   LIG    1       -2.946   3.897   0.000  0.00  0.00    -0.384 OA
ATOM      6  H   LIG    1       -2.287   4.226   0.000  0.00  0.00    +0.211 HD
ENDBRANCH   1   5
BRANCH   1   7
ATOM      7  C   LIG    1       -2.544   2.397   0.000  0.00  0.00    +0.012 C 
ATOM      8  C   LIG    1       -2.544   0.897   0.000  0.00  0.00    -0.036 C 
BRANCH   8   9
ATOM      9  C   LIG    1       -1.500   0.000   0.000  0.00  0.00    +0.025 C 
ATOM     10  C   LIG    1       -0.750   1.299   0.000  0.00  0.00    +0.005 C 
ENDBRANCH   8   9
ENDBRANCH   1   7
TORSDOF 4
REMARK  Name = molecules/SBNPWPIBESPSIF-MHWMIDJBSA-N.pdb
REMARK                            x       y       z     vdW  Elec       q    Type
REMARK                         _______ _______ _______ _____ _____    ______ ____
ROOT
ATOM      1  C   LIG    1       -1.245   3.147   0.000  0.00  0.00    +0.000 C 
ENDROOT
TORSDOF 0
REMARK  Name = molecules/SBNPWPIBESPSIF-MHWMIDJBSA-N.pdb
REMARK                            x       y       z     vdW  Elec       q    Type
REMARK                         _______ _______ _______ _____ _____    ______ ____
ROOT
ATOM      1  C   LIG    1       -3.843   0.147   0.000  0.00  0.00    +0.000 C 
ENDROOT
TORSDOF 0
REMARK  Name = molecules/SBNPWPIBESPSIF-MHWMIDJBSA-N.pdb
REMARK                            x       y       z     vdW  Elec       q    Type
REMARK                         _______ _______ _______ _____ _____    ______ ____
ROOT
ATOM      1  C   LIG    1        1.353   4.647   0.000  0.00  0.00    +0.000 C 
ENDROOT
TORSDOF 0
REMARK  Name = molecules/SBNPWPIBESPSIF-MHWMIDJBSA-N.pdb
REMARK                            x       y       z     vdW  Elec       q    Type
REMARK                         _______ _______ _______ _____ _____    ______ ____
ROOT
ATOM      1  O   LIG    1        2.795   4.234   0.000  0.00  0.00    -0.279 OA
ATOM      2  C   LIG    1        2.250   3.897   0.000  0.00  0.00    +0.279 C 
ENDROOT
TORSDOF 0
REMARK  Name = molecules/SBNPWPIBESPSIF-MHWMIDJBSA-N.pdb
REMARK                            x       y       z     vdW  Elec       q    Type
REMARK                         _______ _______ _______ _____ _____    ______ ____
ROOT
ATOM      1  C   LIG    1        2.652   6.897   0.000  0.00  0.00    +0.000 C 
ENDROOT
TORSDOF 0
REMARK  Name = molecules/SBNPWPIBESPSIF-MHWMIDJBSA-N.pdb
REMARK                            x       y       z     vdW  Elec       q    Type
REMARK                         _______ _______ _______ _____ _____    ______ ____
ROOT
ATOM      1  N   LIG    1        1.353   6.147   0.000  0.00  0.00    -0.163 NA
ATOM      2  H   LIG    1        0.346   6.275   0.000  0.00  0.00    +0.163 HD
ENDROOT
TORSDOF 0
REMARK  Name = molecules/SBNPWPIBESPSIF-MHWMIDJBSA-N.pdb
REMARK                            x       y       z     vdW  Elec       q    Type
REMARK                         _______ _______ _______ _____ _____    ______ ____
ROOT
ATOM      1  C   LIG    1        1.902   8.196   0.000  0.00  0.00    +0.000 C 
ENDROOT
TORSDOF 0
REMARK  Name = molecules/SBNPWPIBESPSIF-MHWMIDJBSA-N.pdb
REMARK                            x       y       z     vdW  Elec       q    Type
REMARK                         _______ _______ _______ _____ _____    ______ ____
ROOT
ATOM      1  O   HOH    1        2.315   9.638   0.000  0.00  0.00    -0.410 OA
ATOM      2  H   HOH    0        1.454  10.398   0.000  0.00  0.00    +0.205 HD
ATOM      3  H   HOH    0        1.107   9.468   0.000  0.00  0.00    +0.205 HD
ENDROOT
TORSDOF 0
REMARK  Name = molecules/SBNPWPIBESPSIF-MHWMIDJBSA-N.pdb
REMARK                            x       y       z     vdW  Elec       q    Type
REMARK                         _______ _______ _______ _____ _____    ______ ____
ROOT
ATOM      1  C   LIG    1        0.951   6.147   0.000  0.00  0.00    +0.010 C 
ATOM      2  C   LIG    1        1.152   6.897   0.000  0.00  0.00    -0.010 C 
ENDROOT
TORSDOF 0
REMARK  Name = molecules/SBNPWPIBESPSIF-MHWMIDJBSA-N.pdb
REMARK                            x       y       z     vdW  Elec       q    Type
REMARK                         _______ _______ _______ _____ _____    ______ ____
ROOT
ATOM      1  O   LIG    1        2.450   6.199   0.000  0.00  0.00    +0.000 OA
ATOM      2  O   LIG    1        2.948   6.695   0.000  0.00  0.00    +0.000 OA
ENDROOT
TORSDOF 0
REMARK  Name = molecules/SBNPWPIBESPSIF-MHWMIDJBSA-N.pdb
REMARK                            x       y       z     vdW  Elec       q    Type
REMARK                         _______ _______ _______ _____ _____    ______ ____
ROOT
ATOM      1  C   LIG    1        1.500   2.598   0.000  0.00  0.00    +0.000 C 
ENDROOT
TORSDOF 0
REMARK  Name = molecules/SBNPWPIBESPSIF-MHWMIDJBSA-N.pdb
REMARK                            x       y       z     vdW  Elec       q    Type
REMARK                         _______ _______ _______ _____ _____    ______ ____
ROOT
ATOM      1  C   LIG    1        0.750   1.299   0.000  0.00  0.00    +0.021 C 
ATOM      2  C   LIG    1        1.500   0.000   0.000  0.00  0.00    -0.017 C 
ATOM      3  C   LIG    1        0.750  -1.299   0.000  0.00  0.00    -0.004 C 
ENDROOT
TORSDOF 0
REMARK  Name = molecules/SBNPWPIBESPSIF-MHWMIDJBSA-N.pdb
REMARK                            x       y       z     vdW  Elec       q    Type
REMARK                         _______ _______ _______ _____ _____    ______ ____
ROOT
ATOM      1  C   LIG    1       -0.750  -1.299   0.000  0.00  0.00    +0.225 C 
ATOM      2  O   LIG    1       -1.500  -2.598   0.000  0.00  0.00    -0.225 OA
ENDROOT
TORSDOF 0
REMARK  Name = molecules/SBNPWPIBESPSIF-MHWMIDJBSA-N.pdb
REMARK                            x       y       z     vdW  Elec       q    Type
REMARK                         _______ _______ _______ _____ _____    ______ ____
ROOT
ATOM      1  C   LIG    1        5.250   6.495   0.000  0.00  0.00    +0.000 C 
ENDROOT
TORSDOF 0
REMARK  Name = molecules/SBNPWPIBESPSIF-MHWMIDJBSA-N.pdb
REMARK                            x       y       z     vdW  Elec       q    Type
REMARK                         _______ _______ _______ _____ _____    ______ ____
ROOT
ATOM      1  N   LIG    1        4.500   5.196   0.000  0.00  0.00    -0.252 NA
ATOM      2  C   LIG    1        5.652   4.299   0.000  0.00  0.00    +0.142 C 
ENDROOT
BRANCH   1   3
ATOM      3  C   LIG    1        4.152   4.299   0.000  0.00  0.00    +0.084 C 
ATOM      4  C   LIG    1        3.402   3.000   0.000  0.00  0.00    +0.026 C 
ENDBRANCH   1   3
TORSDOF 1
REMARK  Name = molecules/SBNPWPIBESPSIF-MHWMIDJBSA-N.pdb
REMARK                            x       y       z     vdW  Elec       q    Type
REMARK                         _______ _______ _______ _____ _____    ______ ____
ROOT
ATOM      1  C   LIG    1        3.951   7.245   0.000  0.00  0.00    -0.000 C 
ENDROOT
TORSDOF 0
REMARK  Name = molecules/SBNPWPIBESPSIF-MHWMIDJBSA-N.pdb
REMARK                            x       y       z     vdW  Elec       q    Type
REMARK                         _______ _______ _______ _____ _____    ______ ____
ROOT
ATOM      1  C   LIG    1        1.902   8.196   0.000  0.00  0.00    +0.005 C 
ATOM      2  C   LIG    1        2.652   9.495   0.000  0.00  0.00    -0.005 C 
ENDROOT
TORSDOF 0
REMARK  Name = molecules/SBNPWPIBESPSIF-MHWMIDJBSA-N.pdb
REMARK                            x       y       z     vdW  Elec       q    Type
REMARK                         _______ _______ _______ _____ _____    ______ ____
ROOT
ATOM      1  N   LIG    1        3.951   8.745   0.000  0.00  0.00    +0.000 NA
ENDROOT
TORSDOF 0
REMARK  Name = molecules/SBNPWPIBESPSIF-MHWMIDJBSA-N.pdb
REMARK                            x       y       z     vdW  Elec       q    Type
REMARK                         _______ _______ _______ _____ _____    ______ ____
ROOT
ATOM      1  C   LIG    1       -3.696  10.392   0.000  0.00  0.00    +0.000 C 
ENDROOT
TORSDOF 0
REMARK  Name = molecules/SBNPWPIBESPSIF-MHWMIDJBSA-N.pdb
REMARK                            x       y       z     vdW  Elec       q    Type
REMARK                         _______ _______ _______ _____ _____    ______ ____
ROOT
ATOM      1  C   LIG    1        6.402   3.000   0.000  0.00  0.00    +0.000 C 
ENDROOT
TORSDOF 0
REMARK  Name = molecules/SBNPWPIBESPSIF-MHWMIDJBSA-N.pdb
REMARK                            x       y       z     vdW  Elec       q    Type
REMARK                         _______ _______ _______ _____ _____    ______ ____
ROOT
ATOM      1  C   LIG    1        5.652   1.701   0.000  0.00  0.00    +0.000 C 
ENDROOT
TORSDOF 0
REMARK  Name = molecules/SBNPWPIBESPSIF-MHWMIDJBSA-N.pdb
REMARK                            x       y       z     vdW  Elec       q    Type
REMARK                         _______ _______ _______ _____ _____    ______ ____
ROOT
ATOM      1  N   LIG    1        4.152   1.701   0.000  0.00  0.00    -0.163 NA
ATOM      2  H   LIG    1        3.329   2.855   0.000  0.00  0.00    +0.163 HD
ENDROOT
TORSDOF 0
REMARK  Name = molecules/SBNPWPIBESPSIF-MHWMIDJBSA-N.pdb
REMARK                            x       y       z     vdW  Elec       q    Type
REMARK                         _______ _______ _______ _____ _____    ______ ____
ROOT
ATOM      1  C   LIG    1        7.848   4.995   0.000  0.00  0.00    +0.000 C 
ENDROOT
TORSDOF 0
REMARK  Name = molecules/SBNPWPIBESPSIF-MHWMIDJBSA-N.pdb
REMARK                            x       y       z     vdW  Elec       q    Type
REMARK                         _______ _______ _______ _____ _____    ______ ____
ROOT
ATOM      1  C   LIG    1       10.446   1.995   0.000  0.00  0.00    +0.362 C 
ATOM      2  N   LIG    1       11.745   1.245   0.000  0.00  0.00    -0.068 NA
ATOM      3  O   LIG    1        9.147   1.245   0.000  0.00  0.00    -0.247 OA
ENDROOT
BRANCH   1   5
ATOM      4  C   LIG    1        9.147   4.245   0.000  0.00  0.00    +0.129 C 
ATOM      5  N   LIG    1       10.446   3.495   0.000  0.00  0.00    -0.176 NA
ENDBRANCH   1   5
TORSDOF 1
REMARK  Name = molecules/SBNPWPIBESPSIF-MHWMIDJBSA-N.pdb
REMARK                            x       y       z     vdW  Elec       q    Type
REMARK                         _______ _______ _______ _____ _____    ______ ____
ROOT
ATOM      1  H   UNK    1        0.167   9.678   0.000  0.00  0.00    +0.000 HD
ENDROOT
TORSDOF 0
REMARK  Name = molecules/SBNPWPIBESPSIF-MHWMIDJBSA-N.pdb
REMARK                            x       y       z     vdW  Elec       q    Type
REMARK                         _______ _______ _______ _____ _____    ______ ____
ROOT
ATOM      1  H   UNK    1        1.163  11.910   0.000  0.00  0.00    +0.000 HD
ENDROOT
TORSDOF 0
REMARK  Name = molecules/SBNPWPIBESPSIF-MHWMIDJBSA-N.pdb
REMARK                            x       y       z     vdW  Elec       q    Type
REMARK                         _______ _______ _______ _____ _____    ______ ____
ROOT
ATOM      1  H   UNK    1        8.067  20.162   0.000  0.00  0.00    +0.000 HD
ENDROOT
TORSDOF 0
REMARK  Name = molecules/SBNPWPIBESPSIF-MHWMIDJBSA-N.pdb
REMARK                            x       y       z     vdW  Elec       q    Type
REMARK                         _______ _______ _______ _____ _____    ______ ____
ROOT
ATOM      1  H   UNK    1        5.693  21.218   0.000  0.00  0.00    +0.000 HD
ENDROOT
TORSDOF 0
REMARK  Name = molecules/SBNPWPIBESPSIF-MHWMIDJBSA-N.pdb
REMARK                            x       y       z     vdW  Elec       q    Type
REMARK                         _______ _______ _______ _____ _____    ______ ____
ROOT
ATOM      1  H   UNK    1        0.850  10.398   0.000  0.00  0.00    +0.000 HD
ENDROOT
TORSDOF 0
REMARK  Name = molecules/SBNPWPIBESPSIF-MHWMIDJBSA-N.pdb
REMARK                            x       y       z     vdW  Elec       q    Type
REMARK                         _______ _______ _______ _____ _____    ______ ____
ROOT
ATOM      1  H   UNK    1       -1.098  10.794   0.000  0.00  0.00    +0.000 HD
ENDROOT
TORSDOF 0
REMARK  Name = molecules/SBNPWPIBESPSIF-MHWMIDJBSA-N.pdb
REMARK                            x       y       z     vdW  Elec       q    Type
REMARK                         _______ _______ _______ _____ _____    ______ ____
ROOT
ATOM      1  H   UNK    1        0.065   8.053   0.000  0.00  0.00    +0.000 HD
ENDROOT
TORSDOF 0
REMARK  Name = molecules/SBNPWPIBESPSIF-MHWMIDJBSA-N.pdb
REMARK                            x       y       z     vdW  Elec       q    Type
REMARK                         _______ _______ _______ _____ _____    ______ ____
ROOT
ATOM      1  H   UNK    1       -0.832   1.705   0.000  0.00  0.00    +0.000 HD
ENDROOT
TORSDOF 0
REMARK  Name = molecules/SBNPWPIBESPSIF-MHWMIDJBSA-N.pdb
REMARK                            x       y       z     vdW  Elec       q    Type
REMARK                         _______ _______ _______ _____ _____    ______ ____
ROOT
ATOM      1  H   UNK    1       -3.843  -1.353   0.000  0.00  0.00    +0.000 HD
ENDROOT
TORSDOF 0
REMARK  Name = molecules/SBNPWPIBESPSIF-MHWMIDJBSA-N.pdb
REMARK                            x       y       z     vdW  Elec       q    Type
REMARK                         _______ _______ _______ _____ _____    ______ ____
ROOT
ATOM      1  H   UNK    1       -1.234   9.089   0.000  0.00  0.00    +0.000 HD
ENDROOT
TORSDOF 0
REMARK  Name = molecules/SBNPWPIBESPSIF-MHWMIDJBSA-N.pdb
REMARK                            x       y       z     vdW  Elec       q    Type
REMARK                         _______ _______ _______ _____ _____    ______ ____
ROOT
ATOM      1  H   UNK    1       -0.750  -3.897   0.000  0.00  0.00    +0.000 HD
ENDROOT
TORSDOF 0
REMARK  Name = molecules/SBNPWPIBESPSIF-MHWMIDJBSA-N.pdb
REMARK                            x       y       z     vdW  Elec       q    Type
REMARK                         _______ _______ _______ _____ _____    ______ ____
ROOT
ATOM      1  H   UNK    1        6.000   7.794   0.000  0.00  0.00    +0.000 HD
ENDROOT
TORSDOF 0
REMARK  Name = molecules/SBNPWPIBESPSIF-MHWMIDJBSA-N.pdb
REMARK                            x       y       z     vdW  Elec       q    Type
REMARK                         _______ _______ _______ _____ _____    ______ ____
ROOT
ATOM      1  H   UNK    1       -3.093  15.642   0.000  0.00  0.00    +0.000 HD
ENDROOT
TORSDOF 0
REMARK  Name = molecules/SBNPWPIBESPSIF-MHWMIDJBSA-N.pdb
REMARK                            x       y       z     vdW  Elec       q    Type
REMARK                         _______ _______ _______ _____ _____    ______ ____
ROOT
ATOM      1  H   UNK    1       -0.495  20.142   0.000  0.00  0.00    +0.000 HD
ENDROOT
TORSDOF 0
REMARK  Name = molecules/SBNPWPIBESPSIF-MHWMIDJBSA-N.pdb
REMARK                            x       y       z     vdW  Elec       q    Type
REMARK                         _______ _______ _______ _____ _____    ______ ____
ROOT
ATOM      1  H   UNK    1        0.703  17.740   0.000  0.00  0.00    +0.000 HD
ENDROOT
TORSDOF 0
REMARK  Name = molecules/SBNPWPIBESPSIF-MHWMIDJBSA-N.pdb
REMARK                            x       y       z     vdW  Elec       q    Type
REMARK                         _______ _______ _______ _____ _____    ______ ____
ROOT
ATOM      1  H   UNK    1       -3.093  20.142   0.000  0.00  0.00    +0.000 HD
ENDROOT
TORSDOF 0
REMARK  Name = molecules/SBNPWPIBESPSIF-MHWMIDJBSA-N.pdb
REMARK                            x       y       z     vdW  Elec       q    Type
REMARK                         _______ _______ _______ _____ _____    ______ ____
ROOT
ATOM      1  H   UNK    1        3.416  16.104   0.000  0.00  0.00    +0.000 HD
ENDROOT
TORSDOF 0
REMARK  Name = molecules/SBNPWPIBESPSIF-MHWMIDJBSA-N.pdb
REMARK                            x       y       z     vdW  Elec       q    Type
REMARK                         _______ _______ _______ _____ _____    ______ ____
ROOT
ATOM      1  H   UNK    1        7.891   2.817   0.000  0.00  0.00    +0.000 HD
ENDROOT
TORSDOF 0
REMARK  Name = molecules/SBNPWPIBESPSIF-MHWMIDJBSA-N.pdb
REMARK                            x       y       z     vdW  Elec       q    Type
REMARK                         _______ _______ _______ _____ _____    ______ ____
ROOT
ATOM      1  H   UNK    1        8.598   6.294   0.000  0.00  0.00    +0.000 HD
ENDROOT
TORSDOF 0
REMARK  Name = molecules/SBNPWPIBESPSIF-MHWMIDJBSA-N.pdb
REMARK                            x       y       z     vdW  Elec       q    Type
REMARK                         _______ _______ _______ _____ _____    ______ ____
ROOT
ATOM      1  H   UNK    1       11.745   4.245   0.000  0.00  0.00    +0.000 HD
ENDROOT
TORSDOF 0
REMARK  Name = molecules/SBNPWPIBESPSIF-MHWMIDJBSA-N.pdb
REMARK                            x       y       z     vdW  Elec       q    Type
REMARK                         _______ _______ _______ _____ _____    ______ ____
ROOT
ATOM      1  H   UNK    1       11.745  -0.255   0.000  0.00  0.00    +0.000 HD
ENDROOT
TORSDOF 0
REMARK  Name = molecules/SBNPWPIBESPSIF-MHWMIDJBSA-N.pdb
REMARK                            x       y       z     vdW  Elec       q    Type
REMARK                         _______ _______ _______ _____ _____    ______ ____
ROOT
ATOM      1  H   UNK    1       13.044   1.995   0.000  0.00  0.00    +0.000 HD
ENDROOT
TORSDOF 0
