REMARK  Name = molecules/SBUJHOSQTJFQJX-NOAMYHISSA-N.pdb
REMARK                            x       y       z     vdW  Elec       q    Type
REMARK                         _______ _______ _______ _____ _____    ______ ____
ROOT
ATOM      1  C   LIG    1        1.252  -1.612   0.806  0.00  0.00    +0.169 C 
ATOM      2  C   LIG    1        1.168  -2.394   2.093  0.00  0.00    +0.084 C 
ATOM      3  C   LIG    1       -0.247  -2.928   2.319  0.00  0.00    +0.042 C 
ATOM      4  C   LIG    1       -1.147  -1.750   1.940  0.00  0.00    +0.084 C 
ATOM      5  C   LIG    1       -1.244  -1.775   0.457  0.00  0.00    +0.169 C 
ATOM      6  C   LIG    1        0.123  -1.923  -0.142  0.00  0.00    +0.175 C 
ENDROOT
BRANCH   4   7
ATOM      7  N   LIG    1       -2.396  -1.976   2.624  0.00  0.00    -0.325 NA
ATOM      8  H   LIG    1       -2.183  -1.947   3.654  0.00  0.00    +0.119 HD
ATOM      9  H   LIG    1       -2.771  -2.921   2.376  0.00  0.00    +0.119 HD
ENDBRANCH   4   7
BRANCH   2  10
ATOM     10  N   LIG    1        2.036  -3.560   2.089  0.00  0.00    -0.325 NA
ATOM     11  H   LIG    1        2.994  -3.214   1.844  0.00  0.00    +0.119 HD
ATOM     12  H   LIG    1        1.728  -4.275   1.368  0.00  0.00    +0.119 HD
ENDBRANCH   2  10
BRANCH   6  13
ATOM     13  O   LIG    1        0.359  -3.229  -0.625  0.00  0.00    -0.387 OA
ATOM     14  H   LIG    1       -0.543  -3.621  -0.767  0.00  0.00    +0.210 HD
ENDBRANCH   6  13
BRANCH   5  15
ATOM     15  O   LIG    1       -1.857  -0.680  -0.103  0.00  0.00    -0.341 OA
BRANCH  15  16
ATOM     16  C   LIG    1       -2.978  -0.934  -0.851  0.00  0.00    +0.282 C 
ATOM     17  O   LIG    1       -4.054  -0.368  -0.201  0.00  0.00    -0.342 OA
ATOM     18  C   LIG    1       -4.126   0.986  -0.211  0.00  0.00    +0.166 C 
ATOM     19  C   LIG    1       -3.678   1.698  -1.436  0.00  0.00    +0.176 C 
ATOM     20  C   LIG    1       -2.670   1.002  -2.274  0.00  0.00    +0.179 C 
ATOM     21  C   LIG    1       -2.919  -0.464  -2.264  0.00  0.00    +0.201 C 
BRANCH  21  22
ATOM     22  O   LIG    1       -2.038  -1.186  -3.061  0.00  0.00    -0.384 OA
ATOM     23  H   LIG    1       -2.143  -2.132  -2.862  0.00  0.00    +0.210 HD
ENDBRANCH  21  22
BRANCH  20  24
ATOM     24  O   LIG    1       -2.728   1.419  -3.624  0.00  0.00    -0.386 OA
ATOM     25  H   LIG    1       -2.244   0.728  -4.139  0.00  0.00    +0.210 HD
ENDBRANCH  20  24
BRANCH  19  26
ATOM     26  O   LIG    1       -3.276   3.018  -1.122  0.00  0.00    -0.387 OA
ATOM     27  H   LIG    1       -3.192   3.098  -0.136  0.00  0.00    +0.210 HD
ENDBRANCH  19  26
BRANCH  18  28
ATOM     28  C   LIG    1       -5.518   1.457   0.238  0.00  0.00    +0.112 C 
BRANCH  28  29
ATOM     29  N   LIG    1       -5.807   0.996   1.583  0.00  0.00    -0.328 NA
ATOM     30  H   LIG    1       -5.093   1.371   2.241  0.00  0.00    +0.118 HD
ATOM     31  H   LIG    1       -6.781   1.268   1.796  0.00  0.00    +0.118 HD
ENDBRANCH  28  29
ENDBRANCH  18  28
ENDBRANCH  15  16
ENDBRANCH   5  15
BRANCH   1  32
ATOM     32  O   LIG    1        1.341  -0.261   0.947  0.00  0.00    -0.341 OA
BRANCH  32  33
ATOM     33  C   LIG    1        2.516   0.305   0.453  0.00  0.00    +0.281 C 
ATOM     34  C   LIG    1        3.371   0.949   1.495  0.00  0.00    +0.189 C 
ATOM     35  C   LIG    1        4.051   2.215   1.032  0.00  0.00    +0.116 C 
ATOM     36  C   LIG    1        4.453   1.987  -0.409  0.00  0.00    +0.165 C 
ATOM     37  C   LIG    1        3.173   1.843  -1.172  0.00  0.00    +0.177 C 
ATOM     38  O   LIG    1        2.217   1.069  -0.637  0.00  0.00    -0.341 OA
BRANCH  35  39
ATOM     39  N   LIG    1        5.272   2.411   1.802  0.00  0.00    -0.323 NA
ATOM     40  H   LIG    1        5.097   2.463   2.824  0.00  0.00    +0.119 HD
ATOM     41  H   LIG    1        5.772   3.278   1.521  0.00  0.00    +0.119 HD
ENDBRANCH  35  39
BRANCH  36  42
ATOM     42  O   LIG    1        5.149   3.106  -0.901  0.00  0.00    -0.388 OA
ATOM     43  H   LIG    1        5.476   2.898  -1.811  0.00  0.00    +0.210 HD
ENDBRANCH  36  42
BRANCH  34  44
ATOM     44  O   LIG    1        2.633   1.288   2.631  0.00  0.00    -0.385 OA
ATOM     45  H   LIG    1        1.719   1.561   2.317  0.00  0.00    +0.210 HD
ENDBRANCH  34  44
BRANCH  37  46
ATOM     46  C   LIG    1        3.519   1.254  -2.549  0.00  0.00    +0.190 C 
BRANCH  46  47
ATOM     47  O   LIG    1        3.981  -0.067  -2.368  0.00  0.00    -0.392 OA
ATOM     48  H   LIG    1        4.967  -0.122  -2.466  0.00  0.00    +0.210 HD
ENDBRANCH  46  47
ENDBRANCH  37  46
ENDBRANCH  32  33
ENDBRANCH   1  32
TORSDOF 17
