REMARK  Name = molecules/SCKYRAXSEDYPSA-UHFFFAOYSA-N.pdb
REMARK                            x       y       z     vdW  Elec       q    Type
REMARK                         _______ _______ _______ _____ _____    ______ ____
ROOT
ATOM      1  N   LIG    1        1.461  -1.445  -0.774  0.00  0.00    -0.151 N 
ATOM      2  C   LIG    1        0.697  -0.488  -0.230  0.00  0.00    +0.065 A 
ATOM      3  C   LIG    1        1.341   0.505   0.482  0.00  0.00    +0.028 A 
ATOM      4  C   LIG    1        2.717   0.526   0.637  0.00  0.00    -0.043 A 
ATOM      5  C   LIG    1        3.383   1.599   1.404  0.00  0.00    +0.044 C 
ATOM      6  C   LIG    1        3.477  -0.470   0.067  0.00  0.00    +0.076 A 
ATOM      7  C   LIG    1        2.781  -1.452  -0.644  0.00  0.00    +0.284 A 
ATOM      8  O   LIG    1        3.448  -2.365  -1.169  0.00  0.00    -0.265 OA
ENDROOT
BRANCH   2   9
ATOM      9  C   LIG    1       -0.772  -0.529  -0.408  0.00  0.00    +0.039 C 
ATOM     10  C   LIG    1       -1.482  -0.664   0.899  0.00  0.00    +0.010 C 
ATOM     11  C   LIG    1       -2.857  -0.172   0.983  0.00  0.00    +0.001 C 
ATOM     12  C   LIG    1       -3.274   0.863  -0.018  0.00  0.00    +0.000 C 
ATOM     13  C   LIG    1       -2.730   0.515  -1.399  0.00  0.00    +0.001 C 
ATOM     14  C   LIG    1       -1.229   0.651  -1.230  0.00  0.00    +0.010 C 
ENDBRANCH   2   9
BRANCH   1  15
ATOM     15  O   LIG    1        0.871  -2.472  -1.504  0.00  0.00    -0.423 OA
ATOM     16  H   LIG    1        1.134  -2.552  -2.495  0.00  0.00    +0.326 HD
ENDBRANCH   1  15
TORSDOF 2
