REMARK  Name = molecules/SDEAXTCZPQIFQM-UHFFFAOYSA-N.pdb
REMARK                            x       y       z     vdW  Elec       q    Type
REMARK                         _______ _______ _______ _____ _____    ______ ____
ROOT
ATOM      1  N   LIG    1       -1.649   2.791  -2.377  0.00  0.00    -0.235 NA
ATOM      2  C   LIG    1       -2.342   1.863  -1.692  0.00  0.00    +0.076 A 
ATOM      3  C   LIG    1       -1.673   0.773  -1.135  0.00  0.00    +0.042 A 
ATOM      4  C   LIG    1       -2.402  -0.165  -0.441  0.00  0.00    +0.036 A 
ATOM      5  C   LIG    1       -3.789  -0.073  -0.269  0.00  0.00    +0.031 A 
ATOM      6  C   LIG    1       -4.409   1.016  -0.833  0.00  0.00    +0.025 A 
ATOM      7  C   LIG    1       -0.298   0.630  -1.277  0.00  0.00    +0.134 A 
ATOM      8  N   LIG    1        0.319   1.583  -1.965  0.00  0.00    -0.220 NA
ATOM      9  C   LIG    1       -3.711   1.976  -1.535  0.00  0.00    +0.030 A 
ATOM     10  C   LIG    1       -0.323   2.633  -2.502  0.00  0.00    +0.223 A 
ENDROOT
BRANCH   5  11
ATOM     11  N   LIG    1       -4.455  -1.082   0.453  0.00  0.00    -0.298 N 
ATOM     12  H   LIG    1       -3.913  -1.872   0.847  0.00  0.00    +0.150 HD
BRANCH  11  13
ATOM     13  C   LIG    1       -5.861  -1.054   0.663  0.00  0.00    +0.271 C 
ATOM     14  N   LIG    1       -6.458  -0.651   1.716  0.00  0.00    -0.177 NA
ATOM     15  C   LIG    1       -7.875  -0.783   1.538  0.00  0.00    +0.059 C 
ATOM     16  C   LIG    1       -8.369  -2.046   2.216  0.00  0.00    +0.031 C 
ATOM     17  C   LIG    1       -8.541   0.451   2.107  0.00  0.00    +0.031 C 
ATOM     18  C   LIG    1       -8.050  -0.904   0.061  0.00  0.00    +0.187 C 
ATOM     19  O   LIG    1       -6.777  -1.480  -0.290  0.00  0.00    -0.336 OA
ENDBRANCH  11  13
ENDBRANCH   5  11
BRANCH   7  20
ATOM     20  N   LIG    1        0.376  -0.460  -0.735  0.00  0.00    -0.299 N 
ATOM     21  H   LIG    1       -0.159  -1.212  -0.204  0.00  0.00    +0.154 HD
BRANCH  20  22
ATOM     22  C   LIG    1        1.766  -0.656  -0.832  0.00  0.00    +0.033 A 
ATOM     23  C   LIG    1        2.317  -1.916  -0.509  0.00  0.00    +0.027 A 
ATOM     24  C   LIG    1        3.661  -2.176  -0.562  0.00  0.00    +0.048 A 
ATOM     25  C   LIG    1        4.555  -1.199  -0.942  0.00  0.00    +0.131 A 
ATOM     26  C   LIG    1        4.062   0.045  -1.266  0.00  0.00    -0.006 A 
ATOM     27  C   LIG    1        4.974   1.154  -1.707  0.00  0.00    +0.047 C 
ATOM     28  C   LIG    1        2.676   0.286  -1.202  0.00  0.00    +0.030 A 
BRANCH  25  29
ATOM     29  O   LIG    1        5.918  -1.447  -1.001  0.00  0.00    -0.456 OA
BRANCH  29  30
ATOM     30  C   LIG    1        6.861  -0.787  -0.242  0.00  0.00    +0.133 A 
ATOM     31  C   LIG    1        6.580   0.122   0.754  0.00  0.00    +0.094 A 
ATOM     32  C   LIG    1        7.588   0.755   1.488  0.00  0.00    +0.159 A 
ATOM     33  N   LIG    1        7.553   1.657   2.485  0.00  0.00    -0.215 NA
ATOM     34  C   LIG    1        8.831   1.917   2.814  0.00  0.00    +0.246 A 
ATOM     35  N   LIG    1        9.661   1.195   2.043  0.00  0.00    -0.154 NA
ATOM     36  N   LIG    1        8.872   0.490   1.238  0.00  0.00    -0.220 N 
ATOM     37  C   LIG    1        9.158  -0.395   0.268  0.00  0.00    +0.118 A 
ATOM     38  C   LIG    1        8.214  -1.039  -0.475  0.00  0.00    +0.066 A 
ENDBRANCH  29  30
ENDBRANCH  25  29
ENDBRANCH  20  22
ENDBRANCH   7  20
TORSDOF 6
