REMARK  Name = molecules/SDUQYLNIPVEERB-QPPQHZFASA-N.pdb
REMARK                            x       y       z     vdW  Elec       q    Type
REMARK                         _______ _______ _______ _____ _____    ______ ____
ROOT
ATOM      1  F   LIG    1       -0.603   2.524  -0.414  0.00  0.00    -0.198 F 
ATOM      2  C   LIG    1       -0.859   1.210  -0.741  0.00  0.00    +0.321 C 
ATOM      3  C   LIG    1       -0.279   0.228   0.222  0.00  0.00    +0.296 C 
ATOM      4  O   LIG    1       -1.050  -0.913  -0.038  0.00  0.00    -0.342 OA
ATOM      5  C   LIG    1       -2.338  -0.399   0.137  0.00  0.00    +0.181 C 
ATOM      6  C   LIG    1       -2.355   0.945  -0.544  0.00  0.00    +0.219 C 
ATOM      7  F   LIG    1       -0.518   0.967  -2.041  0.00  0.00    -0.198 F 
ENDROOT
BRANCH   3   8
ATOM      8  N   LIG    1        1.116   0.016   0.115  0.00  0.00    -0.267 N 
ATOM      9  C   LIG    1        1.931   0.529   1.056  0.00  0.00    +0.097 A 
ATOM     10  C   LIG    1        3.279   0.357   1.004  0.00  0.00    +0.061 A 
ATOM     11  C   LIG    1        3.801  -0.365  -0.050  0.00  0.00    +0.123 A 
ATOM     12  N   LIG    1        2.957  -0.855  -0.958  0.00  0.00    -0.178 NA
ATOM     13  C   LIG    1        1.624  -0.680  -0.900  0.00  0.00    +0.352 A 
ATOM     14  O   LIG    1        0.904  -1.190  -1.821  0.00  0.00    -0.244 OA
BRANCH  11  15
ATOM     15  N   LIG    1        5.202  -0.564  -0.135  0.00  0.00    -0.343 N 
ATOM     16  H   LIG    1        5.837  -0.212   0.596  0.00  0.00    +0.144 HD
ATOM     17  H   LIG    1        5.624  -1.072  -0.943  0.00  0.00    +0.144 HD
ENDBRANCH  11  15
ENDBRANCH   3   8
BRANCH   6  18
ATOM     18  O   LIG    1       -2.848   1.889   0.376  0.00  0.00    -0.383 OA
ATOM     19  H   LIG    1       -2.727   1.533   1.310  0.00  0.00    +0.210 HD
ENDBRANCH   6  18
BRANCH   5  20
ATOM     20  C   LIG    1       -3.396  -1.322  -0.402  0.00  0.00    +0.190 C 
BRANCH  20  21
ATOM     21  O   LIG    1       -3.180  -1.509  -1.749  0.00  0.00    -0.392 OA
ATOM     22  H   LIG    1       -3.926  -1.097  -2.281  0.00  0.00    +0.210 HD
ENDBRANCH  20  21
ENDBRANCH   5  20
TORSDOF 5
