REMARK  Name = molecules/SEALOBQTUQIVGU-QNIJNHAOSA-N.pdb
REMARK                            x       y       z     vdW  Elec       q    Type
REMARK                         _______ _______ _______ _____ _____    ______ ____
ROOT
ATOM      1  C   LIG    1       -3.535  -0.793  -0.590  0.00  0.00    +0.269 C 
ATOM      2  N   LIG    1       -3.261  -0.588   0.813  0.00  0.00    -0.233 N 
ATOM      3  C   LIG    1       -4.151   0.249   1.566  0.00  0.00    +0.170 C 
ATOM      4  C   LIG    1       -5.402   0.555   0.783  0.00  0.00    +0.237 C 
ATOM      5  O   LIG    1       -6.049   1.586   1.131  0.00  0.00    -0.274 OA
ATOM      6  N   LIG    1       -5.821  -0.278  -0.285  0.00  0.00    -0.290 N 
ATOM      7  C   LIG    1       -6.998  -0.275  -1.098  0.00  0.00    +0.108 C 
ATOM      8  C   LIG    1       -6.849  -1.468  -2.035  0.00  0.00    +0.021 C 
ATOM      9  C   LIG    1       -5.340  -1.740  -2.047  0.00  0.00    +0.031 C 
ATOM     10  C   LIG    1       -2.095  -1.337   1.098  0.00  0.00    +0.271 C 
ATOM     11  O   LIG    1       -1.562  -1.515   2.221  0.00  0.00    -0.270 OA
ATOM     12  C   LIG    1       -1.624  -1.873  -0.191  0.00  0.00    +0.220 C 
ATOM     13  C   LIG    1       -4.948  -1.349  -0.673  0.00  0.00    +0.156 C 
ATOM     14  O   LIG    1       -2.672  -1.716  -1.096  0.00  0.00    -0.298 OA
ENDROOT
BRANCH  12  15
ATOM     15  N   LIG    1       -0.476  -1.119  -0.621  0.00  0.00    -0.280 N 
ATOM     16  C   LIG    1        0.704  -1.052   0.134  0.00  0.00    +0.220 C 
ATOM     17  O   LIG    1        0.846  -1.637   1.231  0.00  0.00    -0.275 OA
ATOM     18  H   LIG    1       -0.522  -0.595  -1.542  0.00  0.00    +0.152 HD
BRANCH  16  19
ATOM     19  C   LIG    1        1.845  -0.265  -0.362  0.00  0.00    +0.090 C 
ATOM     20  C   LIG    1        3.058  -0.332   0.546  0.00  0.00    +0.023 C 
ATOM     21  C   LIG    1        4.181   0.324  -0.177  0.00  0.00    +0.038 C 
ATOM     22  C   LIG    1        5.452   0.385   0.588  0.00  0.00    -0.033 A 
ATOM     23  C   LIG    1        5.748  -0.392   1.684  0.00  0.00    +0.004 A 
ATOM     24  C   LIG    1        6.994  -0.206   2.280  0.00  0.00    +0.002 A 
ATOM     25  C   LIG    1        7.919   0.719   1.805  0.00  0.00    +0.026 A 
ATOM     26  C   LIG    1        7.621   1.510   0.691  0.00  0.00    +0.047 A 
ATOM     27  N   LIG    1        8.261   2.469  -0.008  0.00  0.00    -0.360 N 
ATOM     28  H   LIG    1        9.220   2.828   0.199  0.00  0.00    +0.165 HD
ATOM     29  C   LIG    1        7.409   2.853  -1.008  0.00  0.00    +0.087 A 
ATOM     30  C   LIG    1        6.242   2.129  -0.926  0.00  0.00    -0.021 A 
ATOM     31  C   LIG    1        4.955   2.083  -1.704  0.00  0.00    +0.056 C 
ATOM     32  C   LIG    1        6.383   1.286   0.146  0.00  0.00    +0.006 A 
ATOM     33  C   LIG    1        3.866   1.685  -0.700  0.00  0.00    +0.068 C 
ATOM     34  N   LIG    1        2.606   1.739  -1.413  0.00  0.00    -0.301 NA
ATOM     35  C   LIG    1        2.279   3.156  -1.597  0.00  0.00    +0.105 C 
ATOM     36  C   LIG    1        1.527   1.193  -0.573  0.00  0.00    +0.097 C 
ENDBRANCH  16  19
ENDBRANCH  12  15
BRANCH   3  37
ATOM     37  C   LIG    1       -3.578   1.539   2.043  0.00  0.00    +0.012 C 
ATOM     38  C   LIG    1       -2.388   1.411   2.948  0.00  0.00    +0.009 C 
ATOM     39  C   LIG    1       -3.242   2.511   0.942  0.00  0.00    +0.009 C 
ENDBRANCH   3  37
BRANCH  12  40
ATOM     40  C   LIG    1       -1.228  -3.333  -0.094  0.00  0.00    +0.043 C 
ATOM     41  C   LIG    1       -2.415  -4.198   0.281  0.00  0.00    +0.012 C 
ATOM     42  C   LIG    1       -0.794  -3.765  -1.480  0.00  0.00    +0.012 C 
ENDBRANCH  12  40
BRANCH   1  43
ATOM     43  O   LIG    1       -3.459   0.406  -1.296  0.00  0.00    -0.348 OA
ATOM     44  H   LIG    1       -2.853   0.333  -2.070  0.00  0.00    +0.214 HD
ENDBRANCH   1  43
TORSDOF 5
