REMARK  Name = molecules/SECKRCOLJRRGGV-UHFFFAOYSA-N.pdb
REMARK                            x       y       z     vdW  Elec       q    Type
REMARK                         _______ _______ _______ _____ _____    ______ ____
ROOT
ATOM      1  C   LIG    1       -0.546   0.080   1.046  0.00  0.00    +0.062 A 
ATOM      2  C   LIG    1        0.576   0.578   1.683  0.00  0.00    +0.043 A 
ATOM      3  C   LIG    1        1.563  -0.248   2.231  0.00  0.00    +0.106 A 
ATOM      4  C   LIG    1        1.437  -1.613   2.146  0.00  0.00    +0.032 A 
ATOM      5  C   LIG    1        0.315  -2.099   1.509  0.00  0.00    +0.048 A 
ATOM      6  C   LIG    1       -0.654  -1.311   0.971  0.00  0.00    +0.131 A 
ENDROOT
BRANCH   1  10
ATOM      7  C   LIG    1       -4.816   0.649  -1.229  0.00  0.00    +0.132 A 
ATOM      8  N   LIG    1       -3.672   1.014  -0.635  0.00  0.00    -0.210 N 
ATOM      9  N   LIG    1       -2.660   0.326  -0.088  0.00  0.00    -0.146 NA
ATOM     10  C   LIG    1       -1.587   0.907   0.466  0.00  0.00    +0.165 A 
ATOM     11  N   LIG    1       -1.474   2.240   0.500  0.00  0.00    -0.304 N 
ATOM     12  H   LIG    1       -0.635   2.745   0.930  0.00  0.00    +0.170 HD
ATOM     13  C   LIG    1       -2.462   2.977  -0.035  0.00  0.00    +0.278 A 
ATOM     14  O   LIG    1       -2.353   4.224  -0.002  0.00  0.00    -0.265 OA
ATOM     15  C   LIG    1       -3.550   2.358  -0.597  0.00  0.00    +0.152 A 
ATOM     16  C   LIG    1       -4.703   2.856  -1.211  0.00  0.00    +0.071 A 
ATOM     17  C   LIG    1       -5.053   4.282  -1.423  0.00  0.00    +0.068 C 
ATOM     18  N   LIG    1       -5.437   1.798  -1.577  0.00  0.00    -0.235 NA
BRANCH   7  19
ATOM     19  C   LIG    1       -5.333  -0.741  -1.472  0.00  0.00    +0.076 C 
BRANCH  19  21
ATOM     20  C   LIG    1       -6.752  -2.473  -0.317  0.00  0.00    +0.004 C 
ATOM     21  C   LIG    1       -6.146  -1.110  -0.256  0.00  0.00    +0.004 C 
ENDBRANCH  19  21
ENDBRANCH   7  19
ENDBRANCH   1  10
BRANCH   3  22
ATOM     22  S   LIG    1        2.958   0.418   3.026  0.00  0.00    +0.061 S 
ATOM     23  O   LIG    1        3.400  -0.566   4.082  0.00  0.00    -0.153 OA
ATOM     24  O   LIG    1        2.645   1.722   3.698  0.00  0.00    -0.153 OA
BRANCH  22  25
ATOM     25  N   LIG    1        4.287   0.666   1.965  0.00  0.00    -0.174 NA
ATOM     26  C   LIG    1        4.743  -0.577   1.379  0.00  0.00    +0.125 C 
ATOM     27  C   LIG    1        6.088  -0.266   0.724  0.00  0.00    +0.101 C 
ATOM     28  N   LIG    1        5.955   0.849  -0.192  0.00  0.00    -0.300 NA
ATOM     29  C   LIG    1        4.584   1.234  -0.407  0.00  0.00    +0.101 C 
ATOM     30  C   LIG    1        3.993   1.646   0.941  0.00  0.00    +0.125 C 
BRANCH  28  31
ATOM     31  C   LIG    1        6.615   0.488  -1.414  0.00  0.00    +0.081 C 
ATOM     32  C   LIG    1        8.119   0.410  -1.132  0.00  0.00    +0.020 C 
ENDBRANCH  28  31
ENDBRANCH  22  25
ENDBRANCH   3  22
BRANCH   6  33
ATOM     33  O   LIG    1       -1.768  -1.844   0.336  0.00  0.00    -0.492 OA
BRANCH  33  34
ATOM     34  C   LIG    1       -1.839  -3.277   0.281  0.00  0.00    +0.226 C 
ATOM     35  C   LIG    1       -3.115  -3.624  -0.446  0.00  0.00    +0.048 C 
ENDBRANCH  33  34
ENDBRANCH   6  33
TORSDOF 8
