REMARK  Name = molecules/SEDQWOMFMIJKCU-UHFFFAOYSA-N.pdb
REMARK                            x       y       z     vdW  Elec       q    Type
REMARK                         _______ _______ _______ _____ _____    ______ ____
ROOT
ATOM      1  C   LIG    1       -0.809  -0.061  -0.370  0.00  0.00    +0.146 C 
ATOM      2  C   LIG    1       -1.350   1.136   0.102  0.00  0.00    -0.013 A 
ATOM      3  C   LIG    1       -2.628   1.444   0.544  0.00  0.00    -0.038 A 
ATOM      4  C   LIG    1       -2.953   2.715   0.983  0.00  0.00    +0.004 A 
ATOM      5  C   LIG    1       -1.980   3.669   0.971  0.00  0.00    +0.000 A 
ATOM      6  C   LIG    1       -0.690   3.371   0.525  0.00  0.00    +0.000 A 
ATOM      7  C   LIG    1       -3.737   0.647   0.628  0.00  0.00    +0.035 C 
ATOM      8  C   LIG    1       -3.930  -0.538  -0.091  0.00  0.00    +0.035 C 
ATOM      9  C   LIG    1       -2.950  -1.423  -0.508  0.00  0.00    -0.038 A 
ATOM     10  C   LIG    1       -3.497  -2.662  -0.824  0.00  0.00    +0.004 A 
ATOM     11  C   LIG    1       -2.672  -3.649  -1.266  0.00  0.00    +0.000 A 
ATOM     12  C   LIG    1       -1.310  -3.456  -1.412  0.00  0.00    +0.000 A 
ATOM     13  C   LIG    1       -0.781  -2.228  -1.098  0.00  0.00    +0.006 A 
ATOM     14  C   LIG    1       -0.397   2.102   0.097  0.00  0.00    +0.006 A 
ATOM     15  C   LIG    1       -1.608  -1.206  -0.643  0.00  0.00    -0.013 A 
ENDROOT
BRANCH   1  16
ATOM     16  N   LIG    1        0.345  -0.152  -0.557  0.00  0.00    -0.077 NA
BRANCH  16  17
ATOM     17  O   LIG    1        1.591  -0.290  -0.773  0.00  0.00    -0.278 OA
BRANCH  17  18
ATOM     18  C   LIG    1        2.611  -0.143   0.213  0.00  0.00    +0.202 C 
BRANCH  18  19
ATOM     19  C   LIG    1        3.955  -0.530  -0.416  0.00  0.00    +0.110 C 
BRANCH  19  20
ATOM     20  N   LIG    1        5.060  -0.429   0.463  0.00  0.00    -0.317 NA
ATOM     21  H   LIG    1        5.050  -1.114   1.250  0.00  0.00    +0.122 HD
ATOM     22  C   LIG    1        5.489   0.865   0.869  0.00  0.00    +0.101 C 
ENDBRANCH  19  20
ENDBRANCH  18  19
ENDBRANCH  17  18
ENDBRANCH  16  17
ENDBRANCH   1  16
TORSDOF 5
