REMARK  Name = molecules/SEEPANYCNGTZFQ-UHFFFAOYSA-N.pdb
REMARK                            x       y       z     vdW  Elec       q    Type
REMARK                         _______ _______ _______ _____ _____    ______ ____
ROOT
ATOM      1  S   LIG    1       -0.293   0.460   2.306  0.00  0.00    +0.075 S 
ATOM      2  O   LIG    1        0.232   0.191   3.697  0.00  0.00    -0.150 OA
ATOM      3  O   LIG    1       -0.930   1.828   2.365  0.00  0.00    -0.150 OA
ENDROOT
BRANCH   1   7
ATOM      4  C   LIG    1        2.994   0.305  -0.785  0.00  0.00    +0.025 A 
ATOM      5  C   LIG    1        2.990  -0.582   0.260  0.00  0.00    +0.024 A 
ATOM      6  C   LIG    1        1.996  -0.535   1.185  0.00  0.00    +0.030 A 
ATOM      7  C   LIG    1        0.965   0.391   1.118  0.00  0.00    +0.109 A 
ATOM      8  C   LIG    1        0.966   1.278   0.078  0.00  0.00    +0.030 A 
ATOM      9  C   LIG    1        1.984   1.235  -0.878  0.00  0.00    +0.024 A 
BRANCH   4  10
ATOM     10  N   LIG    1        4.034   0.251  -1.748  0.00  0.00    -0.358 N 
ATOM     11  H   LIG    1        4.747   0.998  -1.792  0.00  0.00    +0.142 HD
ATOM     12  H   LIG    1        4.071  -0.551  -2.409  0.00  0.00    +0.142 HD
ENDBRANCH   4  10
ENDBRANCH   1   7
BRANCH   1  13
ATOM     13  N   LIG    1       -1.495  -0.705   1.931  0.00  0.00    -0.184 N 
ATOM     14  H   LIG    1       -1.700  -1.488   2.615  0.00  0.00    +0.177 HD
BRANCH  13  15
ATOM     15  C   LIG    1       -2.213  -0.625   0.713  0.00  0.00    +0.235 A 
ATOM     16  N   LIG    1       -3.163  -1.528   0.391  0.00  0.00    -0.222 NA
ATOM     17  C   LIG    1       -3.859  -1.482  -0.751  0.00  0.00    +0.116 A 
ATOM     18  C   LIG    1       -3.583  -0.457  -1.630  0.00  0.00    +0.039 A 
ATOM     19  C   LIG    1       -2.609   0.497  -1.335  0.00  0.00    +0.116 A 
ATOM     20  N   LIG    1       -1.972   0.355  -0.164  0.00  0.00    -0.222 NA
ENDBRANCH  13  15
ENDBRANCH   1  13
TORSDOF 4
