REMARK  Name = molecules/SESFRYSPDFLNCH-UHFFFAOYSA-N.pdb
REMARK                            x       y       z     vdW  Elec       q    Type
REMARK                         _______ _______ _______ _____ _____    ______ ____
ROOT
ATOM      1  C   LIG    1       -1.270  -1.069   0.167  0.00  0.00    +0.339 C 
ATOM      2  O   LIG    1       -1.376  -2.318   0.249  0.00  0.00    -0.245 OA
ENDROOT
BRANCH   1   3
ATOM      3  C   LIG    1       -2.507  -0.281   0.264  0.00  0.00    +0.059 A 
ATOM      4  C   LIG    1       -3.735  -0.867   0.437  0.00  0.00    +0.015 A 
ATOM      5  C   LIG    1       -4.881  -0.090   0.525  0.00  0.00    +0.001 A 
ATOM      6  C   LIG    1       -4.768   1.284   0.435  0.00  0.00    +0.000 A 
ATOM      7  C   LIG    1       -3.546   1.906   0.260  0.00  0.00    +0.001 A 
ATOM      8  C   LIG    1       -2.430   1.097   0.178  0.00  0.00    +0.015 A 
ENDBRANCH   1   3
BRANCH   1   9
ATOM      9  O   LIG    1       -0.036  -0.463  -0.008  0.00  0.00    -0.456 OA
BRANCH   9  10
ATOM     10  C   LIG    1        1.090  -1.316  -0.089  0.00  0.00    +0.268 C 
BRANCH  10  11
ATOM     11  C   LIG    1        2.346  -0.566  -0.275  0.00  0.00    -0.010 A 
ATOM     12  C   LIG    1        2.442   0.796  -0.362  0.00  0.00    +0.007 A 
ATOM     13  C   LIG    1        3.654   1.463  -0.538  0.00  0.00    +0.000 A 
ATOM     14  C   LIG    1        4.809   0.719  -0.628  0.00  0.00    +0.000 A 
ATOM     15  C   LIG    1        4.741  -0.658  -0.543  0.00  0.00    +0.000 A 
ATOM     16  C   LIG    1        3.515  -1.294  -0.368  0.00  0.00    +0.007 A 
ENDBRANCH  10  11
ENDBRANCH   9  10
ENDBRANCH   1   9
TORSDOF 4
