REMARK  Name = molecules/SFBODOKJTYAUCM-UHFFFAOYSA-N.pdb
REMARK                            x       y       z     vdW  Elec       q    Type
REMARK                         _______ _______ _______ _____ _____    ______ ____
ROOT
ATOM      1  O   LIG    1       -2.230  -1.843   0.894  0.00  0.00    -0.286 OA
ATOM      2  C   LIG    1       -1.658  -0.883   0.319  0.00  0.00    +0.200 A 
ATOM      3  C   LIG    1       -0.280  -0.794   0.413  0.00  0.00    +0.065 A 
ATOM      4  C   LIG    1        0.410  -1.743   1.121  0.00  0.00    +0.019 A 
ATOM      5  C   LIG    1        1.791  -1.621   1.193  0.00  0.00    +0.046 A 
ATOM      6  C   LIG    1        2.459  -0.590   0.581  0.00  0.00    +0.124 A 
ATOM      7  C   LIG    1        1.729   0.334  -0.115  0.00  0.00    +0.092 A 
ATOM      8  C   LIG    1        0.344   0.259  -0.219  0.00  0.00    +0.142 A 
ATOM      9  O   LIG    1       -0.345   1.155  -0.892  0.00  0.00    -0.462 OA
ATOM     10  C   LIG    1       -1.651   1.110  -1.007  0.00  0.00    +0.208 A 
ATOM     11  C   LIG    1       -2.324   0.079  -0.395  0.00  0.00    +0.064 A 
ENDROOT
BRANCH  11  12
ATOM     12  C   LIG    1       -3.772   0.013  -0.513  0.00  0.00    -0.011 A 
ATOM     13  C   LIG    1       -4.534  -0.255   0.600  0.00  0.00    +0.009 A 
ATOM     14  C   LIG    1       -5.919  -0.324   0.520  0.00  0.00    +0.001 A 
ATOM     15  C   LIG    1       -6.572  -0.126  -0.680  0.00  0.00    +0.000 A 
ATOM     16  C   LIG    1       -5.806   0.142  -1.790  0.00  0.00    +0.001 A 
ATOM     17  C   LIG    1       -4.427   0.213  -1.720  0.00  0.00    +0.009 A 
ENDBRANCH  11  12
BRANCH   6  18
ATOM     18  O   LIG    1        3.801  -0.521   0.684  0.00  0.00    -0.489 OA
BRANCH  18  19
ATOM     19  C   LIG    1        4.720   0.378   0.188  0.00  0.00    +0.167 C 
ATOM     20  C   LIG    1        5.378   1.082   1.377  0.00  0.00    +0.051 C 
ATOM     21  C   LIG    1        5.790  -0.228  -0.679  0.00  0.00    +0.051 C 
ENDBRANCH  18  19
ENDBRANCH   6  18
TORSDOF 3
