REMARK  Name = molecules/SFLSHLFXELFNJZ-QMMMGPOBSA-N.pdb
REMARK                            x       y       z     vdW  Elec       q    Type
REMARK                         _______ _______ _______ _____ _____    ______ ____
ROOT
ATOM      1  C   LIG    1        0.110  -0.093   0.387  0.00  0.00    -0.014 A 
ATOM      2  C   LIG    1       -0.821   0.773   0.930  0.00  0.00    +0.055 A 
ATOM      3  C   LIG    1       -2.159   0.672   0.629  0.00  0.00    +0.159 A 
ATOM      4  C   LIG    1       -2.561  -0.322  -0.236  0.00  0.00    +0.158 A 
ATOM      5  C   LIG    1       -1.638  -1.184  -0.778  0.00  0.00    +0.049 A 
ATOM      6  C   LIG    1       -0.295  -1.095  -0.485  0.00  0.00    +0.010 A 
ENDROOT
BRANCH   3   7
ATOM      7  O   LIG    1       -3.091   1.544   1.177  0.00  0.00    -0.503 OA
ATOM      8  H   LIG    1       -4.067   1.445   0.938  0.00  0.00    +0.292 HD
ENDBRANCH   3   7
BRANCH   4   9
ATOM      9  O   LIG    1       -3.908  -0.460  -0.569  0.00  0.00    -0.503 OA
ATOM     10  H   LIG    1       -4.236  -1.172  -1.195  0.00  0.00    +0.292 HD
ENDBRANCH   4   9
BRANCH   1  11
ATOM     11  C   LIG    1        1.559   0.009   0.707  0.00  0.00    +0.158 C 
BRANCH  11  12
ATOM     12  O   LIG    1        2.105  -1.223   0.975  0.00  0.00    -0.386 OA
ATOM     13  H   LIG    1        1.450  -1.956   0.890  0.00  0.00    +0.210 HD
ENDBRANCH  11  12
BRANCH  11  14
ATOM     14  C   LIG    1        2.268   0.641  -0.474  0.00  0.00    +0.114 C 
BRANCH  14  15
ATOM     15  N   LIG    1        3.671   0.822  -0.223  0.00  0.00    -0.327 NA
ATOM     16  H   LIG    1        3.854   1.572   0.474  0.00  0.00    +0.118 HD
ATOM     17  H   LIG    1        4.120  -0.085   0.017  0.00  0.00    +0.118 HD
ENDBRANCH  14  15
ENDBRANCH  11  14
ENDBRANCH   1  11
TORSDOF 6
