REMARK  Name = molecules/SFNSLLSYNZWZQG-VQIMIIECSA-N.pdb
REMARK                            x       y       z     vdW  Elec       q    Type
REMARK                         _______ _______ _______ _____ _____    ______ ____
ROOT
ATOM      1  C   LIG    1        0.489   0.845   1.277  0.00  0.00    +0.078 C 
ATOM      2  C   LIG    1        0.007   0.982   2.695  0.00  0.00    +0.038 C 
ATOM      3  C   LIG    1       -1.117   1.982   2.708  0.00  0.00    +0.086 C 
ATOM      4  N   LIG    1       -2.321   1.363   2.162  0.00  0.00    -0.296 NA
ATOM      5  C   LIG    1       -2.914   0.589   3.235  0.00  0.00    +0.105 C 
ATOM      6  C   LIG    1       -1.984   0.531   1.035  0.00  0.00    +0.124 C 
ATOM      7  C   LIG    1       -0.700   1.011   0.360  0.00  0.00    +0.049 C 
ENDROOT
BRANCH   6   8
ATOM      8  C   LIG    1       -3.048   0.524   0.005  0.00  0.00    +0.126 A 
ATOM      9  N   LIG    1       -3.737   1.566  -0.496  0.00  0.00    -0.341 N 
ATOM     10  H   LIG    1       -3.602   2.562  -0.208  0.00  0.00    +0.167 HD
ATOM     11  C   LIG    1       -4.625   1.143  -1.423  0.00  0.00    +0.066 A 
ATOM     12  C   LIG    1       -4.481  -0.231  -1.501  0.00  0.00    +0.089 A 
ATOM     13  C   LIG    1       -5.288  -0.910  -2.389  0.00  0.00    +0.030 A 
ATOM     14  C   LIG    1       -6.216  -0.276  -3.187  0.00  0.00    +0.002 A 
ATOM     15  C   LIG    1       -6.352   1.099  -3.101  0.00  0.00    +0.002 A 
ATOM     16  C   LIG    1       -5.560   1.810  -2.222  0.00  0.00    +0.028 A 
ATOM     17  N   LIG    1       -3.516  -0.563  -0.621  0.00  0.00    -0.231 NA
ENDBRANCH   6   8
BRANCH   1  20
ATOM     18  N   LIG    1        3.331  -1.486   0.362  0.00  0.00    -0.269 N 
ATOM     19  C   LIG    1        2.611  -0.313   0.599  0.00  0.00    +0.304 C 
ATOM     20  N   LIG    1        1.231  -0.344   1.034  0.00  0.00    -0.296 N 
ATOM     21  H   LIG    1        0.810  -1.284   1.160  0.00  0.00    +0.151 HD
ATOM     22  O   LIG    1        3.092   0.840   0.455  0.00  0.00    -0.253 OA
ATOM     23  H   LIG    1        2.779  -2.395   0.530  0.00  0.00    +0.156 HD
BRANCH  18  26
ATOM     24  C   LIG    1        6.811  -0.716  -0.731  0.00  0.00    +0.020 A 
ATOM     25  C   LIG    1        5.497  -0.550  -0.314  0.00  0.00    +0.024 A 
ATOM     26  C   LIG    1        4.673  -1.613  -0.062  0.00  0.00    +0.035 A 
ATOM     27  C   LIG    1        5.229  -2.896  -0.247  0.00  0.00    +0.024 A 
ATOM     28  C   LIG    1        6.530  -3.064  -0.660  0.00  0.00    +0.020 A 
ATOM     29  C   LIG    1        7.342  -1.986  -0.908  0.00  0.00    +0.052 A 
BRANCH  29  30
ATOM     30  C   LIG    1        8.704  -2.165  -1.339  0.00  0.00    +0.099 C 
ATOM     31  N   LIG    1        9.795  -2.309  -1.666  0.00  0.00    -0.191 NA
ENDBRANCH  29  30
ENDBRANCH  18  26
ENDBRANCH   1  20
TORSDOF 4
