REMARK  Name = molecules/SFZCNBIFKDRMGX-UHFFFAOYSA-N.pdb
REMARK                            x       y       z     vdW  Elec       q    Type
REMARK                         _______ _______ _______ _____ _____    ______ ____
ROOT
ATOM      1  F   LIG    1        0.000   0.000   0.000  0.00  0.00    +0.000 F 
ENDROOT
TORSDOF 0
REMARK  Name = molecules/SFZCNBIFKDRMGX-UHFFFAOYSA-N.pdb
REMARK                            x       y       z     vdW  Elec       q    Type
REMARK                         _______ _______ _______ _____ _____    ______ ____
ROOT
ATOM      1  S   LIG    1        1.299   0.750   0.000  0.00  0.00    +0.149 S 
ATOM      2  F   LIG    1        2.598   1.500   0.000  0.00  0.00    -0.149 F 
ENDROOT
TORSDOF 0
REMARK  Name = molecules/SFZCNBIFKDRMGX-UHFFFAOYSA-N.pdb
REMARK                            x       y       z     vdW  Elec       q    Type
REMARK                         _______ _______ _______ _____ _____    ______ ____
ROOT
ATOM      1  F   LIG    1        1.299  -0.750   0.000  0.00  0.00    +0.000 F 
ATOM      2  F   LIG    1        2.598   0.000   0.000  0.00  0.00    +0.000 F 
ENDROOT
TORSDOF 0
REMARK  Name = molecules/SFZCNBIFKDRMGX-UHFFFAOYSA-N.pdb
REMARK                            x       y       z     vdW  Elec       q    Type
REMARK                         _______ _______ _______ _____ _____    ______ ____
ROOT
ATOM      1  F   LIG    1        1.299   2.250   0.000  0.00  0.00    +0.000 F 
ATOM      2  F   LIG    1        0.000   1.500   0.000  0.00  0.00    +0.000 F 
ENDROOT
TORSDOF 0
