REMARK  Name = molecules/SGDBTWWWUNNDEQ-LBPRGKRZSA-N.pdb
REMARK                            x       y       z     vdW  Elec       q    Type
REMARK                         _______ _______ _______ _____ _____    ______ ____
ROOT
ATOM      1  C   LIG    1       -1.087   0.250   0.081  0.00  0.00    +0.030 A 
ATOM      2  C   LIG    1       -0.264  -0.140   1.123  0.00  0.00    +0.023 A 
ATOM      3  C   LIG    1        1.090   0.005   1.124  0.00  0.00    +0.005 A 
ATOM      4  C   LIG    1        1.726   0.564   0.051  0.00  0.00    -0.045 A 
ATOM      5  C   LIG    1        0.962   0.968  -1.011  0.00  0.00    +0.005 A 
ATOM      6  C   LIG    1       -0.421   0.820  -1.009  0.00  0.00    +0.023 A 
ENDROOT
BRANCH   1   7
ATOM      7  N   LIG    1       -2.497   0.081   0.075  0.00  0.00    -0.328 N 
BRANCH   7   8
ATOM      8  C   LIG    1       -3.182  -0.370   1.238  0.00  0.00    +0.121 C 
BRANCH   8   9
ATOM      9  C   LIG    1       -3.752  -1.765   1.083  0.00  0.00    +0.127 C 
ATOM     10 CL   LIG    1       -2.464  -2.925   0.762  0.00  0.00    -0.124 Cl
ENDBRANCH   8   9
ENDBRANCH   7   8
BRANCH   7  11
ATOM     11  C   LIG    1       -3.288   0.370  -1.099  0.00  0.00    +0.121 C 
BRANCH  11  12
ATOM     12  C   LIG    1       -4.135   1.629  -0.847  0.00  0.00    +0.127 C 
ATOM     13 CL   LIG    1       -3.111   3.026  -0.468  0.00  0.00    -0.124 Cl
ENDBRANCH  11  12
ENDBRANCH   7  11
ENDBRANCH   1   7
BRANCH   4  14
ATOM     14  C   LIG    1        3.184   0.693   0.068  0.00  0.00    +0.065 C 
BRANCH  14  15
ATOM     15  CA  LIG    1        3.868  -0.569  -0.465  0.00  0.00    +0.165 C 
BRANCH  15  16
ATOM     16  N   LIG    1        3.560  -1.661   0.443  0.00  0.00    -0.318 NA
ATOM     17  H1  LIG    1        4.413  -2.127   0.782  0.00  0.00    +0.119 HD
ATOM     18  H2  LIG    1        2.840  -2.288   0.037  0.00  0.00    +0.119 HD
ENDBRANCH  15  16
BRANCH  15  19
ATOM     19  C   LIG    1        5.319  -0.297  -0.388  0.00  0.00    +0.322 C 
ATOM     20  OXT LIG    1        6.022  -0.946   0.416  0.00  0.00    -0.249 OA
BRANCH  19  21
ATOM     21  O   LIG    1        5.863   0.674  -1.210  0.00  0.00    -0.480 OA
ATOM     22  H   LIG    1        5.257   1.314  -1.697  0.00  0.00    +0.295 HD
ENDBRANCH  19  21
ENDBRANCH  15  19
ENDBRANCH  14  15
ENDBRANCH   4  14
TORSDOF 10
