REMARK  Name = molecules/SGOIRFVFHAKUTI-ZCFIWIBFSA-N.pdb
REMARK                            x       y       z     vdW  Elec       q    Type
REMARK                         _______ _______ _______ _____ _____    ______ ____
ROOT
ATOM      1  N   LIG    1        0.638   0.630   0.428  0.00  0.00    -0.312 N 
ATOM      2  C   LIG    1        0.842   0.219   1.682  0.00  0.00    +0.201 A 
ATOM      3  N   LIG    1        2.149  -0.003   1.886  0.00  0.00    -0.231 NA
ATOM      4  C   LIG    1        2.792   0.272   0.739  0.00  0.00    +0.147 A 
ATOM      5  C   LIG    1        4.132   0.215   0.393  0.00  0.00    +0.147 A 
ATOM      6  N   LIG    1        4.519   0.548  -0.842  0.00  0.00    -0.219 NA
ATOM      7  C   LIG    1        3.585   0.943  -1.754  0.00  0.00    +0.225 A 
ATOM      8  N   LIG    1        2.290   0.994  -1.409  0.00  0.00    -0.216 NA
ATOM      9  C   LIG    1        1.833   0.670  -0.176  0.00  0.00    +0.165 A 
ENDROOT
BRANCH   5  10
ATOM     10  N   LIG    1        5.096  -0.195   1.344  0.00  0.00    -0.341 N 
ATOM     11  H   LIG    1        4.939  -0.204   2.373  0.00  0.00    +0.144 HD
ATOM     12  H   LIG    1        6.047  -0.518   1.020  0.00  0.00    +0.144 HD
ENDBRANCH   5  10
BRANCH   1  13
ATOM     13  C   LIG    1       -0.605   0.982  -0.224  0.00  0.00    +0.156 C 
BRANCH  13  14
ATOM     14  C   LIG    1       -1.261  -0.210  -0.894  0.00  0.00    +0.136 C 
ATOM     15  C   LIG    1       -0.374  -0.689  -2.018  0.00  0.00    +0.040 C 
BRANCH  14  16
ATOM     16  O   LIG    1       -1.522  -1.148   0.051  0.00  0.00    -0.363 OA
BRANCH  16  17
ATOM     17  C   LIG    1       -2.820  -1.468   0.272  0.00  0.00    +0.286 C 
BRANCH  17  18
ATOM     18  P   LIG    1       -3.873  -0.121   0.807  0.00  0.00    +0.353 P 
ATOM     19  O   LIG    1       -4.079   0.938  -0.224  0.00  0.00    -0.256 OA
BRANCH  18  20
ATOM     20  O   LIG    1       -3.348   0.584   2.241  0.00  0.00    -0.323 OA
ATOM     21  H   LIG    1       -3.253   1.562   2.132  0.00  0.00    +0.220 HD
ENDBRANCH  18  20
BRANCH  18  22
ATOM     22  O   LIG    1       -5.414  -0.798   1.133  0.00  0.00    -0.323 OA
ATOM     23  H   LIG    1       -5.701  -1.298   0.323  0.00  0.00    +0.220 HD
ENDBRANCH  18  22
ENDBRANCH  17  18
ENDBRANCH  16  17
ENDBRANCH  14  16
ENDBRANCH  13  14
ENDBRANCH   1  13
TORSDOF 8
