REMARK  Name = molecules/SGRUZFCHLOFYHZ-MWLCHTKSSA-N.pdb
REMARK                            x       y       z     vdW  Elec       q    Type
REMARK                         _______ _______ _______ _____ _____    ______ ____
ROOT
ATOM      1  C   LIG    1       -0.165  -0.532  -0.546  0.00  0.00    +0.167 C 
ENDROOT
BRANCH   1   2
ATOM      2  C   LIG    1       -1.617  -0.269  -0.477  0.00  0.00    -0.017 A 
ATOM      3  C   LIG    1       -2.229   0.864  -0.066  0.00  0.00    +0.008 A 
ATOM      4  C   LIG    1       -3.605   1.001  -0.075  0.00  0.00    +0.033 A 
ATOM      5  C   LIG    1       -4.396  -0.019  -0.507  0.00  0.00    +0.126 A 
ATOM      6  C   LIG    1       -3.808  -1.182  -0.932  0.00  0.00    +0.033 A 
ATOM      7  C   LIG    1       -2.447  -1.304  -0.917  0.00  0.00    +0.008 A 
BRANCH   5   8
ATOM      8  N   LIG    1       -5.820   0.081  -0.532  0.00  0.00    +0.056 N 
ATOM      9  O   LIG    1       -6.387   1.139  -0.147  0.00  0.00    -0.126 OA
ATOM     10  O   LIG    1       -6.595  -0.946  -0.966  0.00  0.00    -0.126 OA
ENDBRANCH   5   8
ENDBRANCH   1   2
BRANCH   1  11
ATOM     11  O   LIG    1        0.239  -0.641  -1.900  0.00  0.00    -0.385 OA
ATOM     12  H   LIG    1        1.056  -1.190  -1.972  0.00  0.00    +0.210 HD
ENDBRANCH   1  11
BRANCH   1  13
ATOM     13  CA  LIG    1        0.711   0.385   0.208  0.00  0.00    +0.131 C 
BRANCH  13  14
ATOM     14  N   LIG    1        2.088  -0.150   0.043  0.00  0.00    -0.306 N 
ATOM     15  H   LIG    1        2.221  -1.158   0.278  0.00  0.00    +0.149 HD
ATOM     16  C   LIG    1        3.130   0.679  -0.405  0.00  0.00    +0.238 C 
ATOM     17  O   LIG    1        2.884   1.885  -0.667  0.00  0.00    -0.274 OA
BRANCH  16  18
ATOM     18  C   LIG    1        4.518   0.184  -0.583  0.00  0.00    +0.277 C 
BRANCH  18  19
ATOM     19  N   LIG    1        5.383   1.222  -1.047  0.00  0.00    -0.101 NA
ATOM     20  N   LIG    1        6.508   1.313  -0.553  0.00  0.00    -0.167 NA
ATOM     21  N   LIG    1        7.691   1.581  -0.435  0.00  0.00    +0.068 NA
ENDBRANCH  18  19
ENDBRANCH  16  18
ENDBRANCH  13  14
BRANCH  13  22
ATOM     22  C   LIG    1        0.401   0.171   1.709  0.00  0.00    +0.181 C 
BRANCH  22  23
ATOM     23  O   LIG    1        0.491  -1.203   1.996  0.00  0.00    -0.393 OA
ATOM     24  H   LIG    1        1.421  -1.492   2.147  0.00  0.00    +0.209 HD
ENDBRANCH  22  23
ENDBRANCH  13  22
ENDBRANCH   1  13
TORSDOF 9
