REMARK  Name = molecules/SGRYPYWGNKJSDL-UHFFFAOYSA-N.pdb
REMARK                            x       y       z     vdW  Elec       q    Type
REMARK                         _______ _______ _______ _____ _____    ______ ____
ROOT
ATOM      1  C   LIG    1       -2.925   0.476  -0.189  0.00  0.00    -0.044 A 
ATOM      2  C   LIG    1       -1.798   0.165   0.540  0.00  0.00    +0.019 A 
ATOM      3  C   LIG    1       -0.561   0.113  -0.038  0.00  0.00    +0.065 A 
ATOM      4  C   LIG    1        0.560  -0.206   0.732  0.00  0.00    +0.202 A 
ATOM      5  O   LIG    1        0.443  -0.451   1.974  0.00  0.00    -0.286 OA
ATOM      6  C   LIG    1        1.773  -0.239   0.080  0.00  0.00    +0.085 A 
ATOM      7  C   LIG    1        2.906  -0.554   0.826  0.00  0.00    +0.035 A 
ATOM      8  C   LIG    1        4.130  -0.593   0.197  0.00  0.00    +0.099 A 
ATOM      9  C   LIG    1        4.202  -0.320  -1.150  0.00  0.00    +0.134 A 
ATOM     10  N   LIG    1        3.118  -0.013  -1.887  0.00  0.00    -0.197 NA
ATOM     11  C   LIG    1        1.894   0.028  -1.268  0.00  0.00    +0.233 A 
ATOM     12  O   LIG    1        0.819   0.321  -1.943  0.00  0.00    -0.437 OA
ATOM     13  C   LIG    1       -0.361   0.367  -1.376  0.00  0.00    +0.141 A 
ATOM     14  C   LIG    1       -1.494   0.684  -2.128  0.00  0.00    +0.047 A 
ATOM     15  C   LIG    1       -2.728   0.731  -1.530  0.00  0.00    +0.007 A 
ENDROOT
BRANCH   1  17
ATOM     16  C   LIG    1       -4.328   1.656   1.426  0.00  0.00    +0.012 C 
ATOM     17  C   LIG    1       -4.276   0.541   0.402  0.00  0.00    +0.013 C 
ATOM     18  C   LIG    1       -4.725  -0.776   0.983  0.00  0.00    +0.012 C 
ENDBRANCH   1  17
BRANCH   9  19
ATOM     19  N   LIG    1        5.506  -0.377  -1.746  0.00  0.00    -0.342 N 
ATOM     20  H   LIG    1        6.204   0.393  -1.598  0.00  0.00    +0.144 HD
ATOM     21  H   LIG    1        5.805  -1.180  -2.343  0.00  0.00    +0.144 HD
ENDBRANCH   9  19
BRANCH   8  22
ATOM     22  C   LIG    1        5.316  -0.918   0.950  0.00  0.00    +0.340 C 
ATOM     23  O   LIG    1        6.446  -0.953   0.363  0.00  0.00    -0.245 OA
BRANCH  22  24
ATOM     24  O   LIG    1        5.270  -1.197   2.304  0.00  0.00    -0.477 OA
ATOM     25  H   LIG    1        5.529  -2.135   2.609  0.00  0.00    +0.295 HD
ENDBRANCH  22  24
ENDBRANCH   8  22
TORSDOF 4
