REMARK  Name = molecules/SHZKQBHERIJWAO-AATRIKPKSA-N.pdb
REMARK                            x       y       z     vdW  Elec       q    Type
REMARK                         _______ _______ _______ _____ _____    ______ ____
ROOT
ATOM      1  C   LIG    1       -1.091   0.223  -0.668  0.00  0.00    -0.028 A 
ATOM      2  C   LIG    1       -0.472   1.217   0.070  0.00  0.00    +0.006 A 
ATOM      3  C   LIG    1        0.889   1.180   0.288  0.00  0.00    +0.008 A 
ATOM      4  C   LIG    1        1.607   0.132  -0.248  0.00  0.00    -0.025 A 
ATOM      5  C   LIG    1        0.984  -0.852  -0.980  0.00  0.00    +0.008 A 
ATOM      6  C   LIG    1       -0.399  -0.835  -1.214  0.00  0.00    +0.006 A 
ENDROOT
BRANCH   4   7
ATOM      7  C   LIG    1        3.032   0.091  -0.021  0.00  0.00    +0.015 C 
ATOM      8  C   LIG    1        3.823  -0.871  -0.489  0.00  0.00    +0.092 C 
BRANCH   8   9
ATOM      9  C   LIG    1        5.234  -0.794  -0.190  0.00  0.00    +0.330 C 
ATOM     10  O   LIG    1        6.025  -1.676  -0.607  0.00  0.00    -0.246 OA
BRANCH   9  11
ATOM     11  O   LIG    1        5.753   0.246   0.558  0.00  0.00    -0.478 OA
ATOM     12  H   LIG    1        6.242   1.008   0.105  0.00  0.00    +0.295 HD
ENDBRANCH   9  11
ENDBRANCH   8   9
ENDBRANCH   4   7
BRANCH   1  13
ATOM     13  C   LIG    1       -2.550   0.313  -0.870  0.00  0.00    +0.157 C 
BRANCH  13  14
ATOM     14  N   LIG    1       -3.293  -0.373   0.194  0.00  0.00    -0.332 N 
ATOM     15  C   LIG    1       -3.704   0.201   1.333  0.00  0.00    +0.107 A 
ATOM     16  C   LIG    1       -4.369  -0.733   2.098  0.00  0.00    +0.130 A 
ATOM     17  N   LIG    1       -4.329  -1.859   1.368  0.00  0.00    -0.244 NA
ATOM     18  C   LIG    1       -3.683  -1.656   0.217  0.00  0.00    +0.199 A 
ENDBRANCH  13  14
ENDBRANCH   1  13
TORSDOF 5
