REMARK  Name = molecules/SIBQAECNSSQUOD-UHFFFAOYSA-N.pdb
REMARK                            x       y       z     vdW  Elec       q    Type
REMARK                         _______ _______ _______ _____ _____    ______ ____
ROOT
ATOM      1  S   LIG    1        1.163  -2.536   0.664  0.00  0.00    +0.073 S 
ATOM      2  O   LIG    1        1.900  -3.633   1.392  0.00  0.00    -0.150 OA
ATOM      3  O   LIG    1        0.648  -3.186  -0.604  0.00  0.00    -0.150 OA
ENDROOT
BRANCH   1   4
ATOM      4  C   LIG    1        2.301  -1.298   0.264  0.00  0.00    +0.109 A 
ATOM      5  C   LIG    1        3.123  -0.784   1.243  0.00  0.00    +0.030 A 
ATOM      6  C   LIG    1        4.059   0.182   0.886  0.00  0.00    +0.024 A 
ATOM      7  C   LIG    1        4.166   0.622  -0.430  0.00  0.00    +0.025 A 
ATOM      8  C   LIG    1        3.343   0.106  -1.405  0.00  0.00    +0.024 A 
ATOM      9  C   LIG    1        2.423  -0.853  -1.020  0.00  0.00    +0.030 A 
BRANCH   7  10
ATOM     10  N   LIG    1        5.124   1.604  -0.766  0.00  0.00    -0.358 N 
ATOM     11  H   LIG    1        6.128   1.353  -0.749  0.00  0.00    +0.142 HD
ATOM     12  H   LIG    1        4.851   2.566  -1.028  0.00  0.00    +0.142 HD
ENDBRANCH   7  10
ENDBRANCH   1   4
BRANCH   1  13
ATOM     13  N   LIG    1       -0.144  -1.934   1.578  0.00  0.00    -0.199 N 
ATOM     14  H   LIG    1       -0.303  -2.302   2.578  0.00  0.00    +0.175 HD
BRANCH  13  15
ATOM     15  C   LIG    1       -1.059  -0.970   1.122  0.00  0.00    +0.145 A 
ATOM     16  N   LIG    1       -2.022  -0.569   1.989  0.00  0.00    -0.177 NA
ATOM     17  C   LIG    1       -2.933   0.329   1.597  0.00  0.00    +0.350 A 
ATOM     18  O   LIG    1       -3.808   0.657   2.469  0.00  0.00    -0.244 OA
ATOM     19  N   LIG    1       -2.943   0.862   0.369  0.00  0.00    -0.299 N 
ATOM     20  C   LIG    1       -2.010   0.488  -0.506  0.00  0.00    +0.094 A 
ATOM     21  C   LIG    1       -1.060  -0.431  -0.138  0.00  0.00    +0.063 A 
BRANCH  19  22
ATOM     22  C   LIG    1       -3.983   1.831   0.055  0.00  0.00    +0.123 C 
ATOM     23  C   LIG    1       -5.215   1.160  -0.510  0.00  0.00    +0.027 C 
ENDBRANCH  19  22
ENDBRANCH  13  15
ENDBRANCH   1  13
TORSDOF 5
