REMARK  Name = molecules/SIDLZWOQUZRBRU-SSDOTTSWSA-N.pdb
REMARK                            x       y       z     vdW  Elec       q    Type
REMARK                         _______ _______ _______ _____ _____    ______ ____
ROOT
ATOM      1  C   LIG    1        2.051  -0.527   0.041  0.00  0.00    +0.070 C 
ATOM      2  C   LIG    1        3.252  -0.858   0.852  0.00  0.00    +0.017 C 
ATOM      3  C   LIG    1        0.849  -0.234   0.837  0.00  0.00    +0.152 C 
ATOM      4  O   LIG    1        0.917  -0.150   2.043  0.00  0.00    -0.296 OA
ATOM      5  C   LIG    1       -0.467  -0.037   0.167  0.00  0.00    +0.105 C 
ATOM      6  C   LIG    1       -0.165   0.216  -1.258  0.00  0.00    +0.226 C 
ATOM      7  N   LIG    1        1.045   0.895  -1.571  0.00  0.00    -0.314 N 
ATOM      8  H   LIG    1        1.098   1.595  -2.370  0.00  0.00    +0.149 HD
ATOM      9  O   LIG    1       -0.902  -0.127  -2.213  0.00  0.00    -0.275 OA
ATOM     10  C   LIG    1        2.289   0.701  -0.847  0.00  0.00    +0.115 C 
ENDROOT
BRANCH   5  11
ATOM     11  C   LIG    1       -1.107   1.228   0.715  0.00  0.00    +0.020 C 
ATOM     12  C   LIG    1       -2.365   1.624   0.026  0.00  0.00    +0.005 C 
ENDBRANCH   5  11
BRANCH   5  13
ATOM     13  C   LIG    1       -1.256  -1.269   0.414  0.00  0.00    +0.020 C 
ATOM     14  C   LIG    1       -2.587  -1.393  -0.200  0.00  0.00    +0.005 C 
ENDBRANCH   5  13
TORSDOF 2
