REMARK  Name = molecules/SIGSPDASOTUPFS-XUDSTZEESA-N.pdb
REMARK                            x       y       z     vdW  Elec       q    Type
REMARK                         _______ _______ _______ _____ _____    ______ ____
ROOT
ATOM      1  C   LIG    1       -2.032   0.177  -0.115  0.00  0.00    +0.021 C 
ATOM      2  C   LIG    1       -3.214  -0.442   0.663  0.00  0.00    +0.151 C 
ATOM      3  C   LIG    1       -3.207  -1.798  -0.019  0.00  0.00    +0.017 C 
ATOM      4  C   LIG    1       -1.959  -2.105  -0.360  0.00  0.00    -0.023 C 
ATOM      5  C   LIG    1       -1.401   1.339   0.497  0.00  0.00    +0.012 C 
ATOM      6  C   LIG    1        0.022   1.284   0.883  0.00  0.00    +0.005 C 
ATOM      7  C   LIG    1        0.872   0.192   0.390  0.00  0.00    -0.000 C 
ATOM      8  C   LIG    1        2.218   0.600  -0.167  0.00  0.00    +0.019 C 
ATOM      9  C   LIG    1        2.946   1.452   0.825  0.00  0.00    +0.016 C 
ATOM     10  C   LIG    1        4.330   1.815   0.324  0.00  0.00    +0.079 C 
ATOM     11  C   LIG    1        5.045   0.614  -0.108  0.00  0.00    +0.156 C 
ATOM     12  C   LIG    1        4.315  -0.659  -0.221  0.00  0.00    +0.045 C 
ATOM     13  O   LIG    1        6.262   0.608  -0.392  0.00  0.00    -0.293 OA
ATOM     14  C   LIG    1        2.996  -0.689  -0.250  0.00  0.00    -0.063 C 
ATOM     15  C   LIG    1        2.319  -1.996  -0.357  0.00  0.00    +0.031 C 
ATOM     16  C   LIG    1        0.990  -1.887  -1.023  0.00  0.00    +0.009 C 
ATOM     17  C   LIG    1        0.150  -0.732  -0.611  0.00  0.00    +0.000 C 
ATOM     18  C   LIG    1       -1.119  -1.030   0.056  0.00  0.00    +0.025 C 
ENDROOT
BRANCH   1  19
ATOM     19  C   LIG    1       -2.534   0.328  -1.511  0.00  0.00    +0.008 C 
ATOM     20  C   LIG    1       -3.424   1.534  -1.598  0.00  0.00    +0.004 C 
ENDBRANCH   1  19
BRANCH   2  21
ATOM     21  C   LIG    1       -2.950  -0.535   2.069  0.00  0.00    -0.066 C 
ATOM     22  C   LIG    1       -2.726  -0.617   3.244  0.00  0.00    +0.007 C 
ENDBRANCH   2  21
BRANCH   2  23
ATOM     23  O   LIG    1       -4.409   0.164   0.327  0.00  0.00    -0.372 OA
ATOM     24  H   LIG    1       -5.010  -0.411  -0.192  0.00  0.00    +0.212 HD
ENDBRANCH   2  23
TORSDOF 3
