REMARK  Name = molecules/SIGSNYAYBSJATD-UHFFFAOYSA-N.pdb
REMARK                            x       y       z     vdW  Elec       q    Type
REMARK                         _______ _______ _______ _____ _____    ______ ____
ROOT
ATOM      1  N   LIG    1       -0.815  -0.298  -0.645  0.00  0.00    -0.204 N 
ATOM      2  C   LIG    1       -0.271  -1.581  -0.312  0.00  0.00    +0.410 C 
ATOM      3  O   LIG    1        1.048  -1.418   0.070  0.00  0.00    -0.434 OA
ATOM      4  C   LIG    1        1.454  -0.074  -0.026  0.00  0.00    +0.185 C 
ATOM      5  C   LIG    1        1.850   0.426   1.357  0.00  0.00    +0.066 C 
ATOM      6  C   LIG    1        2.628   0.125  -0.933  0.00  0.00    +0.066 C 
ATOM      7  O   LIG    1       -0.881  -2.689  -0.353  0.00  0.00    -0.226 OA
ATOM      8  C   LIG    1        0.241   0.627  -0.443  0.00  0.00    +0.268 C 
ATOM      9  O   LIG    1        0.142   1.868  -0.601  0.00  0.00    -0.271 OA
ENDROOT
BRANCH   1  11
ATOM     10  C   LIG    1       -3.097   0.213   0.077  0.00  0.00    +0.025 C 
ATOM     11  C   LIG    1       -2.171  -0.054  -1.090  0.00  0.00    +0.116 C 
ENDBRANCH   1  11
TORSDOF 1
