REMARK  Name = molecules/SIXLXDIJGIWWFU-UHFFFAOYSA-N.pdb
REMARK                            x       y       z     vdW  Elec       q    Type
REMARK                         _______ _______ _______ _____ _____    ______ ____
ROOT
ATOM      1  S   LIG    1        0.292   0.450  -0.901  0.00  0.00    -0.088 S 
ENDROOT
BRANCH   1   2
ATOM      2  C   LIG    1        1.627  -0.841  -0.748  0.00  0.00    +0.118 C 
BRANCH   2   3
ATOM      3  C   LIG    1        2.881  -0.080  -0.469  0.00  0.00    -0.010 A 
ATOM      4  C   LIG    1        3.978  -0.787   0.025  0.00  0.00    +0.026 A 
ATOM      5  C   LIG    1        5.250  -0.291   0.008  0.00  0.00    +0.143 A 
ATOM      6  C   LIG    1        5.356   0.998  -0.555  0.00  0.00    +0.080 A 
ATOM      7  C   LIG    1        6.742   1.594  -0.539  0.00  0.00    +0.069 C 
ATOM      8  N   LIG    1        4.305   1.681  -1.028  0.00  0.00    -0.256 NA
ATOM      9  C   LIG    1        3.071   1.171  -0.995  0.00  0.00    +0.116 A 
BRANCH   5  10
ATOM     10  O   LIG    1        6.290  -0.976   0.514  0.00  0.00    -0.505 OA
ATOM     11  H   LIG    1        6.354  -1.873   0.948  0.00  0.00    +0.292 HD
ENDBRANCH   5  10
BRANCH   4  12
ATOM     12  C   LIG    1        3.600  -1.948   0.866  0.00  0.00    +0.195 C 
BRANCH  12  13
ATOM     13  O   LIG    1        4.049  -3.174   0.373  0.00  0.00    -0.390 OA
ATOM     14  H   LIG    1        3.440  -3.326  -0.477  0.00  0.00    +0.210 HD
ENDBRANCH  12  13
ENDBRANCH   4  12
ENDBRANCH   2   3
ENDBRANCH   1   2
BRANCH   1  15
ATOM     15  S   LIG    1       -0.492   0.446   1.192  0.00  0.00    -0.088 S 
BRANCH  15  16
ATOM     16  C   LIG    1       -1.955  -0.691   0.977  0.00  0.00    +0.118 C 
BRANCH  16  17
ATOM     17  C   LIG    1       -2.971   0.227   0.316  0.00  0.00    -0.010 A 
ATOM     18  C   LIG    1       -2.669   1.555   0.115  0.00  0.00    +0.116 A 
ATOM     19  N   LIG    1       -3.557   2.462  -0.319  0.00  0.00    -0.256 NA
ATOM     20  C   LIG    1       -4.793   2.017  -0.545  0.00  0.00    +0.080 A 
ATOM     21  C   LIG    1       -5.185   0.690  -0.363  0.00  0.00    +0.143 A 
ATOM     22  C   LIG    1       -5.816   2.971  -1.025  0.00  0.00    +0.069 C 
ATOM     23  C   LIG    1       -4.223  -0.214   0.070  0.00  0.00    +0.026 A 
BRANCH  21  24
ATOM     24  O   LIG    1       -6.490   0.367  -0.607  0.00  0.00    -0.505 OA
ATOM     25  H   LIG    1       -6.844  -0.510  -0.051  0.00  0.00    +0.292 HD
ENDBRANCH  21  24
BRANCH  23  26
ATOM     26  C   LIG    1       -4.435  -1.639  -0.144  0.00  0.00    +0.195 C 
BRANCH  26  27
ATOM     27  O   LIG    1       -4.099  -2.576   0.773  0.00  0.00    -0.390 OA
ATOM     28  H   LIG    1       -3.890  -3.401   0.207  0.00  0.00    +0.210 HD
ENDBRANCH  26  27
ENDBRANCH  23  26
ENDBRANCH  16  17
ENDBRANCH  15  16
ENDBRANCH   1  15
TORSDOF 11
