REMARK  Name = molecules/SIYLLGKDQZGJHK-UHFFFAOYSA-N.pdb
REMARK                            x       y       z     vdW  Elec       q    Type
REMARK                         _______ _______ _______ _____ _____    ______ ____
ROOT
ATOM      1  O   LIG    1       -0.157  -1.331  -1.399  0.00  0.00    -0.490 OA
ENDROOT
BRANCH   1   5
ATOM      2  C   LIG    1       -3.944   0.141  -0.082  0.00  0.00    -0.041 A 
ATOM      3  C   LIG    1       -2.902  -0.190   0.812  0.00  0.00    +0.008 A 
ATOM      4  C   LIG    1       -1.688  -0.664   0.380  0.00  0.00    +0.046 A 
ATOM      5  C   LIG    1       -1.404  -0.849  -0.954  0.00  0.00    +0.121 A 
ATOM      6  C   LIG    1       -2.404  -0.532  -1.841  0.00  0.00    +0.046 A 
ATOM      7  C   LIG    1       -3.648  -0.043  -1.389  0.00  0.00    +0.008 A 
BRANCH   2   8
ATOM      8  C   LIG    1       -5.168   0.648   0.537  0.00  0.00    -0.009 C 
ATOM      9  C   LIG    1       -5.413  -0.077   1.859  0.00  0.00    +0.016 C 
ATOM     10  C   LIG    1       -4.706   2.090   0.990  0.00  0.00    +0.016 C 
BRANCH   8  11
ATOM     11  C   LIG    1       -6.375   0.897  -0.221  0.00  0.00    +0.017 C 
BRANCH  11  12
ATOM     12  C   LIG    1       -7.240  -0.132  -0.798  0.00  0.00    -0.037 C 
ATOM     13  C   LIG    1       -7.831  -1.125   0.181  0.00  0.00    +0.010 C 
ATOM     14  C   LIG    1       -8.524   0.683  -1.245  0.00  0.00    +0.010 C 
ATOM     15  C   LIG    1       -6.849  -0.848  -2.033  0.00  0.00    +0.010 C 
ENDBRANCH  11  12
ENDBRANCH   8  11
ENDBRANCH   2   8
ENDBRANCH   1   5
BRANCH   1  16
ATOM     16  C   LIG    1        0.884  -1.558  -0.430  0.00  0.00    +0.257 C 
BRANCH  16  17
ATOM     17  C   LIG    1        1.425  -0.268   0.090  0.00  0.00    +0.200 C 
BRANCH  17  18
ATOM     18  O   LIG    1        2.365  -0.523   1.088  0.00  0.00    -0.378 OA
BRANCH  18  19
ATOM     19  C   LIG    1        2.990   0.617   1.560  0.00  0.00    +0.142 C 
BRANCH  19  20
ATOM     20  C   LIG    1        4.067   1.176   0.677  0.00  0.00    -0.047 C 
BRANCH  20  21
ATOM     21  N   LIG    1        5.170   0.301   0.498  0.00  0.00    +0.380 N 
ATOM     22  C   LIG    1        6.218   0.641   1.524  0.00  0.00    -0.092 C 
ATOM     23  C   LIG    1        4.844  -1.075   0.824  0.00  0.00    -0.092 C 
BRANCH  21  24
ATOM     24  C   LIG    1        5.771   0.455  -0.811  0.00  0.00    -0.040 C 
BRANCH  24  25
ATOM     25  C   LIG    1        7.245   0.147  -0.695  0.00  0.00    -0.063 A 
ATOM     26  C   LIG    1        8.171   1.105  -0.454  0.00  0.00    +0.002 A 
ATOM     27  C   LIG    1        9.492   0.777  -0.289  0.00  0.00    +0.000 A 
ATOM     28  C   LIG    1        9.927  -0.555  -0.365  0.00  0.00    +0.000 A 
ATOM     29  C   LIG    1        8.962  -1.504  -0.613  0.00  0.00    +0.000 A 
ATOM     30  C   LIG    1        7.621  -1.172  -0.781  0.00  0.00    +0.002 A 
ENDBRANCH  24  25
ENDBRANCH  21  24
ENDBRANCH  20  21
ENDBRANCH  19  20
ENDBRANCH  18  19
ENDBRANCH  17  18
ENDBRANCH  16  17
ENDBRANCH   1  16
TORSDOF 12
