REMARK  Name = molecules/SJCRQMUYEQHNTC-UHFFFAOYSA-N.pdb
REMARK                            x       y       z     vdW  Elec       q    Type
REMARK                         _______ _______ _______ _____ _____    ______ ____
ROOT
ATOM      1  C   LIG    1       -1.041   1.786  -0.013  0.00  0.00    +0.064 C 
ATOM      2  C   LIG    1       -0.879   0.305   0.065  0.00  0.00    +0.025 A 
ATOM      3  C   LIG    1       -1.921  -0.591   0.224  0.00  0.00    -0.016 A 
ATOM      4  C   LIG    1       -1.352  -1.845   0.248  0.00  0.00    +0.027 A 
ATOM      5  C   LIG    1       -0.002  -1.688   0.106  0.00  0.00    +0.021 A 
ATOM      6  C   LIG    1        0.990  -2.817   0.081  0.00  0.00    +0.064 C 
ATOM      7  N   LIG    1        0.290  -0.379  -0.006  0.00  0.00    -0.317 N 
ENDROOT
BRANCH   7   8
ATOM      8  C   LIG    1        1.591   0.201  -0.169  0.00  0.00    +0.047 A 
ATOM      9  C   LIG    1        1.991   1.303   0.568  0.00  0.00    +0.027 A 
ATOM     10  C   LIG    1        3.250   1.876   0.419  0.00  0.00    +0.022 A 
ATOM     11  C   LIG    1        4.099   1.300  -0.503  0.00  0.00    +0.041 A 
ATOM     12 CL   LIG    1        5.693   1.992  -0.721  0.00  0.00    -0.084 Cl
ATOM     13  C   LIG    1        3.747   0.205  -1.260  0.00  0.00    +0.022 A 
ATOM     14  C   LIG    1        2.471  -0.345  -1.081  0.00  0.00    +0.027 A 
ENDBRANCH   7   8
BRANCH   3  15
ATOM     15  C   LIG    1       -3.344  -0.264   0.340  0.00  0.00    +0.157 C 
BRANCH  15  16
ATOM     16  C   LIG    1       -3.956   0.096  -0.966  0.00  0.00    +0.309 C 
ATOM     17  O   LIG    1       -3.244   0.088  -1.998  0.00  0.00    -0.251 OA
BRANCH  16  18
ATOM     18  O   LIG    1       -5.288   0.442  -1.099  0.00  0.00    -0.480 OA
ATOM     19  H   LIG    1       -5.514   1.406  -0.824  0.00  0.00    +0.295 HD
ENDBRANCH  16  18
ENDBRANCH  15  16
ENDBRANCH   3  15
TORSDOF 4
