REMARK  Name = molecules/SJOXEWUZWQYCGL-DVOMOZLQSA-N.pdb
REMARK                            x       y       z     vdW  Elec       q    Type
REMARK                         _______ _______ _______ _____ _____    ______ ____
ROOT
ATOM      1  O   LIG    1        0.626  -0.296  -0.272  0.00  0.00    -0.457 OA
ENDROOT
BRANCH   1   3
ATOM      2  C   LIG    1       -1.686   0.357  -0.681  0.00  0.00    +0.032 C 
ATOM      3  C   LIG    1       -0.716  -0.533   0.003  0.00  0.00    +0.180 C 
ATOM      4  C   LIG    1       -1.012  -1.961  -0.481  0.00  0.00    +0.048 C 
ATOM      5  C   LIG    1       -2.353  -2.406   0.035  0.00  0.00    -0.011 C 
ATOM      6  C   LIG    1       -3.106  -1.249   0.631  0.00  0.00    +0.004 C 
ATOM      7  C   LIG    1       -3.184  -3.076  -1.045  0.00  0.00    +0.007 C 
ATOM      8  C   LIG    1       -3.085  -0.020  -0.248  0.00  0.00    +0.007 C 
BRANCH   2   9
ATOM      9  C   LIG    1       -1.465   1.827  -0.469  0.00  0.00    -0.011 C 
ATOM     10  C   LIG    1       -1.635   2.224   0.985  0.00  0.00    +0.007 C 
ATOM     11  C   LIG    1       -0.146   2.324  -0.935  0.00  0.00    +0.007 C 
ENDBRANCH   2   9
ENDBRANCH   1   3
BRANCH   1  12
ATOM     12  C   LIG    1        1.523  -0.047   0.733  0.00  0.00    +0.343 C 
ATOM     13  O   LIG    1        1.038  -0.050   1.910  0.00  0.00    -0.245 OA
BRANCH  12  14
ATOM     14  C   LIG    1        2.942   0.215   0.595  0.00  0.00    +0.100 A 
ATOM     15  C   LIG    1        3.706   0.450   1.749  0.00  0.00    +0.018 A 
ATOM     16  C   LIG    1        5.050   0.705   1.718  0.00  0.00    +0.001 A 
ATOM     17  C   LIG    1        5.718   0.742   0.521  0.00  0.00    +0.004 A 
ATOM     18  C   LIG    1        5.010   0.518  -0.629  0.00  0.00    +0.046 A 
ATOM     19  C   LIG    1        3.640   0.259  -0.584  0.00  0.00    +0.131 A 
BRANCH  19  20
ATOM     20  O   LIG    1        3.022   0.049  -1.776  0.00  0.00    -0.506 OA
ATOM     21  H   LIG    1        2.086  -0.143  -1.935  0.00  0.00    +0.292 HD
ENDBRANCH  19  20
ENDBRANCH  12  14
ENDBRANCH   1  12
TORSDOF 5
