REMARK  Name = molecules/SJVQHLPISAIATJ-ZDUSSCGKSA-N.pdb
REMARK                            x       y       z     vdW  Elec       q    Type
REMARK                         _______ _______ _______ _____ _____    ______ ____
ROOT
ATOM      1  C   LIG    1       -3.285  -3.316   0.104  0.00  0.00    +0.054 A 
ATOM      2 CL   LIG    1       -4.968  -2.970   0.433  0.00  0.00    -0.083 Cl
ATOM      3  C   LIG    1       -2.849  -4.643  -0.013  0.00  0.00    +0.021 A 
ATOM      4  C   LIG    1       -1.508  -4.869  -0.274  0.00  0.00    +0.002 A 
ATOM      5  C   LIG    1       -0.616  -3.827  -0.417  0.00  0.00    +0.009 A 
ATOM      6  C   LIG    1       -1.086  -2.545  -0.294  0.00  0.00    -0.010 A 
ATOM      7  C   LIG    1       -0.161  -1.514  -0.444  0.00  0.00    +0.032 A 
ATOM      8  C   LIG    1       -0.546  -0.212  -0.337  0.00  0.00    +0.048 A 
ATOM      9  N   LIG    1       -1.877   0.025  -0.078  0.00  0.00    -0.279 N 
ATOM     10  C   LIG    1       -2.772  -0.971   0.067  0.00  0.00    +0.265 A 
ATOM     11  O   LIG    1       -3.988  -0.736   0.304  0.00  0.00    -0.267 OA
ATOM     12  C   LIG    1       -2.403  -2.291  -0.037  0.00  0.00    +0.065 A 
ENDROOT
BRANCH   9  13
ATOM     13  C   LIG    1       -2.398   1.344   0.054  0.00  0.00    +0.050 A 
ATOM     14  C   LIG    1       -2.308   2.028   1.246  0.00  0.00    +0.026 A 
ATOM     15  C   LIG    1       -2.835   3.304   1.307  0.00  0.00    +0.002 A 
ATOM     16  C   LIG    1       -3.430   3.866   0.197  0.00  0.00    +0.000 A 
ATOM     17  C   LIG    1       -3.508   3.163  -0.984  0.00  0.00    +0.002 A 
ATOM     18  C   LIG    1       -2.988   1.899  -1.049  0.00  0.00    +0.026 A 
ENDBRANCH   9  13
BRANCH   8  19
ATOM     19  C   LIG    1        0.277   0.968  -0.472  0.00  0.00    +0.116 C 
ATOM     20  C   LIG    1        0.473   1.145  -2.004  0.00  0.00    +0.034 C 
BRANCH  19  21
ATOM     21  N   LIG    1        1.566   1.040   0.080  0.00  0.00    -0.319 N 
ATOM     22  H   LIG    1        1.615   1.627   0.986  0.00  0.00    +0.148 HD
BRANCH  21  23
ATOM     23  C   LIG    1        2.788   0.510  -0.294  0.00  0.00    +0.150 A 
ATOM     24  C   LIG    1        3.939   0.700   0.446  0.00  0.00    +0.147 A 
ATOM     25  N   LIG    1        4.204   1.343   1.612  0.00  0.00    -0.231 NA
ATOM     26  C   LIG    1        5.509   1.237   1.917  0.00  0.00    +0.198 A 
ATOM     27  N   LIG    1        6.095   0.509   0.924  0.00  0.00    -0.329 N 
ATOM     28  H   LIG    1        7.108   0.284   0.922  0.00  0.00    +0.168 HD
ATOM     29  C   LIG    1        5.155   0.182   0.034  0.00  0.00    +0.163 A 
ATOM     30  N   LIG    1        5.203  -0.514  -1.107  0.00  0.00    -0.216 NA
ATOM     31  C   LIG    1        4.087  -0.702  -1.831  0.00  0.00    +0.225 A 
ATOM     32  N   LIG    1        2.931  -0.199  -1.420  0.00  0.00    -0.219 NA
ENDBRANCH  21  23
ENDBRANCH  19  21
ENDBRANCH   8  19
TORSDOF 4
