REMARK  Name = molecules/SKPLBLUECSEIFO-QMMMGPOBSA-N.pdb
REMARK                            x       y       z     vdW  Elec       q    Type
REMARK                         _______ _______ _______ _____ _____    ______ ____
ROOT
ATOM      1  C   LIG    1        1.575  -1.393  -0.663  0.00  0.00    +0.189 C 
ENDROOT
BRANCH   1   2
ATOM      2  O   LIG    1        1.276  -2.672  -1.138  0.00  0.00    -0.385 OA
ATOM      3  H   LIG    1        0.834  -2.557  -2.025  0.00  0.00    +0.210 HD
ENDBRANCH   1   2
BRANCH   1   4
ATOM      4  C   LIG    1        0.376  -0.770   0.014  0.00  0.00    +0.263 C 
BRANCH   4   5
ATOM      5  O   LIG    1       -0.716  -0.649  -0.867  0.00  0.00    -0.489 OA
BRANCH   5   6
ATOM      6  C   LIG    1       -1.896  -0.094  -0.397  0.00  0.00    +0.121 A 
ATOM      7  C   LIG    1       -2.004   0.336   0.919  0.00  0.00    +0.047 A 
ATOM      8  C   LIG    1       -3.154   0.888   1.418  0.00  0.00    +0.023 A 
ATOM      9  C   LIG    1       -4.247   1.030   0.604  0.00  0.00    +0.041 A 
ATOM     10 CL   LIG    1       -5.743   1.737   1.214  0.00  0.00    -0.084 Cl
ATOM     11  C   LIG    1       -4.198   0.616  -0.729  0.00  0.00    +0.023 A 
ATOM     12  C   LIG    1       -3.017   0.067  -1.181  0.00  0.00    +0.047 A 
ENDBRANCH   5   6
ENDBRANCH   4   5
ENDBRANCH   1   4
BRANCH   1  13
ATOM     13  C   LIG    1        2.766  -1.429   0.263  0.00  0.00    +0.268 C 
BRANCH  13  14
ATOM     14  O   LIG    1        3.092  -0.160   0.767  0.00  0.00    -0.448 OA
BRANCH  14  15
ATOM     15  C   LIG    1        3.460   0.905   0.006  0.00  0.00    +0.398 C 
ATOM     16  N   LIG    1        3.784   2.193   0.562  0.00  0.00    -0.295 N 
ATOM     17  H   LIG    1        4.465   2.319   1.328  0.00  0.00    +0.148 HD
ATOM     18  H   LIG    1        3.303   3.015   0.164  0.00  0.00    +0.148 HD
ATOM     19  O   LIG    1        3.528   0.775  -1.249  0.00  0.00    -0.227 OA
ENDBRANCH  14  15
ENDBRANCH  13  14
ENDBRANCH   1  13
TORSDOF 7
