REMARK  Name = molecules/SKVLYVHULOWXTD-UHFFFAOYSA-N.pdb
REMARK                            x       y       z     vdW  Elec       q    Type
REMARK                         _______ _______ _______ _____ _____    ______ ____
ROOT
ATOM      1  C   LIG    1       -1.989  -0.094   1.843  0.00  0.00    +0.109 A 
ATOM      2  C   LIG    1       -0.911  -0.961   1.949  0.00  0.00    +0.030 A 
ATOM      3  C   LIG    1        0.305  -0.593   1.411  0.00  0.00    +0.025 A 
ATOM      4  C   LIG    1        0.484   0.612   0.769  0.00  0.00    +0.033 A 
ATOM      5  C   LIG    1       -0.606   1.493   0.659  0.00  0.00    +0.025 A 
ATOM      6  C   LIG    1       -1.800   1.109   1.199  0.00  0.00    +0.030 A 
ENDROOT
BRANCH   4   7
ATOM      7  N   LIG    1        1.682   1.056   0.197  0.00  0.00    -0.285 N 
ATOM      8  C   LIG    1        2.878   0.310   0.206  0.00  0.00    +0.218 C 
ATOM      9  O   LIG    1        3.054  -0.819   0.704  0.00  0.00    -0.275 OA
ATOM     10  H   LIG    1        1.720   1.988  -0.267  0.00  0.00    +0.155 HD
BRANCH   8  11
ATOM     11  C   LIG    1        4.122   0.895  -0.447  0.00  0.00    +0.107 C 
BRANCH  11  12
ATOM     12  C   LIG    1        5.248  -0.069  -0.311  0.00  0.00    +0.129 C 
BRANCH  12  13
ATOM     13  C   LIG    1        6.493   0.439  -0.927  0.00  0.00    +0.305 C 
ATOM     14  O   LIG    1        6.501   1.562  -1.476  0.00  0.00    -0.251 OA
BRANCH  13  15
ATOM     15  O   LIG    1        7.630  -0.341  -0.884  0.00  0.00    -0.481 OA
ATOM     16  H   LIG    1        8.435  -0.175  -1.460  0.00  0.00    +0.295 HD
ENDBRANCH  13  15
ENDBRANCH  12  13
ENDBRANCH  11  12
ENDBRANCH   8  11
ENDBRANCH   4   7
BRANCH   1  17
ATOM     17  S   LIG    1       -3.550  -0.463   2.501  0.00  0.00    +0.074 S 
ATOM     18  O   LIG    1       -3.346  -1.164   3.821  0.00  0.00    -0.150 OA
ATOM     19  O   LIG    1       -4.293   0.849   2.721  0.00  0.00    -0.150 OA
BRANCH  17  20
ATOM     20  N   LIG    1       -4.492  -1.465   1.499  0.00  0.00    -0.194 N 
ATOM     21  H   LIG    1       -4.802  -2.397   1.819  0.00  0.00    +0.176 HD
BRANCH  20  22
ATOM     22  C   LIG    1       -4.862  -1.009   0.190  0.00  0.00    +0.177 A 
ATOM     23  S   LIG    1       -4.546   0.435  -0.656  0.00  0.00    -0.059 S 
ATOM     24  C   LIG    1       -5.380   0.076  -2.112  0.00  0.00    +0.068 A 
ATOM     25  C   LIG    1       -5.863  -1.178  -1.837  0.00  0.00    +0.120 A 
ATOM     26  N   LIG    1       -5.591  -1.693  -0.687  0.00  0.00    -0.232 NA
ENDBRANCH  20  22
ENDBRANCH  17  20
ENDBRANCH   1  17
TORSDOF 8
