REMARK  Name = molecules/SLAYUXIURFNXPG-CRAIPNDOSA-N.pdb
REMARK                            x       y       z     vdW  Elec       q    Type
REMARK                         _______ _______ _______ _____ _____    ______ ____
ROOT
ATOM      1  CA  LIG    1        2.649   0.493  -1.407  0.00  0.00    +0.123 C 
ATOM      2  C   LIG    1        3.050   1.454  -0.586  0.00  0.00    -0.021 C 
ATOM      3  C   LIG    1        2.102   2.245   0.280  0.00  0.00    +0.104 C 
ATOM      4  S   LIG    1        0.517   2.539  -0.493  0.00  0.00    -0.131 S 
ATOM      5  C   LIG    1        0.276   1.294  -1.761  0.00  0.00    +0.169 C 
ATOM      6  CA  LIG    1       -0.843   0.316  -1.504  0.00  0.00    +0.191 C 
ATOM      7  C   LIG    1        0.200  -0.712  -1.560  0.00  0.00    +0.244 C 
ATOM      8  O   LIG    1        0.083  -1.987  -1.606  0.00  0.00    -0.273 OA
ATOM      9  N   LIG    1        1.230   0.243  -1.542  0.00  0.00    -0.249 N 
ENDROOT
BRANCH   6  10
ATOM     10  N   LIG    1       -1.562   0.474  -0.265  0.00  0.00    -0.301 N 
ATOM     11  H   LIG    1       -1.082   0.592   0.630  0.00  0.00    +0.150 HD
ATOM     12  C   LIG    1       -2.974   0.463  -0.314  0.00  0.00    +0.218 C 
ATOM     13  O   LIG    1       -3.604   0.319  -1.384  0.00  0.00    -0.275 OA
BRANCH  12  14
ATOM     14  C   LIG    1       -3.744   0.628   0.942  0.00  0.00    +0.131 C 
BRANCH  14  15
ATOM     15  C   LIG    1       -5.215   0.543   0.679  0.00  0.00    -0.034 A 
ATOM     16  C   LIG    1       -5.955   1.707   0.568  0.00  0.00    +0.004 A 
ATOM     17  C   LIG    1       -7.308   1.659   0.297  0.00  0.00    +0.000 A 
ATOM     18  C   LIG    1       -7.920   0.436   0.137  0.00  0.00    +0.000 A 
ATOM     19  C   LIG    1       -7.162  -0.726   0.253  0.00  0.00    +0.005 A 
ATOM     20  C   LIG    1       -5.793  -0.685   0.527  0.00  0.00    -0.030 A 
BRANCH  20  21
ATOM     21  C   LIG    1       -5.034  -1.947   0.660  0.00  0.00    +0.113 C 
BRANCH  21  22
ATOM     22  N   LIG    1       -5.886  -3.098   0.445  0.00  0.00    -0.326 NA
ATOM     23  H   LIG    1       -6.618  -3.124   1.167  0.00  0.00    +0.119 HD
ATOM     24  H   LIG    1       -6.199  -3.160  -0.537  0.00  0.00    +0.119 HD
ENDBRANCH  21  22
ENDBRANCH  20  21
ENDBRANCH  14  15
ENDBRANCH  12  14
ENDBRANCH   6  10
BRANCH   1  25
ATOM     25  C   LIG    1        3.515  -0.331  -2.204  0.00  0.00    +0.351 C 
ATOM     26  OXT LIG    1        4.737  -0.238  -2.245  0.00  0.00    -0.244 OA
BRANCH  25  27
ATOM     27  O   LIG    1        2.969  -1.337  -3.022  0.00  0.00    -0.476 OA
ATOM     28  H   LIG    1        2.627  -2.196  -2.626  0.00  0.00    +0.295 HD
ENDBRANCH  25  27
ENDBRANCH   1  25
BRANCH   2  29
ATOM     29  C   LIG    1        4.461   1.789  -0.405  0.00  0.00    +0.111 C 
BRANCH  29  30
ATOM     30  S   LIG    1        4.823   1.551   1.398  0.00  0.00    -0.080 S 
BRANCH  30  31
ATOM     31  C   LIG    1        4.681  -0.164   1.829  0.00  0.00    +0.210 A 
ATOM     32  N   LIG    1        3.583  -0.848   2.208  0.00  0.00    -0.101 NA
ATOM     33  N   LIG    1        3.894  -2.103   2.424  0.00  0.00    -0.022 NA
ATOM     34  N   LIG    1        5.180  -2.256   2.194  0.00  0.00    -0.043 NA
ATOM     35  N   LIG    1        5.682  -1.053   1.823  0.00  0.00    -0.209 N 
BRANCH  35  36
ATOM     36  C   LIG    1        7.086  -0.881   1.517  0.00  0.00    +0.268 C 
BRANCH  36  37
ATOM     37  C   LIG    1        7.436  -1.099   0.105  0.00  0.00    +0.327 C 
ATOM     38  O   LIG    1        7.634  -2.283  -0.312  0.00  0.00    -0.249 OA
BRANCH  37  39
ATOM     39  O   LIG    1        7.551  -0.039  -0.752  0.00  0.00    -0.479 OA
ATOM     40  H   LIG    1        8.378   0.500  -0.947  0.00  0.00    +0.295 HD
ENDBRANCH  37  39
ENDBRANCH  36  37
ENDBRANCH  35  36
ENDBRANCH  30  31
ENDBRANCH  29  30
ENDBRANCH   2  29
TORSDOF 13
