REMARK  Name = molecules/SLRCCWJSBJZJBV-ZQDZILKHSA-N.pdb
REMARK                            x       y       z     vdW  Elec       q    Type
REMARK                         _______ _______ _______ _____ _____    ______ ____
ROOT
ATOM      1  C   LIG    1        0.549  -1.232   0.337  0.00  0.00    +0.021 C 
ATOM      2  C   LIG    1        0.158  -0.443   1.556  0.00  0.00    +0.012 C 
ATOM      3  C   LIG    1       -0.500   0.834   1.000  0.00  0.00    +0.021 C 
ATOM      4  C   LIG    1       -1.798   0.313   0.442  0.00  0.00    +0.061 C 
ATOM      5  C   LIG    1       -2.719   1.411  -0.031  0.00  0.00    +0.019 C 
ATOM      6  C   LIG    1       -4.087   0.774  -0.214  0.00  0.00    +0.003 C 
ATOM      7  C   LIG    1       -4.070  -0.703   0.009  0.00  0.00    +0.015 C 
ATOM      8  C   LIG    1       -2.920  -1.410  -0.641  0.00  0.00    +0.085 C 
ATOM      9  N   LIG    1       -1.679  -0.653  -0.573  0.00  0.00    -0.299 NA
ATOM     10  C   LIG    1        0.409   1.403  -0.049  0.00  0.00    +0.089 C 
ATOM     11  N   LIG    1        1.718   0.854   0.093  0.00  0.00    -0.299 NA
ATOM     12  C   LIG    1        2.779   1.638  -0.425  0.00  0.00    +0.085 C 
ATOM     13  C   LIG    1        4.096   0.984  -0.025  0.00  0.00    +0.015 C 
ATOM     14  C   LIG    1        4.133  -0.405  -0.657  0.00  0.00    +0.003 C 
ATOM     15  C   LIG    1        3.042  -1.210   0.018  0.00  0.00    +0.019 C 
ATOM     16  C   LIG    1        1.732  -0.521  -0.295  0.00  0.00    +0.061 C 
ATOM     17  C   LIG    1       -0.513  -1.419  -0.664  0.00  0.00    +0.089 C 
ENDROOT
TORSDOF 0
