REMARK  Name = molecules/SLYPOVJCSQHITR-UHFFFAOYSA-N.pdb
REMARK                            x       y       z     vdW  Elec       q    Type
REMARK                         _______ _______ _______ _____ _____    ______ ____
ROOT
ATOM      1  O   LIG    1        4.081  -1.112  -0.897  0.00  0.00    -0.237 OA
ATOM      2  C   LIG    1        2.950  -0.751  -0.397  0.00  0.00    +0.379 A 
ATOM      3  S   LIG    1        2.591  -0.229   1.193  0.00  0.00    -0.004 S 
ATOM      4  C   LIG    1        0.911   0.035   0.978  0.00  0.00    +0.061 A 
ATOM      5  C   LIG    1       -0.142   0.460   1.758  0.00  0.00    +0.022 A 
ATOM      6  C   LIG    1       -1.397   0.550   1.220  0.00  0.00    +0.047 A 
ATOM      7  C   LIG    1       -1.566   0.210  -0.088  0.00  0.00    +0.120 A 
ATOM      8  C   LIG    1       -0.527  -0.213  -0.868  0.00  0.00    +0.093 A 
ATOM      9  C   LIG    1        0.772  -0.314  -0.341  0.00  0.00    +0.150 A 
ATOM     10  O   LIG    1        1.804  -0.691  -0.964  0.00  0.00    -0.416 OA
ENDROOT
BRANCH   7  11
ATOM     11  O   LIG    1       -2.869   0.308  -0.628  0.00  0.00    -0.507 OA
ATOM     12  H   LIG    1       -3.628   0.619  -0.049  0.00  0.00    +0.292 HD
ENDBRANCH   7  11
TORSDOF 1
