REMARK  Name = molecules/SMANXXCATUTDDT-QPJJXVBHSA-N.pdb
REMARK                            x       y       z     vdW  Elec       q    Type
REMARK                         _______ _______ _______ _____ _____    ______ ____
ROOT
ATOM      1  C   LIG    1       -2.534  -0.149  -0.601  0.00  0.00    +0.117 C 
ENDROOT
BRANCH   1   2
ATOM      2  C   LIG    1       -3.558  -0.993   0.114  0.00  0.00    -0.026 A 
ATOM      3  C   LIG    1       -3.628  -0.886   1.488  0.00  0.00    +0.008 A 
ATOM      4  C   LIG    1       -4.517  -1.609   2.247  0.00  0.00    +0.038 A 
ATOM      5  C   LIG    1       -5.384  -2.484   1.629  0.00  0.00    +0.123 A 
ATOM      6  F   LIG    1       -6.281  -3.216   2.361  0.00  0.00    -0.205 F 
ATOM      7  C   LIG    1       -5.318  -2.594   0.259  0.00  0.00    +0.038 A 
ATOM      8  C   LIG    1       -4.411  -1.853  -0.498  0.00  0.00    +0.008 A 
ENDBRANCH   1   2
BRANCH   1   9
ATOM      9  C   LIG    1       -3.070   1.166  -0.945  0.00  0.00    -0.026 A 
ATOM     10  C   LIG    1       -4.208   1.601  -0.303  0.00  0.00    +0.008 A 
ATOM     11  C   LIG    1       -4.782   2.853  -0.546  0.00  0.00    +0.038 A 
ATOM     12  C   LIG    1       -4.167   3.660  -1.466  0.00  0.00    +0.123 A 
ATOM     13  F   LIG    1       -4.720   4.893  -1.716  0.00  0.00    -0.205 F 
ATOM     14  C   LIG    1       -3.028   3.247  -2.122  0.00  0.00    +0.038 A 
ATOM     15  C   LIG    1       -2.489   2.006  -1.858  0.00  0.00    +0.008 A 
ENDBRANCH   1   9
BRANCH   1  16
ATOM     16  N   LIG    1       -1.355  -0.240   0.151  0.00  0.00    -0.289 NA
ATOM     17  C   LIG    1       -1.134  -1.603   0.549  0.00  0.00    +0.100 C 
ATOM     18  C   LIG    1        0.076  -2.252  -0.064  0.00  0.00    +0.100 C 
ATOM     19  N   LIG    1        1.205  -1.409  -0.241  0.00  0.00    -0.296 NA
ATOM     20  C   LIG    1        0.868  -0.209  -0.923  0.00  0.00    +0.100 C 
ATOM     21  C   LIG    1       -0.211   0.507  -0.126  0.00  0.00    +0.100 C 
BRANCH  19  22
ATOM     22  C   LIG    1        2.089  -1.321   0.858  0.00  0.00    +0.111 C 
BRANCH  22  23
ATOM     23  C   LIG    1        3.493  -0.970   0.473  0.00  0.00    -0.011 C 
ATOM     24  C   LIG    1        4.103   0.104   0.921  0.00  0.00    +0.005 C 
BRANCH  24  25
ATOM     25  C   LIG    1        5.464   0.503   0.587  0.00  0.00    -0.025 A 
ATOM     26  C   LIG    1        6.016   1.666   1.128  0.00  0.00    +0.008 A 
ATOM     27  C   LIG    1        7.296   2.083   0.857  0.00  0.00    +0.001 A 
ATOM     28  C   LIG    1        8.109   1.332   0.006  0.00  0.00    +0.000 A 
ATOM     29  C   LIG    1        7.582   0.184  -0.536  0.00  0.00    +0.001 A 
ATOM     30  C   LIG    1        6.275  -0.219  -0.244  0.00  0.00    +0.008 A 
ENDBRANCH  24  25
ENDBRANCH  22  23
ENDBRANCH  19  22
ENDBRANCH   1  16
TORSDOF 6
