REMARK  Name = molecules/SMOSFFGOYXWICC-OALUTQOASA-N.pdb
REMARK                            x       y       z     vdW  Elec       q    Type
REMARK                         _______ _______ _______ _____ _____    ______ ____
ROOT
ATOM      1  C   LIG    1       -0.775  -1.233   0.341  0.00  0.00    +0.120 C 
ENDROOT
BRANCH   1   2
ATOM      2  O   LIG    1       -0.427  -2.530  -0.060  0.00  0.00    -0.391 OA
ATOM      3  H   LIG    1       -0.292  -2.484  -1.057  0.00  0.00    +0.210 HD
ENDBRANCH   1   2
BRANCH   1   4
ATOM      4  C   LIG    1       -2.195  -0.999  -0.103  0.00  0.00    +0.050 C 
BRANCH   4   5
ATOM      5  C   LIG    1       -2.622   0.398   0.127  0.00  0.00    -0.042 A 
ATOM      6  C   LIG    1       -2.695   0.952   1.394  0.00  0.00    +0.004 A 
ATOM      7  C   LIG    1       -3.097   2.244   1.512  0.00  0.00    +0.000 A 
ATOM      8  C   LIG    1       -3.442   3.046   0.438  0.00  0.00    +0.000 A 
ATOM      9  C   LIG    1       -3.367   2.486  -0.813  0.00  0.00    +0.000 A 
ATOM     10  C   LIG    1       -2.960   1.176  -0.956  0.00  0.00    +0.004 A 
ENDBRANCH   4   5
BRANCH   4  11
ATOM     11  C   LIG    1       -3.183  -1.896   0.587  0.00  0.00    -0.007 C 
ATOM     12  C   LIG    1       -2.954  -3.350   0.374  0.00  0.00    +0.008 C 
ATOM     13  C   LIG    1       -4.575  -1.509   0.141  0.00  0.00    +0.008 C 
ENDBRANCH   4  11
ENDBRANCH   1   4
BRANCH   1  14
ATOM     14  C   LIG    1        0.153  -0.302  -0.391  0.00  0.00    +0.014 C 
BRANCH  14  15
ATOM     15  C   LIG    1        1.556  -0.584   0.096  0.00  0.00    -0.073 C 
BRANCH  15  16
ATOM     16  N   LIG    1        2.552   0.234  -0.518  0.00  0.00    +0.378 N 
ATOM     17  C   LIG    1        2.659   1.519   0.131  0.00  0.00    -0.075 C 
ATOM     18  C   LIG    1        3.598   1.454   1.337  0.00  0.00    -0.018 C 
ATOM     19  C   LIG    1        5.029   1.236   0.878  0.00  0.00    -0.004 C 
ATOM     20  C   LIG    1        5.000   0.476  -0.451  0.00  0.00    -0.018 C 
ATOM     21  C   LIG    1        3.835  -0.461  -0.392  0.00  0.00    -0.075 C 
ATOM     22  C   LIG    1        2.317   0.415  -1.929  0.00  0.00    -0.092 C 
ENDBRANCH  15  16
ENDBRANCH  14  15
ENDBRANCH   1  14
TORSDOF 7
