REMARK  Name = molecules/SMSRCGPDNDCXFR-CYWZMYCQSA-N.pdb
REMARK                            x       y       z     vdW  Elec       q    Type
REMARK                         _______ _______ _______ _____ _____    ______ ____
ROOT
ATOM      1  N   LIG    1       -1.087  -0.404   1.673  0.00  0.00    -0.276 N 
ATOM      2  H   LIG    1       -1.700   0.438   1.560  0.00  0.00    +0.152 HD
ATOM      3  C   LIG    1        0.230  -0.348   1.181  0.00  0.00    +0.238 C 
ATOM      4  O   LIG    1        0.921  -1.390   1.277  0.00  0.00    -0.274 OA
ENDROOT
BRANCH   1   5
ATOM      5  C   LIG    1       -1.730  -1.528   2.317  0.00  0.00    +0.242 C 
ATOM      6  C   LIG    1       -3.260  -1.276   2.475  0.00  0.00    +0.199 C 
ATOM      7  S   LIG    1       -3.753   0.373   1.962  0.00  0.00    -0.128 S 
ATOM      8  C   LIG    1       -4.252   0.243   0.231  0.00  0.00    +0.104 C 
ATOM      9  C   LIG    1       -5.045  -1.033   0.008  0.00  0.00    -0.021 C 
ATOM     10  C   LIG    1       -4.588  -2.170   0.549  0.00  0.00    +0.123 C 
ATOM     11  N   LIG    1       -3.373  -2.157   1.330  0.00  0.00    -0.244 N 
ATOM     12  C   LIG    1       -2.067  -2.688   1.510  0.00  0.00    +0.275 C 
ATOM     13  O   LIG    1       -1.459  -3.720   1.133  0.00  0.00    -0.270 OA
BRANCH   5  14
ATOM     14  O   LIG    1       -1.281  -1.739   3.600  0.00  0.00    -0.349 OA
ATOM     15  C   LIG    1       -0.008  -2.016   3.885  0.00  0.00    +0.197 C 
ENDBRANCH   5  14
BRANCH  10  16
ATOM     16  C   LIG    1       -5.216  -3.465   0.316  0.00  0.00    +0.351 C 
ATOM     17  O   LIG    1       -6.220  -3.679  -0.393  0.00  0.00    -0.244 OA
BRANCH  16  18
ATOM     18  O   LIG    1       -4.696  -4.631   0.912  0.00  0.00    -0.476 OA
ATOM     19  H   LIG    1       -3.831  -4.998   0.535  0.00  0.00    +0.295 HD
ENDBRANCH  16  18
ENDBRANCH  10  16
BRANCH   9  20
ATOM     20  C   LIG    1       -6.302  -0.990  -0.730  0.00  0.00    +0.111 C 
BRANCH  20  21
ATOM     21  S   LIG    1       -6.060  -0.533  -2.477  0.00  0.00    -0.080 S 
BRANCH  21  22
ATOM     22  C   LIG    1       -5.475   1.141  -2.653  0.00  0.00    +0.209 A 
ATOM     23  N   LIG    1       -4.213   1.540  -2.707  0.00  0.00    -0.102 NA
ATOM     24  N   LIG    1       -4.195   2.856  -2.849  0.00  0.00    -0.022 NA
ATOM     25  N   LIG    1       -5.445   3.263  -2.882  0.00  0.00    -0.043 NA
ATOM     26  N   LIG    1       -6.263   2.236  -2.764  0.00  0.00    -0.223 N 
ATOM     27  C   LIG    1       -7.717   2.224  -2.751  0.00  0.00    +0.177 C 
ENDBRANCH  21  22
ENDBRANCH  20  21
ENDBRANCH   9  20
ENDBRANCH   1   5
BRANCH   3  28
ATOM     28  C   LIG    1        0.736   0.924   0.572  0.00  0.00    +0.188 C 
BRANCH  28  29
ATOM     29  N   LIG    1        2.047   0.758   0.021  0.00  0.00    -0.285 N 
ATOM     30  C   LIG    1        3.173   0.109   0.524  0.00  0.00    +0.310 C 
ATOM     31  O   LIG    1        3.151  -0.451   1.645  0.00  0.00    -0.252 OA
ATOM     32  N   LIG    1        4.410   0.039  -0.191  0.00  0.00    -0.217 N 
ATOM     33  C   LIG    1        5.502  -0.644   0.393  0.00  0.00    +0.309 C 
ATOM     34  O   LIG    1        5.356  -1.336   1.452  0.00  0.00    -0.264 OA
ATOM     35  C   LIG    1        6.830  -0.548  -0.242  0.00  0.00    +0.302 C 
ATOM     36  O   LIG    1        7.813  -1.139   0.249  0.00  0.00    -0.265 OA
ATOM     37  N   LIG    1        6.913   0.245  -1.425  0.00  0.00    -0.293 N 
ATOM     38  C   LIG    1        5.727   0.340  -2.238  0.00  0.00    +0.127 C 
ATOM     39  C   LIG    1        4.481   0.681  -1.495  0.00  0.00    +0.137 C 
ATOM     40  H   LIG    1        2.181   1.220  -0.946  0.00  0.00    +0.151 HD
BRANCH  37  41
ATOM     41  C   LIG    1        8.167   0.897  -1.739  0.00  0.00    +0.105 C 
ATOM     42  C   LIG    1        9.068   0.041  -2.587  0.00  0.00    +0.024 C 
ENDBRANCH  37  41
ENDBRANCH  28  29
BRANCH  28  43
ATOM     43  C   LIG    1        0.641   2.107   1.468  0.00  0.00    +0.141 C 
ATOM     44  C   LIG    1        1.683   2.091   2.572  0.00  0.00    +0.040 C 
BRANCH  43  45
ATOM     45  O   LIG    1       -0.623   2.269   1.980  0.00  0.00    -0.390 OA
ATOM     46  H   LIG    1       -1.165   2.860   1.409  0.00  0.00    +0.210 HD
ENDBRANCH  43  45
ENDBRANCH  28  43
ENDBRANCH   3  28
TORSDOF 12
