REMARK  Name = molecules/SNHRLVCMMWUAJD-OMPPIWKSSA-N.pdb
REMARK                            x       y       z     vdW  Elec       q    Type
REMARK                         _______ _______ _______ _____ _____    ______ ____
ROOT
ATOM      1  C   LIG    1       -0.665  -2.288   1.943  0.00  0.00    +0.016 C 
ATOM      2  C   LIG    1        0.043  -1.273   1.069  0.00  0.00    +0.021 C 
ATOM      3  C   LIG    1        0.060   0.082   1.659  0.00  0.00    +0.045 C 
ATOM      4  C   LIG    1       -1.418   0.491   1.920  0.00  0.00    +0.154 C 
ATOM      5  C   LIG    1       -2.059   0.634   0.596  0.00  0.00    +0.153 C 
ATOM      6  C   LIG    1       -3.398   1.310   0.595  0.00  0.00    +0.044 C 
ATOM      7  C   LIG    1       -4.382   0.620   1.530  0.00  0.00    +0.023 C 
ATOM      8  C   LIG    1       -3.273   2.687   1.057  0.00  0.00    -0.009 C 
ATOM      9  C   LIG    1       -3.655   3.764   0.397  0.00  0.00    +0.047 C 
ATOM     10  C   LIG    1       -4.255   3.599  -0.915  0.00  0.00    +0.179 C 
ATOM     11  C   LIG    1       -4.410   2.268  -1.450  0.00  0.00    +0.051 C 
ATOM     12  O   LIG    1       -4.627   4.611  -1.559  0.00  0.00    -0.288 OA
ATOM     13  C   LIG    1       -4.012   1.260  -0.746  0.00  0.00    -0.053 C 
ATOM     14  C   LIG    1       -4.130  -0.122  -1.356  0.00  0.00    +0.032 C 
ATOM     15  C   LIG    1       -2.658  -0.524  -1.561  0.00  0.00    +0.011 C 
ATOM     16  C   LIG    1       -2.102  -0.694  -0.136  0.00  0.00    +0.034 C 
ATOM     17  F   LIG    1       -1.218   1.452  -0.179  0.00  0.00    -0.238 F 
ATOM     18  C   LIG    1        1.315  -1.850   0.567  0.00  0.00    +0.181 C 
ATOM     19  C   LIG    1        0.768  -3.015  -0.317  0.00  0.00    +0.038 C 
ATOM     20  C   LIG    1       -0.606  -2.605  -0.734  0.00  0.00    +0.012 C 
ATOM     21  C   LIG    1        1.676  -3.202  -1.512  0.00  0.00    +0.012 C 
ATOM     22  C   LIG    1       -0.714  -1.174  -0.281  0.00  0.00    +0.006 C 
ENDROOT
BRANCH   4  23
ATOM     23  O   LIG    1       -2.027  -0.251   2.868  0.00  0.00    -0.389 OA
ATOM     24  H   LIG    1       -2.305   0.211   3.691  0.00  0.00    +0.210 HD
ENDBRANCH   4  23
BRANCH  18  25
ATOM     25  C   LIG    1        2.137  -2.500   1.662  0.00  0.00    +0.202 C 
ATOM     26  O   LIG    1        1.603  -3.043   2.628  0.00  0.00    -0.291 OA
BRANCH  25  27
ATOM     27  C   LIG    1        3.612  -2.524   1.633  0.00  0.00    +0.234 C 
BRANCH  27  28
ATOM     28  O   LIG    1        4.170  -2.130   0.449  0.00  0.00    -0.387 OA
ATOM     29  H   LIG    1        5.032  -2.563   0.246  0.00  0.00    +0.210 HD
ENDBRANCH  27  28
ENDBRANCH  25  27
ENDBRANCH  18  25
BRANCH  18  30
ATOM     30  O   LIG    1        2.123  -1.072  -0.249  0.00  0.00    -0.449 OA
BRANCH  30  31
ATOM     31  C   LIG    1        2.821   0.068  -0.001  0.00  0.00    +0.308 C 
ATOM     32  O   LIG    1        2.812   0.549   1.147  0.00  0.00    -0.251 OA
BRANCH  31  33
ATOM     33  C   LIG    1        3.601   0.765  -1.053  0.00  0.00    +0.120 C 
BRANCH  33  34
ATOM     34  C   LIG    1        4.244   1.976  -0.454  0.00  0.00    +0.011 C 
BRANCH  34  35
ATOM     35  C   LIG    1        5.062   2.761  -1.435  0.00  0.00    -0.003 C 
ATOM     36  C   LIG    1        4.279   3.275  -2.601  0.00  0.00    +0.004 C 
ENDBRANCH  34  35
ENDBRANCH  33  34
ENDBRANCH  31  33
ENDBRANCH  30  31
ENDBRANCH  18  30
TORSDOF 9
