REMARK  Name = molecules/SNHRLVCMMWUAJD-SUYDQAKGSA-N.pdb
REMARK                            x       y       z     vdW  Elec       q    Type
REMARK                         _______ _______ _______ _____ _____    ______ ____
ROOT
ATOM      1  C   LIG    1       -4.452  -0.339   2.257  0.00  0.00    -0.009 C 
ATOM      2  C   LIG    1       -5.383   0.335   2.907  0.00  0.00    +0.047 C 
ATOM      3  C   LIG    1       -6.156   1.340   2.205  0.00  0.00    +0.179 C 
ATOM      4  O   LIG    1       -7.056   2.013   2.760  0.00  0.00    -0.288 OA
ATOM      5  C   LIG    1       -5.804   1.510   0.792  0.00  0.00    +0.051 C 
ATOM      6  C   LIG    1       -4.884   0.831   0.188  0.00  0.00    -0.053 C 
ATOM      7  C   LIG    1       -4.568   1.151  -1.261  0.00  0.00    +0.032 C 
ATOM      8  C   LIG    1       -3.137   1.643  -1.207  0.00  0.00    +0.011 C 
ATOM      9  C   LIG    1       -2.297   0.478  -0.753  0.00  0.00    +0.034 C 
ATOM     10  C   LIG    1       -2.612   0.029   0.662  0.00  0.00    +0.153 C 
ATOM     11  F   LIG    1       -2.240   1.082   1.480  0.00  0.00    -0.238 F 
ATOM     12  C   LIG    1       -1.755  -1.125   1.029  0.00  0.00    +0.154 C 
ATOM     13  C   LIG    1       -0.321  -1.050   0.648  0.00  0.00    +0.045 C 
ATOM     14  C   LIG    1       -0.101  -0.546  -0.752  0.00  0.00    +0.021 C 
ATOM     15  C   LIG    1        1.326  -0.027  -0.985  0.00  0.00    +0.181 C 
ATOM     16  C   LIG    1        1.202   1.356  -1.515  0.00  0.00    +0.038 C 
ATOM     17  C   LIG    1       -0.261   1.462  -1.917  0.00  0.00    +0.012 C 
ATOM     18  C   LIG    1        2.142   1.764  -2.569  0.00  0.00    +0.012 C 
ATOM     19  C   LIG    1       -0.481  -1.484  -1.825  0.00  0.00    +0.016 C 
ATOM     20  C   LIG    1       -0.849   0.767  -0.760  0.00  0.00    +0.006 C 
ATOM     21  C   LIG    1       -4.083  -0.204   0.862  0.00  0.00    +0.044 C 
ATOM     22  C   LIG    1       -4.541  -1.512   0.200  0.00  0.00    +0.023 C 
ENDROOT
BRANCH  15  23
ATOM     23  C   LIG    1        1.939  -0.897  -2.032  0.00  0.00    +0.202 C 
ATOM     24  O   LIG    1        1.541  -0.742  -3.201  0.00  0.00    -0.291 OA
BRANCH  23  25
ATOM     25  C   LIG    1        2.962  -1.921  -1.844  0.00  0.00    +0.234 C 
BRANCH  25  26
ATOM     26  O   LIG    1        3.316  -2.215  -0.556  0.00  0.00    -0.387 OA
ATOM     27  H   LIG    1        2.965  -3.066  -0.211  0.00  0.00    +0.210 HD
ENDBRANCH  25  26
ENDBRANCH  23  25
ENDBRANCH  15  23
BRANCH  12  28
ATOM     28  O   LIG    1       -2.228  -2.369   0.610  0.00  0.00    -0.389 OA
ATOM     29  H   LIG    1       -1.497  -3.016   0.652  0.00  0.00    +0.210 HD
ENDBRANCH  12  28
BRANCH  15  30
ATOM     30  O   LIG    1        1.942  -0.136   0.254  0.00  0.00    -0.449 OA
BRANCH  30  31
ATOM     31  C   LIG    1        3.233   0.255   0.568  0.00  0.00    +0.308 C 
ATOM     32  O   LIG    1        3.929   0.759  -0.315  0.00  0.00    -0.251 OA
BRANCH  31  33
ATOM     33  C   LIG    1        3.772   0.073   1.933  0.00  0.00    +0.120 C 
BRANCH  33  34
ATOM     34  C   LIG    1        5.185   0.525   2.066  0.00  0.00    +0.011 C 
BRANCH  34  35
ATOM     35  C   LIG    1        6.171  -0.194   1.194  0.00  0.00    -0.003 C 
ATOM     36  C   LIG    1        7.544   0.411   1.482  0.00  0.00    +0.004 C 
ENDBRANCH  34  35
ENDBRANCH  33  34
ENDBRANCH  31  33
ENDBRANCH  30  31
ENDBRANCH  15  30
TORSDOF 9
