REMARK  Name = molecules/SNICXCGAKADSCV-JTQLQIEISA-N.pdb
REMARK                            x       y       z     vdW  Elec       q    Type
REMARK                         _______ _______ _______ _____ _____    ______ ____
ROOT
ATOM      1  C   LIG    1       -1.569  -1.476   1.182  0.00  0.00    +0.105 C 
ATOM      2  N   LIG    1       -1.205  -0.136   0.716  0.00  0.00    -0.298 NA
ATOM      3  C   LIG    1       -2.389   0.604   0.354  0.00  0.00    +0.085 C 
ATOM      4  C   LIG    1       -1.824   1.653  -0.584  0.00  0.00    +0.017 C 
ATOM      5  C   LIG    1       -0.858   0.838  -1.407  0.00  0.00    +0.025 C 
ATOM      6  C   LIG    1       -0.422  -0.265  -0.499  0.00  0.00    +0.088 C 
ENDROOT
BRANCH   6   7
ATOM      7  C   LIG    1        1.012  -0.185  -0.142  0.00  0.00    -0.012 A 
ATOM      8  C   LIG    1        1.444   0.789   0.738  0.00  0.00    +0.115 A 
ATOM      9  N   LIG    1        2.732   0.915   1.103  0.00  0.00    -0.263 NA
ATOM     10  C   LIG    1        3.649   0.060   0.596  0.00  0.00    +0.111 A 
ATOM     11  C   LIG    1        3.295  -0.923  -0.275  0.00  0.00    +0.020 A 
ATOM     12  C   LIG    1        1.965  -1.046  -0.647  0.00  0.00    +0.008 A 
ENDBRANCH   6   7
TORSDOF 1
