REMARK  Name = molecules/SNJDSTGQYRTZJT-GFCCVEGCSA-N.pdb
REMARK                            x       y       z     vdW  Elec       q    Type
REMARK                         _______ _______ _______ _____ _____    ______ ____
ROOT
ATOM      1  C   LIG    1       -0.092   0.391  -1.184  0.00  0.00    +0.091 C 
ATOM      2  C   LIG    1        0.258  -0.077  -2.617  0.00  0.00    +0.046 C 
ENDROOT
BRANCH   1   3
ATOM      3  C   LIG    1        1.189   0.228  -0.444  0.00  0.00    -0.016 A 
ATOM      4  C   LIG    1        1.885   1.331  -0.012  0.00  0.00    +0.008 A 
ATOM      5  C   LIG    1        3.072   1.223   0.674  0.00  0.00    +0.020 A 
ATOM      6  C   LIG    1        3.613   0.003   0.960  0.00  0.00    +0.041 A 
ATOM      7 CL   LIG    1        5.124  -0.174   1.836  0.00  0.00    -0.084 Cl
ATOM      8  C   LIG    1        2.925  -1.120   0.532  0.00  0.00    +0.020 A 
ATOM      9  C   LIG    1        1.728  -1.018  -0.161  0.00  0.00    +0.008 A 
ENDBRANCH   1   3
BRANCH   1  10
ATOM     10  O   LIG    1       -0.358   1.724  -1.276  0.00  0.00    -0.384 OA
ATOM     11  H   LIG    1       -0.438   2.169  -0.375  0.00  0.00    +0.211 HD
ENDBRANCH   1  10
BRANCH   1  12
ATOM     12  C   LIG    1       -1.193  -0.471  -0.683  0.00  0.00    +0.073 C 
BRANCH  12  13
ATOM     13  C   LIG    1       -1.727  -0.260   0.664  0.00  0.00    +0.063 C 
ATOM     14  C   LIG    1       -2.335   1.061   0.972  0.00  0.00    +0.041 C 
ATOM     15  C   LIG    1       -2.819  -1.328   0.865  0.00  0.00    +0.041 C 
BRANCH  13  16
ATOM     16  O   LIG    1       -0.738  -0.577   1.618  0.00  0.00    -0.389 OA
ATOM     17  H   LIG    1       -1.145  -0.721   2.519  0.00  0.00    +0.210 HD
ENDBRANCH  13  16
ENDBRANCH  12  13
ENDBRANCH   1  12
TORSDOF 5
