REMARK  Name = molecules/SNWQKAWITMVCQW-UHFFFAOYSA-N.pdb
REMARK                            x       y       z     vdW  Elec       q    Type
REMARK                         _______ _______ _______ _____ _____    ______ ____
ROOT
ATOM      1  C   LIG    1       -2.262   0.126   1.050  0.00  0.00    +0.249 C 
ATOM      2  O   LIG    1       -1.944  -0.132   2.235  0.00  0.00    -0.270 OA
ATOM      3  N   LIG    1       -1.354   0.025  -0.020  0.00  0.00    -0.281 N 
ATOM      4  H   LIG    1       -1.698   0.318  -0.994  0.00  0.00    +0.155 HD
ENDROOT
BRANCH   1   5
ATOM      5  C   LIG    1       -3.631   0.555   0.806  0.00  0.00    +0.051 A 
ATOM      6  C   LIG    1       -4.126   1.632   1.575  0.00  0.00    +0.014 A 
ATOM      7  C   LIG    1       -5.359   2.154   1.297  0.00  0.00    +0.001 A 
ATOM      8  C   LIG    1       -6.114   1.635   0.275  0.00  0.00    +0.001 A 
ATOM      9  C   LIG    1       -5.641   0.585  -0.476  0.00  0.00    +0.016 A 
ATOM     10  C   LIG    1       -4.380   0.039  -0.201  0.00  0.00    +0.071 A 
BRANCH  10  11
ATOM     11  C   LIG    1       -4.013  -1.142  -0.931  0.00  0.00    +0.338 C 
ATOM     12  O   LIG    1       -4.694  -1.549  -1.931  0.00  0.00    -0.245 OA
BRANCH  11  13
ATOM     13  O   LIG    1       -2.925  -1.913  -0.608  0.00  0.00    -0.477 OA
ATOM     14  H   LIG    1       -2.948  -2.904  -0.531  0.00  0.00    +0.295 HD
ENDBRANCH  11  13
ENDBRANCH  10  11
ENDBRANCH   1   5
BRANCH   3  15
ATOM     15  C   LIG    1        0.005  -0.382   0.054  0.00  0.00    +0.034 A 
ATOM     16  C   LIG    1        0.724  -0.536   1.208  0.00  0.00    +0.025 A 
ATOM     17  C   LIG    1        2.056  -0.967   1.171  0.00  0.00    +0.030 A 
ATOM     18  C   LIG    1        2.712  -1.255   0.001  0.00  0.00    +0.109 A 
ATOM     19  C   LIG    1        1.974  -1.094  -1.159  0.00  0.00    +0.030 A 
ATOM     20  C   LIG    1        0.663  -0.672  -1.140  0.00  0.00    +0.025 A 
BRANCH  18  21
ATOM     21  S   LIG    1        4.375  -1.786  -0.043  0.00  0.00    +0.074 S 
ATOM     22  O   LIG    1        4.672  -2.548   1.228  0.00  0.00    -0.150 OA
ATOM     23  O   LIG    1        4.536  -2.732  -1.204  0.00  0.00    -0.150 OA
BRANCH  21  24
ATOM     24  N   LIG    1        5.471  -0.487  -0.161  0.00  0.00    -0.186 N 
ATOM     25  H   LIG    1        6.425  -0.579   0.299  0.00  0.00    +0.177 HD
ATOM     26  C   LIG    1        5.195   0.713  -0.835  0.00  0.00    +0.229 C 
ATOM     27  C   LIG    1        6.140   1.824  -0.930  0.00  0.00    +0.111 C 
ATOM     28  O   LIG    1        4.056   0.867  -1.406  0.00  0.00    -0.275 OA
ENDBRANCH  21  24
ENDBRANCH  18  21
ENDBRANCH   3  15
TORSDOF 6
