REMARK  Name = molecules/SOQJPQZCPBDOMF-YCUXZELOSA-N.pdb
REMARK                            x       y       z     vdW  Elec       q    Type
REMARK                         _______ _______ _______ _____ _____    ______ ____
ROOT
ATOM      1  C   LIG    1        1.601  -0.489   1.068  0.00  0.00    +0.181 C 
ATOM      2  C   LIG    1        1.367  -1.979   1.212  0.00  0.00    +0.038 C 
ATOM      3  C   LIG    1        2.111  -2.658   2.281  0.00  0.00    +0.012 C 
ATOM      4  C   LIG    1       -0.138  -2.123   1.316  0.00  0.00    +0.012 C 
ATOM      5  C   LIG    1       -0.576  -1.051   0.412  0.00  0.00    +0.006 C 
ATOM      6  C   LIG    1       -2.011  -0.656   0.459  0.00  0.00    +0.034 C 
ATOM      7  C   LIG    1       -2.871  -1.855   0.140  0.00  0.00    +0.011 C 
ATOM      8  C   LIG    1       -4.336  -1.388   0.270  0.00  0.00    +0.032 C 
ATOM      9  C   LIG    1       -4.473  -0.407  -0.877  0.00  0.00    -0.053 C 
ATOM     10  C   LIG    1       -3.596   0.800  -0.810  0.00  0.00    +0.044 C 
ATOM     11  C   LIG    1       -4.029   1.611   0.394  0.00  0.00    +0.023 C 
ATOM     12  C   LIG    1       -3.760   1.651  -1.994  0.00  0.00    -0.009 C 
ATOM     13  C   LIG    1       -4.569   1.413  -2.992  0.00  0.00    +0.047 C 
ATOM     14  C   LIG    1       -5.386   0.227  -2.975  0.00  0.00    +0.179 C 
ATOM     15  O   LIG    1       -6.180  -0.017  -3.939  0.00  0.00    -0.288 OA
ATOM     16  C   LIG    1       -5.295  -0.682  -1.854  0.00  0.00    +0.051 C 
ATOM     17  C   LIG    1       -2.172   0.333  -0.708  0.00  0.00    +0.153 C 
ATOM     18  C   LIG    1       -1.206   1.451  -0.661  0.00  0.00    +0.154 C 
ATOM     19  C   LIG    1        0.164   1.137  -0.203  0.00  0.00    +0.045 C 
ATOM     20  F   LIG    1       -1.915  -0.421  -1.841  0.00  0.00    -0.238 F 
ATOM     21  C   LIG    1        0.230   0.139   0.910  0.00  0.00    +0.021 C 
ATOM     22  C   LIG    1       -0.293   0.702   2.189  0.00  0.00    +0.016 C 
ENDROOT
BRANCH   1  23
ATOM     23  C   LIG    1        2.223   0.060   2.292  0.00  0.00    +0.202 C 
ATOM     24  O   LIG    1        1.817  -0.305   3.421  0.00  0.00    -0.291 OA
BRANCH  23  25
ATOM     25  C   LIG    1        3.322   1.044   2.356  0.00  0.00    +0.234 C 
BRANCH  25  26
ATOM     26  O   LIG    1        3.668   1.633   1.173  0.00  0.00    -0.387 OA
ATOM     27  H   LIG    1        3.078   2.380   0.926  0.00  0.00    +0.210 HD
ENDBRANCH  25  26
ENDBRANCH  23  25
ENDBRANCH   1  23
BRANCH  18  28
ATOM     28  O   LIG    1       -1.676   2.550   0.094  0.00  0.00    -0.389 OA
ATOM     29  H   LIG    1       -1.165   3.358  -0.206  0.00  0.00    +0.210 HD
ENDBRANCH  18  28
BRANCH   1  30
ATOM     30  O   LIG    1        2.321  -0.165  -0.073  0.00  0.00    -0.446 OA
BRANCH  30  31
ATOM     31  C   LIG    1        3.618  -0.548  -0.377  0.00  0.00    +0.340 C 
ATOM     32  O   LIG    1        4.226  -1.269   0.443  0.00  0.00    -0.245 OA
BRANCH  31  33
ATOM     33  C   LIG    1        4.299  -0.155  -1.596  0.00  0.00    +0.059 A 
ATOM     34  C   LIG    1        5.590  -0.561  -1.855  0.00  0.00    +0.015 A 
ATOM     35  C   LIG    1        6.267  -0.211  -2.994  0.00  0.00    +0.001 A 
ATOM     36  C   LIG    1        5.674   0.578  -3.945  0.00  0.00    +0.000 A 
ATOM     37  C   LIG    1        4.374   1.001  -3.710  0.00  0.00    +0.001 A 
ATOM     38  C   LIG    1        3.702   0.638  -2.552  0.00  0.00    +0.015 A 
ENDBRANCH  31  33
ENDBRANCH  30  31
ENDBRANCH   1  30
TORSDOF 7
