REMARK  Name = molecules/SOROIESOUPGGFO-YFKPBYRVSA-N.pdb
REMARK                            x       y       z     vdW  Elec       q    Type
REMARK                         _______ _______ _______ _____ _____    ______ ____
ROOT
ATOM      1  C   LIG    1       -0.210  -0.127  -0.183  0.00  0.00    +0.260 C 
ATOM      2  C   LIG    1       -1.006   1.141   0.093  0.00  0.00    +0.264 C 
ATOM      3  O   LIG    1       -0.744   2.068   0.890  0.00  0.00    -0.271 OA
ATOM      4  N   LIG    1       -2.119   1.008  -0.780  0.00  0.00    -0.199 N 
ATOM      5  C   LIG    1       -2.296  -0.407  -0.994  0.00  0.00    +0.316 C 
ATOM      6  O   LIG    1       -3.190  -0.925  -1.718  0.00  0.00    -0.252 OA
ATOM      7  N   LIG    1       -1.260  -1.077  -0.224  0.00  0.00    -0.235 N 
ENDROOT
BRANCH   1   8
ATOM      8  N   LIG    1        0.821  -0.224   0.762  0.00  0.00    -0.235 N 
ATOM      9  C   LIG    1        2.169  -0.093   0.323  0.00  0.00    +0.307 C 
ATOM     10  O   LIG    1        3.066  -0.167   1.245  0.00  0.00    -0.252 OA
ATOM     11  N   LIG    1        2.602   0.104  -0.991  0.00  0.00    -0.276 N 
ATOM     12  H   LIG    1        1.962   0.175  -1.794  0.00  0.00    +0.152 HD
BRANCH   8  13
ATOM     13  C   LIG    1        0.635  -0.427   2.195  0.00  0.00    +0.270 C 
BRANCH  13  14
ATOM     14  O   LIG    1        0.656  -1.773   2.549  0.00  0.00    -0.377 OA
ATOM     15  H   LIG    1        1.108  -2.322   1.849  0.00  0.00    +0.211 HD
ENDBRANCH  13  14
ENDBRANCH   8  13
BRANCH  11  16
ATOM     16  C   LIG    1        4.057   0.213  -1.217  0.00  0.00    +0.265 C 
BRANCH  16  17
ATOM     17  O   LIG    1        4.580   1.287  -0.506  0.00  0.00    -0.377 OA
ATOM     18  H   LIG    1        3.966   2.054  -0.567  0.00  0.00    +0.211 HD
ENDBRANCH  16  17
ENDBRANCH  11  16
ENDBRANCH   1   8
BRANCH   4  19
ATOM     19  C   LIG    1       -2.904   2.106  -1.328  0.00  0.00    +0.276 C 
BRANCH  19  20
ATOM     20  O   LIG    1       -3.935   2.358  -0.442  0.00  0.00    -0.376 OA
ATOM     21  H   LIG    1       -3.590   2.964   0.279  0.00  0.00    +0.211 HD
ENDBRANCH  19  20
ENDBRANCH   4  19
BRANCH   7  22
ATOM     22  C   LIG    1       -1.492  -2.409   0.258  0.00  0.00    +0.270 C 
BRANCH  22  23
ATOM     23  O   LIG    1       -2.096  -2.466   1.515  0.00  0.00    -0.377 OA
ATOM     24  H   LIG    1       -2.542  -1.626   1.767  0.00  0.00    +0.211 HD
ENDBRANCH  22  23
ENDBRANCH   7  22
TORSDOF 9
