REMARK  Name = molecules/SOXAGEOHPCXXIO-HEHGZKQESA-N.pdb
REMARK                            x       y       z     vdW  Elec       q    Type
REMARK                         _______ _______ _______ _____ _____    ______ ____
ROOT
ATOM      1  O   LIG    1        0.801   0.124   0.012  0.00  0.00    -0.458 OA
ENDROOT
BRANCH   1   3
ATOM      2  C   LIG    1       -1.536   0.300  -0.647  0.00  0.00    +0.032 C 
ATOM      3  C   LIG    1       -0.491   0.542   0.374  0.00  0.00    +0.180 C 
ATOM      4  C   LIG    1       -0.848  -0.030   1.724  0.00  0.00    +0.048 C 
ATOM      5  C   LIG    1       -1.082  -1.506   1.705  0.00  0.00    -0.011 C 
ATOM      6  C   LIG    1       -2.037  -1.980   2.767  0.00  0.00    +0.007 C 
ATOM      7  C   LIG    1       -1.625  -1.903   0.349  0.00  0.00    +0.004 C 
ATOM      8  C   LIG    1       -2.503  -0.736  -0.110  0.00  0.00    +0.007 C 
BRANCH   2   9
ATOM      9  C   LIG    1       -2.314   1.549  -0.969  0.00  0.00    -0.011 C 
ATOM     10  C   LIG    1       -2.982   2.152   0.220  0.00  0.00    +0.007 C 
ATOM     11  C   LIG    1       -3.351   1.202  -2.016  0.00  0.00    +0.007 C 
ENDBRANCH   2   9
ENDBRANCH   1   3
BRANCH   1  12
ATOM     12  C   LIG    1        1.881   0.970  -0.107  0.00  0.00    +0.341 C 
ATOM     13  O   LIG    1        1.654   2.193   0.134  0.00  0.00    -0.245 OA
BRANCH  12  14
ATOM     14  C   LIG    1        3.209   0.561  -0.476  0.00  0.00    +0.080 A 
ATOM     15  C   LIG    1        4.238   1.471  -0.573  0.00  0.00    +0.017 A 
ATOM     16  C   LIG    1        5.529   1.126  -0.924  0.00  0.00    +0.001 A 
ATOM     17  C   LIG    1        5.829  -0.187  -1.195  0.00  0.00    +0.002 A 
ATOM     18  C   LIG    1        4.813  -1.103  -1.103  0.00  0.00    +0.023 A 
ATOM     19  C   LIG    1        3.506  -0.765  -0.749  0.00  0.00    +0.039 A 
BRANCH  19  20
ATOM     20  N   LIG    1        2.521  -1.782  -0.680  0.00  0.00    -0.357 N 
ATOM     21  H   LIG    1        2.117  -2.035   0.239  0.00  0.00    +0.142 HD
ATOM     22  H   LIG    1        2.193  -2.278  -1.525  0.00  0.00    +0.142 HD
ENDBRANCH  19  20
ENDBRANCH  12  14
ENDBRANCH   1  12
TORSDOF 5
