REMARK  Name = molecules/SPMVMDHWKHCIDT-UHFFFAOYSA-N.pdb
REMARK                            x       y       z     vdW  Elec       q    Type
REMARK                         _______ _______ _______ _____ _____    ______ ____
ROOT
ATOM      1  C   LIG    1       -0.237  -0.658  -0.054  0.00  0.00    +0.130 A 
ATOM      2  C   LIG    1        0.365   0.243   0.792  0.00  0.00    +0.048 A 
ATOM      3  C   LIG    1        1.596   0.809   0.574  0.00  0.00    +0.028 A 
ATOM      4  C   LIG    1        2.331   0.501  -0.544  0.00  0.00    +0.053 A 
ATOM      5  C   LIG    1        1.763  -0.422  -1.448  0.00  0.00    +0.066 A 
ATOM      6 CL   LIG    1        2.641  -0.888  -2.898  0.00  0.00    -0.082 Cl
ATOM      7  C   LIG    1        0.538  -0.966  -1.199  0.00  0.00    +0.068 A 
ENDROOT
BRANCH   4   8
ATOM      8  N   LIG    1        3.568   1.048  -0.913  0.00  0.00    -0.268 N 
ATOM      9  C   LIG    1        4.338   1.952  -0.143  0.00  0.00    +0.309 C 
ATOM     10  O   LIG    1        3.993   2.362   1.008  0.00  0.00    -0.252 OA
ATOM     11  N   LIG    1        5.567   2.421  -0.713  0.00  0.00    -0.251 N 
ATOM     12  H   LIG    1        5.853   2.096  -1.634  0.00  0.00    +0.158 HD
ATOM     13  H   LIG    1        3.987   0.774  -1.863  0.00  0.00    +0.156 HD
BRANCH  11  14
ATOM     14  C   LIG    1        6.359   3.337   0.010  0.00  0.00    +0.169 A 
ATOM     15  N   LIG    1        6.191   3.894   1.234  0.00  0.00    -0.063 NA
ATOM     16  O   LIG    1        7.178   4.694   1.481  0.00  0.00    -0.358 OA
ATOM     17  C   LIG    1        8.045   4.751   0.519  0.00  0.00    +0.136 A 
ATOM     18  C   LIG    1        9.309   5.574   0.471  0.00  0.00    +0.089 C 
ATOM     19  C   LIG    1        7.558   3.889  -0.458  0.00  0.00    +0.091 A 
ENDBRANCH  11  14
ENDBRANCH   4   8
BRANCH   1  20
ATOM     20  O   LIG    1       -1.396  -1.224   0.086  0.00  0.00    -0.455 OA
BRANCH  20  26
ATOM     21  C   LIG    1       -5.571  -3.381   0.467  0.00  0.00    +0.077 A 
ATOM     22  C   LIG    1       -4.235  -3.312   0.775  0.00  0.00    +0.078 A 
ATOM     23  N   LIG    1       -3.636  -4.277   1.560  0.00  0.00    -0.255 NA
ATOM     24  C   LIG    1       -2.337  -4.201   1.825  0.00  0.00    +0.115 A 
ATOM     25  C   LIG    1       -1.512  -3.218   1.376  0.00  0.00    +0.066 A 
ATOM     26  C   LIG    1       -2.095  -2.204   0.565  0.00  0.00    +0.139 A 
ATOM     27  C   LIG    1       -3.470  -2.313   0.303  0.00  0.00    +0.046 A 
ATOM     28  C   LIG    1       -4.050  -1.331  -0.515  0.00  0.00    +0.063 A 
ATOM     29  C   LIG    1       -5.384  -1.377  -0.838  0.00  0.00    +0.162 A 
ATOM     30  C   LIG    1       -6.179  -2.426  -0.339  0.00  0.00    +0.164 A 
BRANCH  29  31
ATOM     31  O   LIG    1       -5.994  -0.417  -1.649  0.00  0.00    -0.491 OA
ATOM     32  C   LIG    1       -5.192   0.638  -2.145  0.00  0.00    +0.277 C 
ENDBRANCH  29  31
BRANCH  30  33
ATOM     33  O   LIG    1       -7.511  -2.468  -0.668  0.00  0.00    -0.491 OA
ATOM     34  C   LIG    1       -8.390  -3.474  -0.253  0.00  0.00    +0.277 C 
ENDBRANCH  30  33
ENDBRANCH  20  26
ENDBRANCH   1  20
TORSDOF 6
