REMARK  Name = molecules/SPOAFZKFCYREMW-UDHCHFQSSA-N.pdb
REMARK                            x       y       z     vdW  Elec       q    Type
REMARK                         _______ _______ _______ _____ _____    ______ ____
ROOT
ATOM      1  C   LIG    1       -0.763  -2.157   0.965  0.00  0.00    +0.065 C 
ATOM      2  C   LIG    1       -1.230  -3.509   0.602  0.00  0.00    +0.140 C 
ATOM      3  O   LIG    1       -1.534  -4.374   1.387  0.00  0.00    -0.297 OA
ATOM      4  C   LIG    1       -1.274  -3.658  -0.874  0.00  0.00    +0.106 C 
ATOM      5  C   LIG    1       -0.493  -2.526  -1.435  0.00  0.00    +0.129 C 
ATOM      6  C   LIG    1       -0.180  -1.617  -0.294  0.00  0.00    +0.050 C 
ENDROOT
BRANCH   6   7
ATOM      7  C   LIG    1        1.311  -1.551  -0.158  0.00  0.00    -0.024 C 
ATOM      8  C   LIG    1        1.963  -0.402  -0.271  0.00  0.00    -0.028 C 
BRANCH   8   9
ATOM      9  C   LIG    1        3.433  -0.394  -0.128  0.00  0.00    +0.061 C 
BRANCH   9  10
ATOM     10  C   LIG    1        3.795   0.504   1.037  0.00  0.00    +0.067 C 
ATOM     11  C   LIG    1        3.084   1.800   0.929  0.00  0.00    +0.041 C 
BRANCH  10  12
ATOM     12  O   LIG    1        3.251  -0.171   2.171  0.00  0.00    -0.389 OA
ATOM     13  H   LIG    1        3.807  -0.954   2.404  0.00  0.00    +0.210 HD
ENDBRANCH  10  12
BRANCH  10  14
ATOM     14  C   LIG    1        5.260   0.567   1.282  0.00  0.00    +0.035 C 
BRANCH  14  15
ATOM     15  C   LIG    1        6.127   1.055   0.186  0.00  0.00    +0.003 C 
BRANCH  15  16
ATOM     16  C   LIG    1        5.862   2.450  -0.269  0.00  0.00    -0.003 C 
ATOM     17  C   LIG    1        6.877   2.747  -1.374  0.00  0.00    +0.004 C 
ENDBRANCH  15  16
ENDBRANCH  14  15
ENDBRANCH  10  14
ENDBRANCH   9  10
ENDBRANCH   8   9
ENDBRANCH   6   7
BRANCH   5  18
ATOM     18  O   LIG    1       -1.143  -1.875  -2.484  0.00  0.00    -0.391 OA
ATOM     19  H   LIG    1       -0.826  -0.930  -2.462  0.00  0.00    +0.210 HD
ENDBRANCH   5  18
BRANCH   1  20
ATOM     20  C   LIG    1       -1.877  -1.296   1.520  0.00  0.00    +0.012 C 
BRANCH  20  21
ATOM     21  C   LIG    1       -2.967  -1.226   0.475  0.00  0.00    +0.001 C 
BRANCH  21  22
ATOM     22  C   LIG    1       -4.137  -0.370   0.960  0.00  0.00    +0.000 C 
BRANCH  22  23
ATOM     23  C   LIG    1       -5.156  -0.366  -0.143  0.00  0.00    +0.000 C 
BRANCH  23  24
ATOM     24  C   LIG    1       -6.380   0.446   0.192  0.00  0.00    +0.002 C 
BRANCH  24  25
ATOM     25  C   LIG    1       -6.077   1.883   0.466  0.00  0.00    +0.028 C 
BRANCH  25  26
ATOM     26  C   LIG    1       -5.439   2.475  -0.772  0.00  0.00    +0.156 C 
BRANCH  26  27
ATOM     27  O   LIG    1       -6.330   2.362  -1.837  0.00  0.00    -0.395 OA
ATOM     28  H   LIG    1       -7.263   2.269  -1.565  0.00  0.00    +0.209 HD
ENDBRANCH  26  27
ENDBRANCH  25  26
ENDBRANCH  24  25
ENDBRANCH  23  24
ENDBRANCH  22  23
ENDBRANCH  21  22
ENDBRANCH  20  21
ENDBRANCH   1  20
TORSDOF 16
