REMARK  Name = molecules/SQKXYSGRELMAAU-UHFFFAOYSA-N.pdb
REMARK                            x       y       z     vdW  Elec       q    Type
REMARK                         _______ _______ _______ _____ _____    ______ ____
ROOT
ATOM      1  C   LIG    1       -0.508  -0.368   0.386  0.00  0.00    +0.098 C 
ENDROOT
BRANCH   1   2
ATOM      2  C   LIG    1       -1.616  -1.207  -0.174  0.00  0.00    -0.028 A 
ATOM      3  C   LIG    1       -2.906  -0.976   0.229  0.00  0.00    +0.005 A 
ATOM      4  C   LIG    1       -3.971  -1.720  -0.264  0.00  0.00    +0.000 A 
ATOM      5  C   LIG    1       -3.733  -2.722  -1.185  0.00  0.00    +0.000 A 
ATOM      6  C   LIG    1       -2.431  -2.954  -1.590  0.00  0.00    +0.000 A 
ATOM      7  C   LIG    1       -1.387  -2.194  -1.080  0.00  0.00    +0.005 A 
ENDBRANCH   1   2
BRANCH   1   8
ATOM      8  C   LIG    1       -1.001   1.006   0.472  0.00  0.00    -0.028 A 
ATOM      9  C   LIG    1       -1.022   1.732   1.641  0.00  0.00    +0.005 A 
ATOM     10  C   LIG    1       -1.504   3.028   1.627  0.00  0.00    +0.000 A 
ATOM     11  C   LIG    1       -1.967   3.619   0.461  0.00  0.00    +0.000 A 
ATOM     12  C   LIG    1       -1.942   2.879  -0.716  0.00  0.00    +0.000 A 
ATOM     13  C   LIG    1       -1.465   1.590  -0.707  0.00  0.00    +0.005 A 
ENDBRANCH   1   8
BRANCH   1  14
ATOM     14  C   LIG    1       -0.161  -0.990   1.690  0.00  0.00    +0.225 C 
ATOM     15  N   LIG    1       -1.005  -1.018   2.830  0.00  0.00    -0.328 N 
ATOM     16  H   LIG    1       -0.621  -0.739   3.771  0.00  0.00    +0.145 HD
ATOM     17  H   LIG    1       -1.990  -1.321   2.694  0.00  0.00    +0.145 HD
ATOM     18  O   LIG    1        0.952  -1.543   1.834  0.00  0.00    -0.275 OA
ENDBRANCH   1  14
BRANCH   1  19
ATOM     19  C   LIG    1        0.729  -0.392  -0.476  0.00  0.00    +0.047 C 
BRANCH  19  20
ATOM     20  C   LIG    1        1.758   0.528   0.131  0.00  0.00    +0.124 C 
BRANCH  20  21
ATOM     21  N   LIG    1        2.983   0.559  -0.626  0.00  0.00    -0.334 N 
ATOM     22  C   LIG    1        4.051  -0.234  -0.470  0.00  0.00    +0.106 A 
ATOM     23  C   LIG    1        4.252  -1.329   0.500  0.00  0.00    +0.086 C 
ATOM     24  N   LIG    1        4.991   0.130  -1.387  0.00  0.00    -0.241 NA
ATOM     25  C   LIG    1        4.514   1.161  -2.129  0.00  0.00    +0.130 A 
ATOM     26  C   LIG    1        3.242   1.412  -1.626  0.00  0.00    +0.107 A 
ENDBRANCH  20  21
ENDBRANCH  19  20
ENDBRANCH   1  19
TORSDOF 6
