REMARK  Name = molecules/SQQCWHCJRWYRLB-GCDIXUMDSA-N.pdb
REMARK                            x       y       z     vdW  Elec       q    Type
REMARK                         _______ _______ _______ _____ _____    ______ ____
ROOT
ATOM      1  S   LIG    1        0.486   0.088  -3.744  0.00  0.00    +0.025 S 
ATOM      2  O   LIG    1        0.336  -1.330  -4.214  0.00  0.00    -0.164 OA
ATOM      3  O   LIG    1        0.795   1.018  -4.881  0.00  0.00    -0.164 OA
ENDROOT
BRANCH   1   9
ATOM      4  C   LIG    1        2.483   1.284  -2.288  0.00  0.00    +0.029 A 
ATOM      5  C   LIG    1        3.485   1.325  -1.336  0.00  0.00    +0.025 A 
ATOM      6  C   LIG    1        3.747   0.188  -0.629  0.00  0.00    +0.029 A 
ATOM      7  C   LIG    1        3.031  -0.950  -0.869  0.00  0.00    +0.025 A 
ATOM      8  C   LIG    1        2.019  -1.005  -1.827  0.00  0.00    +0.029 A 
ATOM      9  C   LIG    1        1.748   0.122  -2.537  0.00  0.00    +0.094 A 
BRANCH   6  10
ATOM     10  N   LIG    1        4.771   0.172   0.379  0.00  0.00    -0.319 N 
ATOM     11  H   LIG    1        4.982  -0.717   0.882  0.00  0.00    +0.148 HD
BRANCH  10  12
ATOM     12  C   LIG    1        5.490   1.328   0.782  0.00  0.00    +0.275 C 
BRANCH  12  13
ATOM     13  S   LIG    1        4.490   2.247   1.975  0.00  0.00    +0.102 S 
ATOM     14  O   LIG    1        4.270   1.367   3.174  0.00  0.00    -0.145 OA
ATOM     15  O   LIG    1        3.175   2.557   1.368  0.00  0.00    -0.145 OA
BRANCH  13  16
ATOM     16  O   LIG    1        5.317   3.595   2.481  0.00  0.00    -0.252 OA
ATOM     17  H   LIG    1        5.455   4.253   1.768  0.00  0.00    +0.245 HD
ENDBRANCH  13  16
ENDBRANCH  12  13
BRANCH  12  18
ATOM     18  C   LIG    1        6.777   0.974   1.482  0.00  0.00    +0.190 C 
BRANCH  18  19
ATOM     19  O   LIG    1        7.284   2.275   1.969  0.00  0.00    -0.386 OA
ATOM     20  H   LIG    1        8.254   2.147   2.142  0.00  0.00    +0.210 HD
ENDBRANCH  18  19
BRANCH  18  21
ATOM     21  C   LIG    1        7.877   0.469   0.603  0.00  0.00    +0.177 C 
BRANCH  21  22
ATOM     22  O   LIG    1        9.027   0.389   1.456  0.00  0.00    -0.386 OA
ATOM     23  H   LIG    1        9.828   0.647   0.948  0.00  0.00    +0.210 HD
ENDBRANCH  21  22
BRANCH  21  24
ATOM     24  C   LIG    1        7.787  -0.819  -0.099  0.00  0.00    +0.176 C 
BRANCH  24  25
ATOM     25  O   LIG    1        6.739  -1.014  -0.973  0.00  0.00    -0.386 OA
ATOM     26  H   LIG    1        6.452  -1.946  -1.018  0.00  0.00    +0.210 HD
ENDBRANCH  24  25
BRANCH  24  27
ATOM     27  C   LIG    1        8.092  -2.064   0.672  0.00  0.00    +0.171 C 
BRANCH  27  28
ATOM     28  O   LIG    1        8.465  -3.042  -0.285  0.00  0.00    -0.387 OA
ATOM     29  H   LIG    1        7.830  -3.784  -0.226  0.00  0.00    +0.210 HD
ENDBRANCH  27  28
BRANCH  27  30
ATOM     30  C   LIG    1        6.963  -2.590   1.516  0.00  0.00    +0.189 C 
BRANCH  30  31
ATOM     31  O   LIG    1        7.388  -3.773   2.165  0.00  0.00    -0.392 OA
ATOM     32  H   LIG    1        8.358  -3.783   2.304  0.00  0.00    +0.210 HD
ENDBRANCH  30  31
ENDBRANCH  27  30
ENDBRANCH  24  27
ENDBRANCH  21  24
ENDBRANCH  18  21
ENDBRANCH  12  18
ENDBRANCH  10  12
ENDBRANCH   6  10
ENDBRANCH   1   9
BRANCH   1  33
ATOM     33  C   LIG    1       -1.021   0.544  -2.954  0.00  0.00    +0.094 A 
ATOM     34  C   LIG    1       -1.808  -0.437  -2.397  0.00  0.00    +0.029 A 
ATOM     35  C   LIG    1       -3.003  -0.110  -1.766  0.00  0.00    +0.025 A 
ATOM     36  C   LIG    1       -3.403   1.201  -1.697  0.00  0.00    +0.029 A 
ATOM     37  C   LIG    1       -2.613   2.176  -2.255  0.00  0.00    +0.025 A 
ATOM     38  C   LIG    1       -1.429   1.848  -2.880  0.00  0.00    +0.029 A 
BRANCH  36  39
ATOM     39  N   LIG    1       -4.590   1.543  -1.052  0.00  0.00    -0.319 N 
ATOM     40  H   LIG    1       -4.980   2.514  -1.228  0.00  0.00    +0.148 HD
BRANCH  39  41
ATOM     41  C   LIG    1       -5.329   0.643  -0.150  0.00  0.00    +0.275 C 
BRANCH  41  42
ATOM     42  S   LIG    1       -4.366   0.487   1.318  0.00  0.00    +0.102 S 
ATOM     43  O   LIG    1       -4.360   1.806   2.093  0.00  0.00    -0.145 OA
ATOM     44  O   LIG    1       -2.936   0.245   0.962  0.00  0.00    -0.145 OA
BRANCH  42  45
ATOM     45  O   LIG    1       -4.991  -0.644   2.374  0.00  0.00    -0.252 OA
ATOM     46  H   LIG    1       -4.249  -1.046   2.873  0.00  0.00    +0.245 HD
ENDBRANCH  42  45
ENDBRANCH  41  42
BRANCH  41  47
ATOM     47  C   LIG    1       -6.679   1.226   0.059  0.00  0.00    +0.190 C 
BRANCH  47  48
ATOM     48  O   LIG    1       -6.579   2.484   0.630  0.00  0.00    -0.386 OA
ATOM     49  H   LIG    1       -6.540   3.155  -0.091  0.00  0.00    +0.210 HD
ENDBRANCH  47  48
BRANCH  47  50
ATOM     50  C   LIG    1       -7.627   0.376   0.847  0.00  0.00    +0.177 C 
BRANCH  50  51
ATOM     51  O   LIG    1       -8.872   1.050   0.813  0.00  0.00    -0.386 OA
ATOM     52  H   LIG    1       -8.894   1.658   1.593  0.00  0.00    +0.210 HD
ENDBRANCH  50  51
BRANCH  50  53
ATOM     53  C   LIG    1       -7.873  -0.972   0.232  0.00  0.00    +0.176 C 
BRANCH  53  54
ATOM     54  O   LIG    1       -8.324  -0.865  -1.087  0.00  0.00    -0.386 OA
ATOM     55  H   LIG    1       -7.800  -1.472  -1.672  0.00  0.00    +0.210 HD
ENDBRANCH  53  54
BRANCH  53  56
ATOM     56  C   LIG    1       -9.026  -1.608   1.000  0.00  0.00    +0.171 C 
BRANCH  56  57
ATOM     57  O   LIG    1      -10.174  -0.805   0.928  0.00  0.00    -0.387 OA
ATOM     58  H   LIG    1      -10.378  -0.555  -0.007  0.00  0.00    +0.210 HD
ENDBRANCH  56  57
BRANCH  56  59
ATOM     59  C   LIG    1       -8.678  -1.848   2.447  0.00  0.00    +0.189 C 
BRANCH  59  60
ATOM     60  O   LIG    1       -7.523  -2.652   2.462  0.00  0.00    -0.392 OA
ATOM     61  H   LIG    1       -7.878  -3.593   2.378  0.00  0.00    +0.210 HD
ENDBRANCH  59  60
ENDBRANCH  56  59
ENDBRANCH  53  56
ENDBRANCH  50  53
ENDBRANCH  47  50
ENDBRANCH  41  47
ENDBRANCH  39  41
ENDBRANCH  36  39
ENDBRANCH   1  33
TORSDOF 30
