REMARK  Name = molecules/SQUNAWUMZGQQJD-CQSZACIVSA-N.pdb
REMARK                            x       y       z     vdW  Elec       q    Type
REMARK                         _______ _______ _______ _____ _____    ______ ____
ROOT
ATOM      1  C   LIG    1        0.542   0.087   0.640  0.00  0.00    +0.167 C 
ATOM      2  O   LIG    1        0.148   0.414   1.804  0.00  0.00    -0.292 OA
ENDROOT
BRANCH   1   3
ATOM      3  C   LIG    1        1.952   0.085   0.366  0.00  0.00    +0.018 A 
ATOM      4  C   LIG    1        2.829   0.543   1.355  0.00  0.00    +0.011 A 
ATOM      5  C   LIG    1        4.192   0.526   1.176  0.00  0.00    +0.004 A 
ATOM      6  C   LIG    1        4.755   0.055   0.009  0.00  0.00    -0.048 A 
ATOM      7  C   LIG    1        3.886  -0.398  -0.976  0.00  0.00    +0.004 A 
ATOM      8  C   LIG    1        2.493  -0.387  -0.804  0.00  0.00    +0.011 A 
BRANCH   6   9
ATOM      9  C   LIG    1        6.220   0.007  -0.201  0.00  0.00    +0.032 C 
ATOM     10  C   LIG    1        6.795  -1.314   0.303  0.00  0.00    +0.009 C 
ENDBRANCH   6   9
ENDBRANCH   1   3
BRANCH   1  11
ATOM     11  C   LIG    1       -0.514  -0.271  -0.368  0.00  0.00    +0.071 C 
ATOM     12  C   LIG    1       -0.510   0.769  -1.471  0.00  0.00    +0.017 C 
BRANCH  11  13
ATOM     13  C   LIG    1       -1.784  -0.346   0.402  0.00  0.00    +0.095 C 
BRANCH  13  14
ATOM     14  N   LIG    1       -3.002  -0.688  -0.211  0.00  0.00    -0.302 NA
ATOM     15  C   LIG    1       -3.993  -1.039   0.849  0.00  0.00    +0.084 C 
ATOM     16  C   LIG    1       -5.393  -0.723   0.459  0.00  0.00    +0.015 C 
ATOM     17  C   LIG    1       -5.556   0.781   0.399  0.00  0.00    +0.002 C 
ATOM     18  C   LIG    1       -4.416   1.319  -0.408  0.00  0.00    +0.015 C 
ATOM     19  C   LIG    1       -3.620   0.238  -1.110  0.00  0.00    +0.084 C 
ENDBRANCH  13  14
ENDBRANCH  11  13
ENDBRANCH   1  11
TORSDOF 5
