REMARK  Name = molecules/SQVIAVUSQAWMKL-JTQLQIEISA-N.pdb
REMARK                            x       y       z     vdW  Elec       q    Type
REMARK                         _______ _______ _______ _____ _____    ______ ____
ROOT
ATOM      1  C   LIG    1        0.177  -0.359  -0.754  0.00  0.00    +0.158 C 
ENDROOT
BRANCH   1   2
ATOM      2  C   LIG    1       -1.220  -0.082  -0.405  0.00  0.00    -0.014 A 
ATOM      3  C   LIG    1       -1.681   1.211  -0.152  0.00  0.00    +0.006 A 
ATOM      4  C   LIG    1       -3.012   1.444   0.172  0.00  0.00    +0.004 A 
ATOM      5  C   LIG    1       -3.906   0.388   0.251  0.00  0.00    +0.045 A 
ATOM      6  C   LIG    1       -3.454  -0.911   0.001  0.00  0.00    +0.117 A 
ATOM      7  C   LIG    1       -2.135  -1.134  -0.320  0.00  0.00    +0.051 A 
BRANCH   6   8
ATOM      8  O   LIG    1       -4.354  -1.944   0.086  0.00  0.00    -0.507 OA
ATOM      9  H   LIG    1       -4.519  -2.450   0.956  0.00  0.00    +0.292 HD
ENDBRANCH   6   8
ENDBRANCH   1   2
BRANCH   1  10
ATOM     10  O   LIG    1        0.659   0.608  -1.621  0.00  0.00    -0.386 OA
ATOM     11  H   LIG    1        0.815   1.454  -1.141  0.00  0.00    +0.210 HD
ENDBRANCH   1  10
BRANCH   1  12
ATOM     12  C   LIG    1        1.051  -0.562   0.463  0.00  0.00    +0.117 C 
BRANCH  12  13
ATOM     13  N   LIG    1        2.363  -0.996   0.222  0.00  0.00    -0.313 NA
ATOM     14  H   LIG    1        2.566  -1.992   0.285  0.00  0.00    +0.122 HD
BRANCH  13  15
ATOM     15  C   LIG    1        3.296  -0.134  -0.370  0.00  0.00    +0.077 C 
ATOM     16  C   LIG    1        3.752   1.033   0.484  0.00  0.00    +0.020 C 
ENDBRANCH  13  15
ENDBRANCH  12  13
ENDBRANCH   1  12
TORSDOF 6
