REMARK  Name = molecules/SRBFZHDQGSBBOR-LECHCGJUSA-N.pdb
REMARK                            x       y       z     vdW  Elec       q    Type
REMARK                         _______ _______ _______ _____ _____    ______ ____
ROOT
ATOM      1  C   LIG    1       -1.555   0.031   0.116  0.00  0.00    +0.171 C 
ATOM      2  C   LIG    1       -0.373   0.944   0.169  0.00  0.00    +0.178 C 
ATOM      3  C   LIG    1        0.913   0.343  -0.244  0.00  0.00    +0.201 C 
ATOM      4  C   LIG    1        1.062  -1.113  -0.011  0.00  0.00    +0.279 C 
ATOM      5  O   LIG    1       -0.093  -1.760   0.393  0.00  0.00    -0.346 OA
ATOM      6  C   LIG    1       -1.118  -1.306  -0.470  0.00  0.00    +0.197 C 
ENDROOT
BRANCH   1   7
ATOM      7  O   LIG    1       -2.048  -0.216   1.388  0.00  0.00    -0.387 OA
ATOM      8  H   LIG    1       -2.477   0.609   1.752  0.00  0.00    +0.210 HD
ENDBRANCH   1   7
BRANCH   3   9
ATOM      9  O   LIG    1        1.944   1.017   0.448  0.00  0.00    -0.384 OA
ATOM     10  H   LIG    1        2.216   1.844  -0.019  0.00  0.00    +0.210 HD
ENDBRANCH   3   9
BRANCH   4  11
ATOM     11  O   LIG    1        2.072  -1.413   0.922  0.00  0.00    -0.365 OA
ATOM     12  H   LIG    1        2.946  -1.365   0.437  0.00  0.00    +0.213 HD
ENDBRANCH   4  11
BRANCH   2  13
ATOM     13  O   LIG    1       -0.647   2.016  -0.713  0.00  0.00    -0.386 OA
ATOM     14  H   LIG    1        0.049   2.713  -0.593  0.00  0.00    +0.210 HD
ENDBRANCH   2  13
TORSDOF 4
