REMARK  Name = molecules/SRPNQDXRVRCTNK-UHFFFAOYSA-N.pdb
REMARK                            x       y       z     vdW  Elec       q    Type
REMARK                         _______ _______ _______ _____ _____    ______ ____
ROOT
ATOM      1  C   LIG    1       -1.208   0.692   0.434  0.00  0.00    +0.218 C 
ATOM      2  O   LIG    1       -1.504   1.891   0.725  0.00  0.00    -0.275 OA
ATOM      3  N   LIG    1        0.158   0.333   0.485  0.00  0.00    -0.315 N 
ATOM      4  H   LIG    1        0.419  -0.659   0.247  0.00  0.00    +0.149 HD
ENDROOT
BRANCH   1   5
ATOM      5  C   LIG    1       -2.318  -0.188   0.076  0.00  0.00    +0.039 C 
ATOM      6  C   LIG    1       -3.252  -0.329   1.256  0.00  0.00    +0.020 C 
ATOM      7  C   LIG    1       -1.949  -1.554  -0.386  0.00  0.00    +0.020 C 
ATOM      8  C   LIG    1       -3.089   0.503  -1.044  0.00  0.00    +0.020 C 
ENDBRANCH   1   5
BRANCH   3   9
ATOM      9  C   LIG    1        1.187   1.285   0.853  0.00  0.00    +0.105 C 
BRANCH   9  10
ATOM     10  C   LIG    1        2.569   0.675   0.829  0.00  0.00    +0.030 C 
BRANCH  10  11
ATOM     11  C   LIG    1        2.902   0.139  -0.557  0.00  0.00    +0.122 C 
BRANCH  11  12
ATOM     12  C   LIG    1        4.266  -0.423  -0.457  0.00  0.00    +0.305 C 
ATOM     13  O   LIG    1        5.206   0.173  -1.030  0.00  0.00    -0.251 OA
BRANCH  12  14
ATOM     14  O   LIG    1        4.492  -1.571   0.253  0.00  0.00    -0.481 OA
ATOM     15  H   LIG    1        4.921  -1.561   1.188  0.00  0.00    +0.295 HD
ENDBRANCH  12  14
ENDBRANCH  11  12
ENDBRANCH  10  11
ENDBRANCH   9  10
ENDBRANCH   3   9
TORSDOF 6
