REMARK  Name = molecules/SRVJKTDHMYAMHA-UHFFFAOYSA-N.pdb
REMARK                            x       y       z     vdW  Elec       q    Type
REMARK                         _______ _______ _______ _____ _____    ______ ____
ROOT
ATOM      1  C   LIG    1       -2.082  -0.267  -0.155  0.00  0.00    +0.033 A 
ATOM      2  C   LIG    1       -1.370   0.201   0.909  0.00  0.00    +0.024 A 
ATOM      3  C   LIG    1        0.011   0.358   0.809  0.00  0.00    +0.011 A 
ATOM      4  C   LIG    1        0.721   0.059  -0.331  0.00  0.00    -0.005 A 
ATOM      5  C   LIG    1       -0.025  -0.412  -1.389  0.00  0.00    +0.011 A 
ATOM      6  C   LIG    1       -1.386  -0.572  -1.307  0.00  0.00    +0.024 A 
ENDROOT
BRANCH   1   7
ATOM      7  N   LIG    1       -3.467  -0.428  -0.117  0.00  0.00    -0.286 N 
ATOM      8  C   LIG    1       -4.303   0.104   0.865  0.00  0.00    +0.214 C 
ATOM      9  O   LIG    1       -3.901   0.782   1.806  0.00  0.00    -0.276 OA
ATOM     10  C   LIG    1       -5.804  -0.129   0.828  0.00  0.00    +0.109 C 
ATOM     11  H   LIG    1       -3.886  -1.012  -0.910  0.00  0.00    +0.155 HD
ENDBRANCH   1   7
BRANCH   4  12
ATOM     12  C   LIG    1        2.169   0.231  -0.415  0.00  0.00    +0.138 C 
ATOM     13  N   LIG    1        2.812   0.675   0.604  0.00  0.00    -0.188 NA
BRANCH  13  14
ATOM     14  N   LIG    1        4.175   0.877   0.642  0.00  0.00    -0.219 N 
ATOM     15  H   LIG    1        4.563   1.777   0.999  0.00  0.00    +0.176 HD
BRANCH  14  16
ATOM     16  C   LIG    1        5.075  -0.138   0.196  0.00  0.00    +0.147 C 
ATOM     17  S   LIG    1        4.509  -1.561  -0.370  0.00  0.00    -0.017 S 
BRANCH  16  18
ATOM     18  N   LIG    1        6.482   0.063   0.232  0.00  0.00    -0.339 N 
ATOM     19  H   LIG    1        6.950   0.447   1.080  0.00  0.00    +0.144 HD
ATOM     20  H   LIG    1        7.061  -0.175  -0.593  0.00  0.00    +0.144 HD
ENDBRANCH  16  18
ENDBRANCH  14  16
ENDBRANCH  13  14
ENDBRANCH   4  12
TORSDOF 5
