REMARK  Name = molecules/SRZGFCNCQUMTCP-MRVPVSSYSA-N.pdb
REMARK                            x       y       z     vdW  Elec       q    Type
REMARK                         _______ _______ _______ _____ _____    ______ ____
ROOT
ATOM      1  C   LIG    1        1.241   0.719   0.129  0.00  0.00    +0.348 C 
ATOM      2  O   LIG    1        1.488   1.940   0.043  0.00  0.00    -0.247 OA
ENDROOT
BRANCH   1   3
ATOM      3  C   LIG    1        2.272  -0.280  -0.170  0.00  0.00    +0.281 C 
ATOM      4  C   LIG    1        1.849  -1.231  -1.298  0.00  0.00    +0.064 C 
BRANCH   3   5
ATOM      5  O   LIG    1        3.500   0.265  -0.543  0.00  0.00    -0.450 OA
BRANCH   5   6
ATOM      6  C   LIG    1        4.673  -0.011   0.150  0.00  0.00    +0.305 C 
ATOM      7  O   LIG    1        4.571  -0.782   1.140  0.00  0.00    -0.251 OA
ATOM      8  C   LIG    1        5.992   0.582  -0.261  0.00  0.00    +0.136 C 
ENDBRANCH   5   6
ENDBRANCH   3   5
ENDBRANCH   1   3
BRANCH   1   9
ATOM      9  O   LIG    1       -0.023   0.319   0.512  0.00  0.00    -0.464 OA
BRANCH   9  10
ATOM     10  C   LIG    1       -0.991   1.294   0.794  0.00  0.00    +0.214 C 
BRANCH  10  11
ATOM     11  C   LIG    1       -2.311   0.719   1.196  0.00  0.00    -0.035 C 
BRANCH  11  12
ATOM     12  N   LIG    1       -2.923  -0.121   0.215  0.00  0.00    +0.377 N 
ATOM     13  C   LIG    1       -3.768  -1.118   0.887  0.00  0.00    -0.093 C 
ATOM     14  C   LIG    1       -3.808   0.697  -0.598  0.00  0.00    -0.093 C 
ATOM     15  C   LIG    1       -1.997  -0.854  -0.604  0.00  0.00    -0.093 C 
ENDBRANCH  11  12
ENDBRANCH  10  11
ENDBRANCH   9  10
ENDBRANCH   1   9
TORSDOF 7
