REMARK  Name = molecules/SRZNHPXWXCNNDU-GHIUCKNYSA-N.pdb
REMARK                            x       y       z     vdW  Elec       q    Type
REMARK                         _______ _______ _______ _____ _____    ______ ____
ROOT
ATOM      1  C   LIG    1        0.210  -0.895   0.466  0.00  0.00    +0.242 C 
ATOM      2  C   LIG    1       -1.068  -0.124   0.606  0.00  0.00    +0.195 C 
ATOM      3  S   LIG    1       -1.169   1.505  -0.112  0.00  0.00    -0.133 S 
ATOM      4  C   LIG    1       -1.607   1.266  -1.854  0.00  0.00    +0.082 C 
ATOM      5  C   LIG    1       -2.861   0.364  -1.827  0.00  0.00    +0.033 C 
ATOM      6  C   LIG    1       -2.777  -0.728  -1.097  0.00  0.00    +0.175 C 
ATOM      7  N   LIG    1       -1.620  -1.064  -0.348  0.00  0.00    -0.262 N 
ATOM      8  C   LIG    1       -0.605  -1.996  -0.042  0.00  0.00    +0.271 C 
ATOM      9  O   LIG    1       -0.442  -3.260  -0.151  0.00  0.00    -0.270 OA
ENDROOT
BRANCH   1  10
ATOM     10  N   LIG    1        1.210  -0.340  -0.399  0.00  0.00    -0.276 N 
ATOM     11  C   LIG    1        1.837   0.902  -0.253  0.00  0.00    +0.239 C 
ATOM     12  O   LIG    1        1.534   1.638   0.710  0.00  0.00    -0.274 OA
ATOM     13  H   LIG    1        1.486  -0.943  -1.222  0.00  0.00    +0.152 HD
BRANCH  11  14
ATOM     14  C   LIG    1        2.856   1.371  -1.212  0.00  0.00    +0.200 C 
ATOM     15  S   LIG    1        3.951   2.600  -0.455  0.00  0.00    -0.093 S 
ATOM     16  C   LIG    1        5.184   1.341  -0.171  0.00  0.00    +0.063 C 
ATOM     17  C   LIG    1        6.285   1.203   0.572  0.00  0.00    +0.140 C 
ATOM     18  S   LIG    1        4.321   0.295  -1.323  0.00  0.00    -0.093 S 
BRANCH  17  19
ATOM     19  C   LIG    1        7.045  -0.035   0.520  0.00  0.00    +0.250 C 
ATOM     20  N   LIG    1        8.218  -0.211   1.296  0.00  0.00    -0.325 N 
ATOM     21  H   LIG    1        8.296  -0.880   2.103  0.00  0.00    +0.145 HD
ATOM     22  H   LIG    1        9.073   0.353   1.064  0.00  0.00    +0.145 HD
ATOM     23  O   LIG    1        6.701  -1.007  -0.214  0.00  0.00    -0.270 OA
ENDBRANCH  17  19
BRANCH  17  24
ATOM     24  C   LIG    1        6.740   2.271   1.434  0.00  0.00    +0.343 C 
ATOM     25  O   LIG    1        6.126   3.361   1.519  0.00  0.00    -0.245 OA
BRANCH  24  26
ATOM     26  O   LIG    1        7.881   2.106   2.193  0.00  0.00    -0.477 OA
ATOM     27  H   LIG    1        7.943   2.530   3.114  0.00  0.00    +0.295 HD
ENDBRANCH  24  26
ENDBRANCH  17  24
ENDBRANCH  11  14
ENDBRANCH   1  10
BRANCH   1  28
ATOM     28  O   LIG    1        0.709  -1.169   1.739  0.00  0.00    -0.349 OA
ATOM     29  C   LIG    1        1.759  -2.067   1.611  0.00  0.00    +0.197 C 
ENDBRANCH   1  28
BRANCH   6  30
ATOM     30  C   LIG    1       -3.792  -1.788  -1.200  0.00  0.00    +0.332 C 
ATOM     31  O   LIG    1       -4.763  -1.807  -1.982  0.00  0.00    -0.248 OA
BRANCH  30  32
ATOM     32  O   LIG    1       -3.739  -2.936  -0.382  0.00  0.00    -0.479 OA
ATOM     33  H   LIG    1       -3.543  -2.791   0.583  0.00  0.00    +0.295 HD
ENDBRANCH  30  32
ENDBRANCH   6  30
BRANCH   5  34
ATOM     34  C   LIG    1       -4.010   0.936  -2.461  0.00  0.00    +0.088 C 
BRANCH  34  35
ATOM     35  S   LIG    1       -5.670   0.445  -2.158  0.00  0.00    -0.084 S 
BRANCH  35  36
ATOM     36  C   LIG    1       -6.413   0.977  -0.671  0.00  0.00    +0.209 A 
ATOM     37  N   LIG    1       -6.485   0.423   0.526  0.00  0.00    -0.223 N 
ATOM     38  N   LIG    1       -7.170   1.273   1.330  0.00  0.00    -0.043 NA
ATOM     39  N   LIG    1       -7.517   2.328   0.655  0.00  0.00    -0.022 NA
ATOM     40  C   LIG    1       -6.001  -0.826   1.036  0.00  0.00    +0.177 C 
ATOM     41  N   LIG    1       -7.071   2.175  -0.561  0.00  0.00    -0.102 NA
ENDBRANCH  35  36
ENDBRANCH  34  35
ENDBRANCH   5  34
TORSDOF 11
