REMARK  Name = molecules/SSEBTPPFLLCUMN-ZDUSSCGKSA-N.pdb
REMARK                            x       y       z     vdW  Elec       q    Type
REMARK                         _______ _______ _______ _____ _____    ______ ____
ROOT
ATOM      1  C   LIG    1       -3.985  -0.038  -0.177  0.00  0.00    -0.005 A 
ATOM      2  C   LIG    1       -2.632   0.168  -0.332  0.00  0.00    +0.138 A 
ATOM      3  O   LIG    1       -1.636   0.064   0.549  0.00  0.00    -0.457 OA
ATOM      4  C   LIG    1       -0.507   0.356  -0.048  0.00  0.00    +0.136 A 
ATOM      5  C   LIG    1       -0.751   0.664  -1.362  0.00  0.00    +0.056 A 
ATOM      6  C   LIG    1       -2.128   0.545  -1.559  0.00  0.00    +0.021 A 
ATOM      7  C   LIG    1       -2.916   0.732  -2.666  0.00  0.00    +0.012 A 
ATOM      8  C   LIG    1       -4.270   0.530  -2.522  0.00  0.00    +0.001 A 
ATOM      9  C   LIG    1       -4.788   0.148  -1.284  0.00  0.00    +0.007 A 
ENDROOT
BRANCH   1  10
ATOM     10  C   LIG    1       -4.498  -0.441   1.151  0.00  0.00    +0.035 C 
ATOM     11  C   LIG    1       -6.013  -0.602   1.105  0.00  0.00    +0.009 C 
ENDBRANCH   1  10
BRANCH   4  12
ATOM     12  C   LIG    1        0.846   0.360   0.589  0.00  0.00    +0.194 C 
BRANCH  12  13
ATOM     13  O   LIG    1        1.034  -0.788   1.335  0.00  0.00    -0.383 OA
ATOM     14  H   LIG    1        0.503  -1.552   1.020  0.00  0.00    +0.210 HD
ENDBRANCH  12  13
BRANCH  12  15
ATOM     15  C   LIG    1        1.895   0.653  -0.411  0.00  0.00    +0.120 C 
BRANCH  15  16
ATOM     16  N   LIG    1        3.202   0.891  -0.023  0.00  0.00    -0.308 NA
ATOM     17  H   LIG    1        3.507   1.892   0.016  0.00  0.00    +0.123 HD
BRANCH  16  18
ATOM     18  C   LIG    1        4.089  -0.034   0.505  0.00  0.00    +0.011 C 
ATOM     19  C   LIG    1        3.836  -0.658   1.826  0.00  0.00    +0.027 C 
ATOM     20  C   LIG    1        5.481   0.648   0.570  0.00  0.00    +0.027 C 
ATOM     21  C   LIG    1        4.292  -1.182  -0.493  0.00  0.00    +0.027 C 
ENDBRANCH  16  18
ENDBRANCH  15  16
ENDBRANCH  12  15
ENDBRANCH   4  12
TORSDOF 6
