REMARK  Name = molecules/STECJAGHUSJQJN-VJQRDGCPSA-N.pdb
REMARK                            x       y       z     vdW  Elec       q    Type
REMARK                         _______ _______ _______ _____ _____    ______ ____
ROOT
ATOM      1  C   LIG    1       -1.126   0.005   0.431  0.00  0.00    +0.317 C 
ATOM      2  O   LIG    1       -1.370   1.226   0.545  0.00  0.00    -0.250 OA
ENDROOT
BRANCH   1   3
ATOM      3  O   LIG    1        0.172  -0.405   0.286  0.00  0.00    -0.461 OA
BRANCH   3   8
ATOM      4  C   LIG    1        5.109  -1.130  -0.377  0.00  0.00    +0.105 C 
ATOM      5  N   LIG    1        3.800  -0.623  -0.167  0.00  0.00    -0.294 NA
ATOM      6  C   LIG    1        3.626   0.073   1.089  0.00  0.00    +0.092 C 
ATOM      7  C   LIG    1        2.174   0.153   1.389  0.00  0.00    +0.066 C 
ATOM      8  C   LIG    1        1.290   0.486   0.256  0.00  0.00    +0.180 C 
ATOM      9  C   LIG    1        1.888   0.416  -1.099  0.00  0.00    +0.066 C 
ATOM     10  C   LIG    1        4.170   1.465   0.885  0.00  0.00    +0.166 C 
ATOM     11  O   LIG    1        5.174   1.681  -0.052  0.00  0.00    -0.365 OA
ATOM     12  C   LIG    1        3.894   1.705  -0.580  0.00  0.00    +0.166 C 
ATOM     13  C   LIG    1        3.394   0.393  -1.116  0.00  0.00    +0.092 C 
ENDBRANCH   3   8
ENDBRANCH   1   3
BRANCH   1  14
ATOM     14  C   LIG    1       -2.231  -1.012   0.450  0.00  0.00    +0.153 C 
BRANCH  14  15
ATOM     15  C   LIG    1       -3.536  -0.335   0.615  0.00  0.00    -0.032 A 
ATOM     16  C   LIG    1       -4.342  -0.639   1.702  0.00  0.00    +0.004 A 
ATOM     17  C   LIG    1       -5.572   0.005   1.849  0.00  0.00    +0.000 A 
ATOM     18  C   LIG    1       -6.004   0.942   0.933  0.00  0.00    +0.000 A 
ATOM     19  C   LIG    1       -5.202   1.229  -0.127  0.00  0.00    +0.000 A 
ATOM     20  C   LIG    1       -3.978   0.598  -0.287  0.00  0.00    +0.004 A 
ENDBRANCH  14  15
BRANCH  14  21
ATOM     21  C   LIG    1       -2.141  -1.757  -0.875  0.00  0.00    +0.175 C 
BRANCH  21  22
ATOM     22  O   LIG    1       -3.139  -2.721  -0.932  0.00  0.00    -0.394 OA
ATOM     23  H   LIG    1       -3.994  -2.296  -0.704  0.00  0.00    +0.209 HD
ENDBRANCH  21  22
ENDBRANCH  14  21
ENDBRANCH   1  14
TORSDOF 6
