REMARK  Name = molecules/STHAHFPLLHRRRO-UHFFFAOYSA-N.pdb
REMARK                            x       y       z     vdW  Elec       q    Type
REMARK                         _______ _______ _______ _____ _____    ______ ____
ROOT
ATOM      1  C   LIG    1       -0.784  -0.751   0.872  0.00  0.00    +0.164 C 
ATOM      2  O   LIG    1       -1.246   0.327   1.379  0.00  0.00    -0.292 OA
ENDROOT
BRANCH   1   3
ATOM      3  C   LIG    1        0.623  -0.859   0.508  0.00  0.00    +0.018 A 
ATOM      4  C   LIG    1        1.409   0.250   0.753  0.00  0.00    +0.015 A 
ATOM      5  C   LIG    1        2.743   0.242   0.445  0.00  0.00    +0.046 A 
ATOM      6  C   LIG    1        3.338  -0.864  -0.112  0.00  0.00    +0.121 A 
ATOM      7  C   LIG    1        2.554  -1.968  -0.355  0.00  0.00    +0.046 A 
ATOM      8  C   LIG    1        1.188  -1.967  -0.043  0.00  0.00    +0.015 A 
BRANCH   6   9
ATOM      9  O   LIG    1        4.714  -0.873  -0.428  0.00  0.00    -0.492 OA
BRANCH   9  10
ATOM     10  C   LIG    1        5.445   0.283  -0.153  0.00  0.00    +0.229 C 
BRANCH  10  11
ATOM     11  C   LIG    1        6.889   0.196  -0.515  0.00  0.00    +0.038 C 
ATOM     12  C   LIG    1        7.546   1.522  -0.158  0.00  0.00    +0.007 C 
ENDBRANCH  10  11
ENDBRANCH   9  10
ENDBRANCH   6   9
ENDBRANCH   1   3
BRANCH   1  13
ATOM     13  C   LIG    1       -1.792  -1.823   0.705  0.00  0.00    +0.095 C 
BRANCH  13  14
ATOM     14  C   LIG    1       -2.745  -1.361  -0.373  0.00  0.00    +0.092 C 
BRANCH  14  15
ATOM     15  N   LIG    1       -3.395  -0.139   0.001  0.00  0.00    -0.302 NA
ATOM     16  C   LIG    1       -4.304  -0.353   1.073  0.00  0.00    +0.084 C 
ATOM     17  C   LIG    1       -5.211   0.828   1.341  0.00  0.00    +0.015 C 
ATOM     18  C   LIG    1       -5.825   1.397   0.085  0.00  0.00    +0.002 C 
ATOM     19  C   LIG    1       -4.644   1.774  -0.817  0.00  0.00    +0.015 C 
ATOM     20  C   LIG    1       -3.980   0.456  -1.175  0.00  0.00    +0.084 C 
ENDBRANCH  14  15
ENDBRANCH  13  14
ENDBRANCH   1  13
TORSDOF 7
