REMARK  Name = molecules/STJMRWALKKWQGH-SNVBAGLBSA-N.pdb
REMARK                            x       y       z     vdW  Elec       q    Type
REMARK                         _______ _______ _______ _____ _____    ______ ____
ROOT
ATOM      1  C   LIG    1        1.707  -0.429  -0.299  0.00  0.00    -0.015 A 
ATOM      2  C   LIG    1        2.582  -1.509  -0.168  0.00  0.00    +0.028 A 
ATOM      3  C   LIG    1        3.950  -1.323  -0.043  0.00  0.00    +0.063 A 
ATOM      4 CL   LIG    1        5.037  -2.697   0.116  0.00  0.00    -0.082 Cl
ATOM      5  C   LIG    1        4.493  -0.059  -0.043  0.00  0.00    +0.062 A 
ATOM      6  C   LIG    1        3.634   1.036  -0.172  0.00  0.00    +0.063 A 
ATOM      7 CL   LIG    1        4.252   2.673  -0.183  0.00  0.00    -0.082 Cl
ATOM      8  C   LIG    1        2.287   0.825  -0.295  0.00  0.00    +0.028 A 
ENDROOT
BRANCH   5   9
ATOM      9  N   LIG    1        5.882   0.192   0.080  0.00  0.00    -0.356 N 
ATOM     10  H   LIG    1        6.197   0.939   0.723  0.00  0.00    +0.142 HD
ATOM     11  H   LIG    1        6.623  -0.336  -0.444  0.00  0.00    +0.142 HD
ENDBRANCH   5   9
BRANCH   1  12
ATOM     12  C   LIG    1        0.238  -0.628  -0.449  0.00  0.00    +0.158 C 
BRANCH  12  13
ATOM     13  O   LIG    1       -0.203   0.210  -1.467  0.00  0.00    -0.386 OA
ATOM     14  H   LIG    1       -0.360   1.097  -1.032  0.00  0.00    +0.210 HD
ENDBRANCH  12  13
BRANCH  12  15
ATOM     15  C   LIG    1       -0.524  -0.377   0.830  0.00  0.00    +0.117 C 
BRANCH  15  16
ATOM     16  N   LIG    1       -1.879  -0.576   0.855  0.00  0.00    -0.309 NA
ATOM     17  H   LIG    1       -2.160  -1.561   0.975  0.00  0.00    +0.123 HD
BRANCH  16  18
ATOM     18  C   LIG    1       -2.871   0.153   0.224  0.00  0.00    +0.011 C 
ATOM     19  C   LIG    1       -4.200  -0.422   0.837  0.00  0.00    +0.027 C 
ATOM     20  C   LIG    1       -2.988   1.607   0.624  0.00  0.00    +0.027 C 
ATOM     21  C   LIG    1       -3.070  -0.037  -1.261  0.00  0.00    +0.027 C 
ENDBRANCH  16  18
ENDBRANCH  15  16
ENDBRANCH  12  15
ENDBRANCH   1  12
TORSDOF 6
