REMARK  Name = molecules/STLZCUYBVPNYED-UHFFFAOYSA-N.pdb
REMARK                            x       y       z     vdW  Elec       q    Type
REMARK                         _______ _______ _______ _____ _____    ______ ____
ROOT
ATOM      1  N   LIG    1       -1.362   0.077   0.480  0.00  0.00    -0.293 N 
ATOM      2  C   LIG    1       -2.252   0.830  -0.331  0.00  0.00    +0.249 C 
ATOM      3  O   LIG    1       -3.342   0.288  -0.744  0.00  0.00    -0.273 OA
ENDROOT
BRANCH   2   4
ATOM      4  C   LIG    1       -2.044   2.226  -0.762  0.00  0.00    +0.256 C 
ATOM      5 CL   LIG    1       -3.561   2.831  -1.514  0.00  0.00    -0.094 Cl
ATOM      6 CL   LIG    1       -0.766   2.478  -1.928  0.00  0.00    -0.094 Cl
ENDBRANCH   2   4
BRANCH   1   7
ATOM      7  C   LIG    1       -0.142   0.627   0.914  0.00  0.00    +0.144 C 
BRANCH   7   8
ATOM      8  C   LIG    1        1.057   0.471   0.118  0.00  0.00    -0.012 A 
ATOM      9  C   LIG    1        2.225   1.044   0.632  0.00  0.00    +0.047 A 
ATOM     10 CL   LIG    1        2.195   1.906   2.171  0.00  0.00    -0.083 Cl
ATOM     11  C   LIG    1        3.415   0.957  -0.033  0.00  0.00    +0.040 A 
ATOM     12  C   LIG    1        3.529   0.309  -1.229  0.00  0.00    +0.042 A 
ATOM     13  C   LIG    1        2.397  -0.266  -1.764  0.00  0.00    +0.020 A 
ATOM     14 CL   LIG    1        5.090   0.238  -2.025  0.00  0.00    -0.083 Cl
ATOM     15  C   LIG    1        1.179  -0.175  -1.081  0.00  0.00    +0.008 A 
ENDBRANCH   7   8
ENDBRANCH   1   7
BRANCH   1  16
ATOM     16  C   LIG    1       -1.780  -1.241   0.895  0.00  0.00    +0.136 C 
BRANCH  16  17
ATOM     17  C   LIG    1       -1.391  -2.316  -0.051  0.00  0.00    +0.174 C 
BRANCH  17  18
ATOM     18  O   LIG    1       -1.860  -3.553   0.454  0.00  0.00    -0.393 OA
ATOM     19  H   LIG    1       -1.240  -4.258   0.146  0.00  0.00    +0.209 HD
ENDBRANCH  17  18
ENDBRANCH  16  17
ENDBRANCH   1  16
TORSDOF 6
