REMARK  Name = molecules/STQGQHZAVUOBTE-VGBVRHCVSA-N.pdb
REMARK                            x       y       z     vdW  Elec       q    Type
REMARK                         _______ _______ _______ _____ _____    ______ ____
ROOT
ATOM      1  C   LIG    1        2.123   0.900  -1.798  0.00  0.00    +0.132 A 
ATOM      2  C   LIG    1        2.849   0.243  -0.818  0.00  0.00    +0.078 A 
ATOM      3  C   LIG    1        2.222  -0.159   0.366  0.00  0.00    +0.078 A 
ATOM      4  C   LIG    1        2.993  -0.844   1.378  0.00  0.00    +0.202 C 
ATOM      5  O   LIG    1        2.445  -1.212   2.448  0.00  0.00    -0.286 OA
ATOM      6  C   LIG    1        4.414  -1.102   1.140  0.00  0.00    +0.075 A 
ATOM      7  C   LIG    1        5.144  -1.757   2.111  0.00  0.00    +0.132 A 
ATOM      8  C   LIG    1        6.471  -2.002   1.896  0.00  0.00    +0.046 A 
ATOM      9  C   LIG    1        7.114  -1.616   0.738  0.00  0.00    +0.004 A 
ATOM     10  C   LIG    1        6.409  -0.960  -0.247  0.00  0.00    +0.012 A 
ATOM     11  C   LIG    1        5.049  -0.717  -0.012  0.00  0.00    +0.037 A 
ATOM     12  C   LIG    1        0.878   0.077   0.605  0.00  0.00    +0.134 A 
ATOM     13  C   LIG    1        0.175   0.742  -0.407  0.00  0.00    +0.030 A 
ATOM     14  C   LIG    1       -1.262   1.060  -0.300  0.00  0.00    +0.158 C 
ATOM     15  C   LIG    1       -1.376   2.554  -0.537  0.00  0.00    +0.079 C 
ATOM     16  C   LIG    1       -0.727   2.995  -1.814  0.00  0.00    +0.130 C 
ATOM     17  C   LIG    1       -0.049   1.840  -2.572  0.00  0.00    +0.082 C 
ATOM     18  C   LIG    1        4.280  -0.025  -1.038  0.00  0.00    +0.198 C 
ATOM     19  O   LIG    1        4.843   0.344  -2.118  0.00  0.00    -0.286 OA
ATOM     20  C   LIG    1        0.784   1.139  -1.568  0.00  0.00    +0.007 A 
ENDROOT
BRANCH  16  21
ATOM     21  C   LIG    1       -1.704   3.682  -2.685  0.00  0.00    +0.162 C 
ATOM     22  C   LIG    1       -1.450   5.096  -3.052  0.00  0.00    +0.089 C 
ATOM     23  O   LIG    1       -2.708   3.081  -3.093  0.00  0.00    -0.295 OA
ENDBRANCH  16  21
BRANCH   1  24
ATOM     24  O   LIG    1        2.630   1.330  -2.973  0.00  0.00    -0.506 OA
ATOM     25  H   LIG    1        3.453   1.345  -3.453  0.00  0.00    +0.292 HD
ENDBRANCH   1  24
BRANCH   7  26
ATOM     26  O   LIG    1        4.472  -2.134   3.266  0.00  0.00    -0.494 OA
ATOM     27  C   LIG    1        5.196  -2.802   4.270  0.00  0.00    +0.277 C 
ENDBRANCH   7  26
BRANCH  12  28
ATOM     28  O   LIG    1        0.188  -0.276   1.720  0.00  0.00    -0.506 OA
ATOM     29  H   LIG    1        0.337  -0.711   2.553  0.00  0.00    +0.292 HD
ENDBRANCH  12  28
BRANCH  16  30
ATOM     30  O   LIG    1        0.299   3.898  -1.511  0.00  0.00    -0.381 OA
ATOM     31  H   LIG    1        1.072   3.423  -1.111  0.00  0.00    +0.211 HD
ENDBRANCH  16  30
BRANCH  14  32
ATOM     32  O   LIG    1       -1.917   0.618   0.796  0.00  0.00    -0.343 OA
BRANCH  32  33
ATOM     33  C   LIG    1       -2.978  -0.229   0.475  0.00  0.00    +0.253 C 
ATOM     34  C   LIG    1       -2.691  -1.596   1.048  0.00  0.00    +0.082 C 
ATOM     35  C   LIG    1       -3.949  -2.437   1.106  0.00  0.00    +0.087 C 
ATOM     36  C   LIG    1       -5.028  -1.862   0.215  0.00  0.00    +0.160 C 
ATOM     37  C   LIG    1       -5.306  -0.462   0.680  0.00  0.00    +0.148 C 
ATOM     38  C   LIG    1       -6.213   0.278  -0.299  0.00  0.00    +0.041 C 
ATOM     39  O   LIG    1       -4.189   0.272   0.851  0.00  0.00    -0.346 OA
BRANCH  35  40
ATOM     40  N   LIG    1       -3.712  -3.828   0.879  0.00  0.00    -0.325 NA
ATOM     41  H   LIG    1       -3.257  -4.239   1.721  0.00  0.00    +0.119 HD
ATOM     42  H   LIG    1       -4.640  -4.295   0.782  0.00  0.00    +0.119 HD
ENDBRANCH  35  40
BRANCH  36  43
ATOM     43  O   LIG    1       -4.668  -1.825  -1.129  0.00  0.00    -0.388 OA
ATOM     44  H   LIG    1       -4.048  -2.551  -1.381  0.00  0.00    +0.210 HD
ENDBRANCH  36  43
ENDBRANCH  32  33
ENDBRANCH  14  32
TORSDOF 9
