REMARK  Name = molecules/SUHOQUVVVLNYQR-MRVPVSSYSA-N.pdb
REMARK                            x       y       z     vdW  Elec       q    Type
REMARK                         _______ _______ _______ _____ _____    ______ ____
ROOT
ATOM      1  P   LIG    1        0.741  -0.223  -1.609  0.00  0.00    +0.213 P 
ATOM      2  O   LIG    1        0.246  -1.461  -2.294  0.00  0.00    -0.437 OA
ATOM      3  O   LIG    1       -0.027   1.108  -2.341  0.00  0.00    -0.517 OA
ENDROOT
BRANCH   1   4
ATOM      4  O   LIG    1        0.445  -0.268   0.047  0.00  0.00    -0.329 OA
BRANCH   4   5
ATOM      5  C   LIG    1       -0.823  -0.714   0.363  0.00  0.00    +0.150 C 
BRANCH   5   6
ATOM      6  C   LIG    1       -1.811   0.341  -0.072  0.00  0.00    -0.047 C 
BRANCH   6   7
ATOM      7  N   LIG    1       -3.145   0.104   0.439  0.00  0.00    +0.376 N 
ATOM      8  C   LIG    1       -3.371   0.704   1.731  0.00  0.00    -0.093 C 
ATOM      9  C   LIG    1       -3.469  -1.300   0.503  0.00  0.00    -0.093 C 
ATOM     10  C   LIG    1       -4.073   0.709  -0.512  0.00  0.00    -0.093 C 
ENDBRANCH   6   7
ENDBRANCH   5   6
ENDBRANCH   4   5
ENDBRANCH   1   4
BRANCH   1  11
ATOM     11  O   LIG    1        2.402  -0.019  -1.882  0.00  0.00    -0.325 OA
BRANCH  11  12
ATOM     12  C   LIG    1        2.994   0.349  -0.685  0.00  0.00    +0.201 C 
BRANCH  12  13
ATOM     13  C   LIG    1        4.487   0.193  -0.676  0.00  0.00    +0.166 C 
BRANCH  13  14
ATOM     14  O   LIG    1        4.881  -0.757  -1.602  0.00  0.00    -0.387 OA
ATOM     15  H   LIG    1        4.243  -1.503  -1.586  0.00  0.00    +0.210 HD
ENDBRANCH  13  14
BRANCH  13  16
ATOM     16  C   LIG    1        4.904  -0.149   0.735  0.00  0.00    +0.189 C 
BRANCH  16  17
ATOM     17  O   LIG    1        4.858   1.005   1.522  0.00  0.00    -0.392 OA
ATOM     18  H   LIG    1        5.312   1.755   1.063  0.00  0.00    +0.210 HD
ENDBRANCH  16  17
ENDBRANCH  13  16
ENDBRANCH  12  13
ENDBRANCH  11  12
ENDBRANCH   1  11
TORSDOF 10
