REMARK  Name = molecules/SUJUHGSWHZTSEU-FYBSXPHGSA-N.pdb
REMARK                            x       y       z     vdW  Elec       q    Type
REMARK                         _______ _______ _______ _____ _____    ______ ____
ROOT
ATOM      1  C   LIG    1        0.633  -0.780  -1.602  0.00  0.00    +0.059 C 
ENDROOT
BRANCH   1   6
ATOM      2  C   LIG    1       -3.272   0.759  -0.568  0.00  0.00    +0.121 C 
ATOM      3  O   LIG    1       -2.048   1.453  -0.226  0.00  0.00    -0.454 OA
ATOM      4  C   LIG    1       -0.842   1.052  -0.715  0.00  0.00    +0.339 C 
ATOM      5  O   LIG    1        0.120   1.883  -0.928  0.00  0.00    -0.245 OA
ATOM      6  C   LIG    1       -0.588  -0.369  -1.011  0.00  0.00    +0.081 C 
ATOM      7  C   LIG    1       -1.619  -1.146  -0.761  0.00  0.00    +0.108 C 
ATOM      8  C   LIG    1       -2.918  -0.714  -0.273  0.00  0.00    +0.122 C 
BRANCH   7   9
ATOM      9  O   LIG    1       -1.445  -2.500  -0.973  0.00  0.00    -0.510 OA
ATOM     10  H   LIG    1       -1.947  -3.184  -0.416  0.00  0.00    +0.292 HD
ENDBRANCH   7   9
BRANCH   2  11
ATOM     11  C   LIG    1       -4.292   1.128   0.512  0.00  0.00    +0.053 C 
BRANCH  11  12
ATOM     12  C   LIG    1       -5.615   0.517   0.240  0.00  0.00    +0.039 C 
BRANCH  12  13
ATOM     13  C   LIG    1       -6.499   0.479   1.440  0.00  0.00    -0.047 A 
ATOM     14  C   LIG    1       -6.418  -0.676   2.211  0.00  0.00    +0.003 A 
ATOM     15  C   LIG    1       -7.197  -0.817   3.321  0.00  0.00    +0.000 A 
ATOM     16  C   LIG    1       -8.059   0.204   3.661  0.00  0.00    +0.000 A 
ATOM     17  C   LIG    1       -8.141   1.367   2.897  0.00  0.00    +0.000 A 
ATOM     18  C   LIG    1       -7.337   1.475   1.770  0.00  0.00    +0.003 A 
ENDBRANCH  12  13
ENDBRANCH  11  12
ENDBRANCH   2  11
BRANCH   2  19
ATOM     19  C   LIG    1       -3.567   1.104  -1.937  0.00  0.00    +0.048 C 
BRANCH  19  20
ATOM     20  C   LIG    1       -4.679   0.605  -2.738  0.00  0.00    +0.000 C 
ATOM     21  C   LIG    1       -4.667  -0.893  -2.986  0.00  0.00    +0.004 C 
ENDBRANCH  19  20
ENDBRANCH   2  19
ENDBRANCH   1   6
BRANCH   1  22
ATOM     22  C   LIG    1        1.890  -0.381  -0.985  0.00  0.00    -0.038 A 
ATOM     23  C   LIG    1        2.269  -0.628   0.320  0.00  0.00    +0.028 A 
ATOM     24  C   LIG    1        3.537  -0.283   0.818  0.00  0.00    +0.048 A 
ATOM     25  C   LIG    1        4.463   0.325   0.004  0.00  0.00    +0.024 A 
ATOM     26  C   LIG    1        4.119   0.585  -1.302  0.00  0.00    +0.002 A 
ATOM     27  C   LIG    1        2.878   0.243  -1.772  0.00  0.00    +0.004 A 
BRANCH  24  28
ATOM     28  N   LIG    1        3.954  -0.583   2.152  0.00  0.00    -0.215 N 
ATOM     29  H   LIG    1        3.493  -1.467   2.556  0.00  0.00    +0.174 HD
BRANCH  28  30
ATOM     30  S   LIG    1        5.083   0.311   3.064  0.00  0.00    +0.090 S 
ATOM     31  O   LIG    1        5.191  -0.281   4.424  0.00  0.00    -0.148 OA
ATOM     32  O   LIG    1        4.584   1.730   3.243  0.00  0.00    -0.148 OA
BRANCH  30  33
ATOM     33  C   LIG    1        6.691   0.348   2.356  0.00  0.00    +0.197 A 
ATOM     34  C   LIG    1        7.366   1.496   2.083  0.00  0.00    +0.050 A 
ATOM     35  C   LIG    1        8.639   1.521   1.494  0.00  0.00    +0.017 A 
ATOM     36  C   LIG    1        9.259   0.318   1.179  0.00  0.00    +0.073 A 
ATOM     37  C   LIG    1        8.545  -0.838   1.474  0.00  0.00    +0.125 A 
ATOM     38  N   LIG    1        7.325  -0.799   2.033  0.00  0.00    -0.235 NA
BRANCH  36  39
ATOM     39  C   LIG    1       10.592   0.258   0.558  0.00  0.00    +0.419 C 
ATOM     40  F   LIG    1       11.583   0.495   1.467  0.00  0.00    -0.166 F 
ATOM     41  F   LIG    1       10.789  -1.037   0.069  0.00  0.00    -0.166 F 
ATOM     42  F   LIG    1       10.720   1.166  -0.503  0.00  0.00    -0.166 F 
ENDBRANCH  36  39
ENDBRANCH  30  33
ENDBRANCH  28  30
ENDBRANCH  24  28
ENDBRANCH   1  22
BRANCH   1  43
ATOM     43  C   LIG    1        0.798  -2.171  -2.147  0.00  0.00    +0.010 C 
ATOM     44  C   LIG    1       -0.143  -2.408  -3.300  0.00  0.00    +0.005 C 
ENDBRANCH   1  43
TORSDOF 13
