REMARK  Name = molecules/SVDHSZFEQYXRDC-FQEVSTJZSA-N.pdb
REMARK                            x       y       z     vdW  Elec       q    Type
REMARK                         _______ _______ _______ _____ _____    ______ ____
ROOT
ATOM      1  C   LIG    1       -1.137   0.184   0.364  0.00  0.00    +0.080 C 
ENDROOT
BRANCH   1   2
ATOM      2  C   LIG    1       -2.261  -0.824   0.244  0.00  0.00    -0.030 A 
ATOM      3  C   LIG    1       -2.101  -2.174   0.365  0.00  0.00    +0.005 A 
ATOM      4  C   LIG    1       -3.155  -3.066   0.241  0.00  0.00    +0.000 A 
ATOM      5  C   LIG    1       -4.410  -2.600  -0.011  0.00  0.00    +0.000 A 
ATOM      6  C   LIG    1       -4.611  -1.249  -0.140  0.00  0.00    +0.000 A 
ATOM      7  C   LIG    1       -3.555  -0.372  -0.014  0.00  0.00    +0.005 A 
ENDBRANCH   1   2
BRANCH   1   8
ATOM      8  C   LIG    1       -1.249   0.987  -0.872  0.00  0.00    -0.030 A 
ATOM      9  C   LIG    1       -1.177   2.341  -0.969  0.00  0.00    +0.005 A 
ATOM     10  C   LIG    1       -1.326   2.965  -2.194  0.00  0.00    +0.000 A 
ATOM     11  C   LIG    1       -1.549   2.245  -3.344  0.00  0.00    +0.000 A 
ATOM     12  C   LIG    1       -1.626   0.870  -3.274  0.00  0.00    +0.000 A 
ATOM     13  C   LIG    1       -1.477   0.261  -2.049  0.00  0.00    +0.005 A 
ENDBRANCH   1   8
BRANCH   1  14
ATOM     14  C   LIG    1       -1.357   0.936   1.615  0.00  0.00    +0.148 C 
ATOM     15  O   LIG    1       -0.440   0.956   2.415  0.00  0.00    -0.296 OA
BRANCH  14  16
ATOM     16  C   LIG    1       -2.573   1.661   1.992  0.00  0.00    +0.072 C 
ATOM     17  C   LIG    1       -2.344   2.386   3.323  0.00  0.00    +0.012 C 
ENDBRANCH  14  16
ENDBRANCH   1  14
BRANCH   1  18
ATOM     18  C   LIG    1        0.129  -0.586   0.369  0.00  0.00    +0.042 C 
BRANCH  18  19
ATOM     19  C   LIG    1        1.432   0.087   0.500  0.00  0.00    +0.055 C 
ATOM     20  C   LIG    1        1.768   1.077  -0.589  0.00  0.00    +0.024 C 
BRANCH  19  21
ATOM     21  N   LIG    1        2.501  -0.908   0.633  0.00  0.00    -0.300 NA
ATOM     22  C   LIG    1        3.654  -0.459   1.312  0.00  0.00    +0.084 C 
ATOM     23  C   LIG    1        4.880  -0.220   0.508  0.00  0.00    +0.015 C 
ATOM     24  C   LIG    1        4.999  -0.996  -0.759  0.00  0.00    +0.002 C 
ATOM     25  C   LIG    1        4.112  -2.207  -0.669  0.00  0.00    +0.015 C 
ATOM     26  C   LIG    1        2.664  -1.763  -0.476  0.00  0.00    +0.084 C 
ENDBRANCH  19  21
ENDBRANCH  18  19
ENDBRANCH   1  18
TORSDOF 7
