REMARK  Name = molecules/SWUVZKWCOBGPTH-OAHLLOKOSA-N.pdb
REMARK                            x       y       z     vdW  Elec       q    Type
REMARK                         _______ _______ _______ _____ _____    ______ ____
ROOT
ATOM      1  C   LIG    1       -0.886  -0.299   0.201  0.00  0.00    +0.128 C 
ENDROOT
BRANCH   1   2
ATOM      2  N   LIG    1       -2.248  -0.432  -0.298  0.00  0.00    -0.293 NA
ATOM      3  C   LIG    1       -3.030  -1.097   0.700  0.00  0.00    +0.085 C 
ATOM      4  C   LIG    1       -3.017  -2.554   0.216  0.00  0.00    +0.017 C 
ATOM      5  C   LIG    1       -3.232  -2.351  -1.276  0.00  0.00    +0.017 C 
ATOM      6  C   LIG    1       -2.331  -1.154  -1.527  0.00  0.00    +0.085 C 
ENDBRANCH   1   2
BRANCH   1   7
ATOM      7  C   LIG    1        0.041   0.157  -0.849  0.00  0.00    +0.180 C 
ATOM      8  O   LIG    1       -0.380   0.587  -1.956  0.00  0.00    -0.290 OA
BRANCH   7   9
ATOM      9  C   LIG    1        1.476   0.114  -0.617  0.00  0.00    +0.019 A 
ATOM     10  C   LIG    1        1.992  -0.392   0.553  0.00  0.00    +0.011 A 
ATOM     11  C   LIG    1        3.380  -0.407   0.741  0.00  0.00    +0.004 A 
ATOM     12  C   LIG    1        4.248   0.072  -0.219  0.00  0.00    -0.050 A 
ATOM     13  C   LIG    1        5.710   0.024   0.049  0.00  0.00    +0.044 C 
ATOM     14  C   LIG    1        3.741   0.580  -1.393  0.00  0.00    +0.004 A 
ATOM     15  C   LIG    1        2.382   0.589  -1.563  0.00  0.00    +0.011 A 
ENDBRANCH   7   9
ENDBRANCH   1   7
BRANCH   1  16
ATOM     16  C   LIG    1       -0.950   0.868   1.208  0.00  0.00    +0.027 C 
BRANCH  16  17
ATOM     17  C   LIG    1       -1.473   2.105   0.484  0.00  0.00    -0.001 C 
ATOM     18  C   LIG    1       -1.522   3.230   1.505  0.00  0.00    +0.004 C 
ENDBRANCH  16  17
ENDBRANCH   1  16
TORSDOF 5
