REMARK  Name = molecules/SXYIRMFQILZOAM-HVNFFKDJSA-N.pdb
REMARK                            x       y       z     vdW  Elec       q    Type
REMARK                         _______ _______ _______ _____ _____    ______ ____
ROOT
ATOM      1  C   LIG    1        3.061   0.630  -1.603  0.00  0.00    +0.013 C 
ATOM      2  C   LIG    1        1.984  -0.406  -1.322  0.00  0.00    +0.048 C 
ATOM      3  C   LIG    1        2.231  -0.904   0.078  0.00  0.00    +0.256 C 
ATOM      4  O   LIG    1        1.190  -1.783   0.396  0.00  0.00    -0.319 OA
ATOM      5  C   LIG    1        0.103  -0.949   0.674  0.00  0.00    +0.292 C 
ATOM      6  O   LIG    1       -0.823  -1.593   1.442  0.00  0.00    -0.314 OA
ATOM      7  C   LIG    1       -1.760  -2.301   0.710  0.00  0.00    +0.203 C 
ATOM      8  C   LIG    1       -2.196  -3.581   1.335  0.00  0.00    +0.077 C 
ATOM      9  C   LIG    1       -2.902  -1.356   0.398  0.00  0.00    +0.068 C 
ATOM     10  C   LIG    1       -2.514   0.070   0.658  0.00  0.00    +0.012 C 
ATOM     11  C   LIG    1       -1.483   0.616  -0.283  0.00  0.00    +0.032 C 
ATOM     12  C   LIG    1       -0.859   1.843   0.291  0.00  0.00    -0.008 C 
ATOM     13  C   LIG    1       -2.002   2.823   0.596  0.00  0.00    +0.008 C 
ATOM     14  C   LIG    1        0.094   2.412  -0.686  0.00  0.00    +0.004 C 
ATOM     15  C   LIG    1        0.495   1.565  -1.834  0.00  0.00    +0.007 C 
ATOM     16  O   LIG    1       -1.119  -2.588  -0.520  0.00  0.00    -0.199 OA
ATOM     17  O   LIG    1       -1.203  -1.481  -1.204  0.00  0.00    -0.220 OA
ATOM     18  C   LIG    1       -0.442  -0.432  -0.629  0.00  0.00    +0.161 C 
ATOM     19  C   LIG    1        0.596   0.086  -1.564  0.00  0.00    +0.037 C 
ENDROOT
BRANCH   3  20
ATOM     20  O   LIG    1        2.404   0.100   0.997  0.00  0.00    -0.354 OA
ATOM     21  C   LIG    1        3.603   0.091   1.663  0.00  0.00    +0.197 C 
ENDBRANCH   3  20
TORSDOF 1
