REMARK  Name = molecules/SXYZQZLHAIHKKY-GSTUPEFVSA-N.pdb
REMARK                            x       y       z     vdW  Elec       q    Type
REMARK                         _______ _______ _______ _____ _____    ______ ____
ROOT
ATOM      1 CL   LIG    1       -3.020   0.569  -1.888  0.00  0.00    -0.114 Cl
ATOM      2  C   LIG    1       -2.908   0.320  -0.109  0.00  0.00    +0.087 C 
ATOM      3  C   LIG    1       -4.256   0.695   0.455  0.00  0.00    +0.032 C 
ATOM      4  C   LIG    1       -4.399   0.291   1.905  0.00  0.00    +0.022 C 
ATOM      5  C   LIG    1       -4.465   2.135   0.378  0.00  0.00    -0.010 C 
ATOM      6  C   LIG    1       -5.450   2.674  -0.310  0.00  0.00    +0.047 C 
ATOM      7  C   LIG    1       -6.418   1.859  -1.055  0.00  0.00    +0.179 C 
ATOM      8  C   LIG    1       -6.231   0.416  -0.995  0.00  0.00    +0.054 C 
ATOM      9  O   LIG    1       -7.354   2.376  -1.707  0.00  0.00    -0.288 OA
ATOM     10  C   LIG    1       -5.252  -0.102  -0.311  0.00  0.00    -0.021 C 
ATOM     11  C   LIG    1       -5.075  -1.573  -0.267  0.00  0.00    +0.193 C 
ATOM     12  C   LIG    1       -3.668  -1.993  -0.603  0.00  0.00    +0.047 C 
ATOM     13  F   LIG    1       -5.893  -2.134  -1.229  0.00  0.00    -0.241 F 
ATOM     14  C   LIG    1       -1.783   1.162   0.382  0.00  0.00    +0.137 C 
ATOM     15  C   LIG    1       -0.526   0.810  -0.372  0.00  0.00    +0.040 C 
ATOM     16  C   LIG    1       -0.147  -0.606  -0.019  0.00  0.00    -0.017 C 
ATOM     17  C   LIG    1        0.086  -0.841   1.436  0.00  0.00    +0.012 C 
ATOM     18  C   LIG    1       -1.316  -1.452  -0.561  0.00  0.00    +0.001 C 
ATOM     19  C   LIG    1       -0.782  -2.821  -0.350  0.00  0.00    +0.008 C 
ATOM     20  C   LIG    1        0.645  -2.677  -0.819  0.00  0.00    -0.003 C 
ATOM     21  C   LIG    1        0.869  -3.196  -2.218  0.00  0.00    +0.008 C 
ATOM     22  C   LIG    1        0.969  -1.182  -0.824  0.00  0.00    +0.068 C 
ATOM     23  C   LIG    1       -2.616  -1.157   0.084  0.00  0.00    +0.020 C 
ENDROOT
BRANCH  14  24
ATOM     24  O   LIG    1       -1.603   1.129   1.742  0.00  0.00    -0.390 OA
ATOM     25  H   LIG    1       -1.956   1.920   2.222  0.00  0.00    +0.210 HD
ENDBRANCH  14  24
BRANCH  22  26
ATOM     26  C   LIG    1        2.330  -0.940  -0.370  0.00  0.00    +0.174 C 
ATOM     27  O   LIG    1        3.076  -1.895  -0.110  0.00  0.00    -0.293 OA
BRANCH  26  28
ATOM     28  C   LIG    1        2.877   0.405  -0.206  0.00  0.00    +0.306 C 
BRANCH  28  29
ATOM     29  O   LIG    1        4.270   0.387   0.123  0.00  0.00    -0.457 OA
BRANCH  29  30
ATOM     30  C   LIG    1        4.984   1.554   0.322  0.00  0.00    +0.313 C 
ATOM     31  O   LIG    1        4.346   2.629   0.199  0.00  0.00    -0.250 OA
BRANCH  30  32
ATOM     32  C   LIG    1        6.410   1.613   0.661  0.00  0.00    +0.059 C 
ATOM     33  C   LIG    1        6.739   0.854   1.927  0.00  0.00    +0.022 C 
ATOM     34  C   LIG    1        6.874   3.038   0.713  0.00  0.00    +0.022 C 
ATOM     35  C   LIG    1        7.216   0.936  -0.456  0.00  0.00    +0.022 C 
ENDBRANCH  30  32
ENDBRANCH  29  30
ENDBRANCH  28  29
ENDBRANCH  26  28
ENDBRANCH  22  26
TORSDOF 6
