REMARK  Name = molecules/SYTBZMRGLBWNTM-JTQLQIEISA-N.pdb
REMARK                            x       y       z     vdW  Elec       q    Type
REMARK                         _______ _______ _______ _____ _____    ______ ____
ROOT
ATOM      1  C   LIG    1        0.936  -0.112   0.144  0.00  0.00    +0.017 A 
ATOM      2  C   LIG    1        0.391  -1.087   0.961  0.00  0.00    +0.011 A 
ATOM      3  C   LIG    1       -0.984  -1.278   1.016  0.00  0.00    +0.005 A 
ATOM      4  C   LIG    1       -1.830  -0.502   0.260  0.00  0.00    -0.031 A 
ATOM      5  C   LIG    1       -1.322   0.477  -0.564  0.00  0.00    +0.043 A 
ATOM      6  C   LIG    1        0.050   0.642  -0.597  0.00  0.00    +0.131 A 
ATOM      7  F   LIG    1        0.563   1.604  -1.404  0.00  0.00    -0.205 F 
ENDROOT
BRANCH   1   9
ATOM      8  C   LIG    1        2.974   0.271  -1.163  0.00  0.00    +0.008 A 
ATOM      9  C   LIG    1        2.378   0.107   0.069  0.00  0.00    -0.015 A 
ATOM     10  C   LIG    1        3.192   0.160   1.181  0.00  0.00    +0.008 A 
ATOM     11  C   LIG    1        4.565   0.370   1.076  0.00  0.00    +0.001 A 
ATOM     12  C   LIG    1        5.151   0.533  -0.161  0.00  0.00    +0.000 A 
ATOM     13  C   LIG    1        4.349   0.483  -1.282  0.00  0.00    +0.001 A 
ENDBRANCH   1   9
BRANCH   4  14
ATOM     14  C   LIG    1       -3.311  -0.684   0.294  0.00  0.00    +0.124 C 
ATOM     15  C   LIG    1       -3.886  -0.986  -1.058  0.00  0.00    +0.024 C 
BRANCH  14  16
ATOM     16  C   LIG    1       -3.941   0.538   0.833  0.00  0.00    +0.312 C 
ATOM     17  O   LIG    1       -4.630   0.499   1.871  0.00  0.00    -0.250 OA
BRANCH  16  18
ATOM     18  O   LIG    1       -3.765   1.735   0.180  0.00  0.00    -0.480 OA
ATOM     19  H   LIG    1       -4.297   2.561   0.369  0.00  0.00    +0.295 HD
ENDBRANCH  16  18
ENDBRANCH  14  16
ENDBRANCH   4  14
TORSDOF 4
