REMARK  Name = molecules/SZLZWPPUNLXJEA-QEGASFHISA-N.pdb
REMARK                            x       y       z     vdW  Elec       q    Type
REMARK                         _______ _______ _______ _____ _____    ______ ____
ROOT
ATOM      1  C   LIG    1       -1.168   1.191  -2.478  0.00  0.00    +0.133 C 
ATOM      2  C   LIG    1       -2.253   1.662  -1.554  0.00  0.00    +0.012 C 
ATOM      3  C   LIG    1       -1.846   1.927  -0.151  0.00  0.00    +0.011 C 
ATOM      4  C   LIG    1       -2.825   1.230   0.793  0.00  0.00    +0.089 C 
ATOM      5  N   LIG    1       -2.849  -0.154   0.427  0.00  0.00    -0.293 NA
ATOM      6  C   LIG    1       -3.196  -1.004   1.511  0.00  0.00    +0.090 C 
ATOM      7  C   LIG    1       -4.253  -2.032   1.181  0.00  0.00    +0.053 C 
ATOM      8  C   LIG    1       -5.410  -1.269   0.635  0.00  0.00    -0.016 A 
ATOM      9  C   LIG    1       -6.764  -1.220   0.868  0.00  0.00    +0.003 A 
ATOM     10  C   LIG    1       -7.554  -1.918   1.755  0.00  0.00    +0.014 A 
ATOM     11  C   LIG    1       -8.911  -1.636   1.750  0.00  0.00    +0.046 A 
ATOM     12  C   LIG    1       -9.420  -0.692   0.882  0.00  0.00    +0.122 A 
ATOM     13  C   LIG    1       -8.594  -0.004  -0.003  0.00  0.00    +0.071 A 
ATOM     14  C   LIG    1       -7.256  -0.281   0.001  0.00  0.00    +0.050 A 
ATOM     15  N   LIG    1       -6.261   0.237  -0.742  0.00  0.00    -0.356 N 
ATOM     16  H   LIG    1       -6.356   0.970  -1.479  0.00  0.00    +0.166 HD
ATOM     17  C   LIG    1       -5.117  -0.356  -0.368  0.00  0.00    +0.038 A 
ATOM     18  C   LIG    1       -3.678  -0.275  -0.752  0.00  0.00    +0.104 C 
ATOM     19  C   LIG    1       -0.481   1.486   0.242  0.00  0.00    +0.052 C 
ATOM     20  C   LIG    1        0.582   1.849  -0.758  0.00  0.00    +0.206 C 
ATOM     21  C   LIG    1       -3.518   0.848  -1.709  0.00  0.00    +0.030 C 
ATOM     22  C   LIG    1        0.095   1.939  -2.143  0.00  0.00    +0.172 C 
ENDROOT
BRANCH   1  23
ATOM     23  C   LIG    1       -1.032  -0.245  -2.637  0.00  0.00    +0.313 C 
ATOM     24  O   LIG    1       -1.193  -0.776  -3.795  0.00  0.00    -0.250 OA
BRANCH  23  25
ATOM     25  O   LIG    1       -0.735  -1.171  -1.649  0.00  0.00    -0.468 OA
ATOM     26  C   LIG    1       -0.629  -2.551  -1.930  0.00  0.00    +0.280 C 
ENDBRANCH  23  25
ENDBRANCH   1  23
BRANCH  12  27
ATOM     27  O   LIG    1      -10.771  -0.373   0.837  0.00  0.00    -0.495 OA
ATOM     28  C   LIG    1      -11.746  -0.968   1.657  0.00  0.00    +0.277 C 
ENDBRANCH  12  27
BRANCH  22  29
ATOM     29  O   LIG    1       -0.208   3.294  -2.422  0.00  0.00    -0.375 OA
ATOM     30  C   LIG    1        0.499   3.752  -3.522  0.00  0.00    +0.194 C 
ENDBRANCH  22  29
BRANCH  20  31
ATOM     31  O   LIG    1        1.694   0.999  -0.552  0.00  0.00    -0.456 OA
BRANCH  31  32
ATOM     32  C   LIG    1        2.898   1.417  -0.065  0.00  0.00    +0.332 C 
ATOM     33  O   LIG    1        3.027   2.635   0.219  0.00  0.00    -0.246 OA
BRANCH  32  34
ATOM     34  C   LIG    1        4.055   0.522   0.148  0.00  0.00    +0.092 C 
ATOM     35  C   LIG    1        5.197   0.985   0.626  0.00  0.00    +0.015 C 
BRANCH  35  36
ATOM     36  C   LIG    1        6.390   0.196   0.871  0.00  0.00    -0.018 A 
ATOM     37  C   LIG    1        7.503   0.830   1.377  0.00  0.00    +0.057 A 
ATOM     38  C   LIG    1        8.684   0.153   1.643  0.00  0.00    +0.166 A 
ATOM     39  C   LIG    1        8.763  -1.200   1.398  0.00  0.00    +0.204 A 
ATOM     40  C   LIG    1        7.677  -1.851   0.898  0.00  0.00    +0.166 A 
ATOM     41  C   LIG    1        6.492  -1.149   0.636  0.00  0.00    +0.057 A 
BRANCH  38  42
ATOM     42  O   LIG    1        9.789   0.844   2.158  0.00  0.00    -0.491 OA
ATOM     43  C   LIG    1        9.673   2.234   2.397  0.00  0.00    +0.277 C 
ENDBRANCH  38  42
BRANCH  39  44
ATOM     44  O   LIG    1        9.958  -1.848   1.675  0.00  0.00    -0.488 OA
ATOM     45  C   LIG    1       11.017  -2.010   0.773  0.00  0.00    +0.277 C 
ENDBRANCH  39  44
BRANCH  40  46
ATOM     46  O   LIG    1        7.761  -3.221   0.651  0.00  0.00    -0.491 OA
ATOM     47  C   LIG    1        6.642  -3.881   0.137  0.00  0.00    +0.277 C 
ENDBRANCH  40  46
ENDBRANCH  35  36
ENDBRANCH  32  34
ENDBRANCH  31  32
ENDBRANCH  20  31
TORSDOF 11
