REMARK  Name = molecules/SZMJVTADHFNAIS-BJMVGYQFSA-N.pdb
REMARK                            x       y       z     vdW  Elec       q    Type
REMARK                         _______ _______ _______ _____ _____    ______ ____
ROOT
ATOM      1  C   LIG    1        0.576   2.383   1.540  0.00  0.00    -0.030 A 
ATOM      2  C   LIG    1       -0.514   3.098   1.992  0.00  0.00    +0.006 A 
ATOM      3  C   LIG    1       -1.790   2.580   1.973  0.00  0.00    +0.013 A 
ATOM      4  C   LIG    1       -2.017   1.322   1.498  0.00  0.00    +0.037 A 
ATOM      5  C   LIG    1       -0.966   0.570   1.037  0.00  0.00    +0.013 A 
ATOM      6  C   LIG    1        0.327   1.115   1.064  0.00  0.00    +0.006 A 
ENDROOT
BRANCH   4   7
ATOM      7  C   LIG    1       -3.395   0.750   1.488  0.00  0.00    +0.248 C 
ATOM      8  O   LIG    1       -4.196   1.254   2.319  0.00  0.00    -0.270 OA
ATOM      9  N   LIG    1       -3.661  -0.262   0.586  0.00  0.00    -0.280 N 
ATOM     10  H   LIG    1       -2.901  -0.578  -0.055  0.00  0.00    +0.155 HD
BRANCH   9  11
ATOM     11  C   LIG    1       -4.913  -0.912   0.459  0.00  0.00    +0.055 A 
ATOM     12  C   LIG    1       -5.991  -0.651   1.258  0.00  0.00    +0.028 A 
ATOM     13  C   LIG    1       -7.193  -1.304   1.121  0.00  0.00    +0.040 A 
ATOM     14  C   LIG    1       -7.356  -2.269   0.149  0.00  0.00    +0.125 A 
ATOM     15  F   LIG    1       -8.543  -2.896   0.033  0.00  0.00    -0.205 F 
ATOM     16  C   LIG    1       -6.263  -2.530  -0.658  0.00  0.00    +0.063 A 
ATOM     17  C   LIG    1       -5.077  -1.894  -0.532  0.00  0.00    +0.049 A 
BRANCH  17  18
ATOM     18  N   LIG    1       -3.954  -2.152  -1.358  0.00  0.00    -0.356 N 
ATOM     19  H   LIG    1       -3.589  -3.109  -1.490  0.00  0.00    +0.142 HD
ATOM     20  H   LIG    1       -3.490  -1.363  -1.838  0.00  0.00    +0.142 HD
ENDBRANCH  17  18
ENDBRANCH   9  11
ENDBRANCH   4   7
BRANCH   1  21
ATOM     21  C   LIG    1        1.966   2.947   1.567  0.00  0.00    +0.139 C 
BRANCH  21  23
ATOM     22  C   LIG    1        2.885   1.933  -0.529  0.00  0.00    +0.237 C 
ATOM     23  N   LIG    1        2.869   2.004   0.872  0.00  0.00    -0.308 N 
ATOM     24  H   LIG    1        3.478   1.407   1.447  0.00  0.00    +0.149 HD
ATOM     25  O   LIG    1        2.106   2.697  -1.187  0.00  0.00    -0.271 OA
BRANCH  22  27
ATOM     26  C   LIG    1        4.579   0.210  -0.612  0.00  0.00    +0.014 C 
ATOM     27  C   LIG    1        3.757   1.020  -1.234  0.00  0.00    +0.068 C 
BRANCH  26  32
ATOM     28  C   LIG    1        6.435  -1.779  -3.230  0.00  0.00    +0.020 A 
ATOM     29  C   LIG    1        7.244  -2.573  -2.449  0.00  0.00    +0.111 A 
ATOM     30  N   LIG    1        7.145  -2.421  -1.128  0.00  0.00    -0.263 NA
ATOM     31  C   LIG    1        6.318  -1.557  -0.534  0.00  0.00    +0.118 A 
ATOM     32  C   LIG    1        5.478  -0.730  -1.279  0.00  0.00    -0.007 A 
ATOM     33  C   LIG    1        5.559  -0.864  -2.633  0.00  0.00    +0.011 A 
ENDBRANCH  26  32
ENDBRANCH  22  27
ENDBRANCH  21  23
ENDBRANCH   1  21
TORSDOF 7
