REMARK  Name = molecules/SZQIFWWUIBRPBZ-SECBINFHSA-N.pdb
REMARK                            x       y       z     vdW  Elec       q    Type
REMARK                         _______ _______ _______ _____ _____    ______ ____
ROOT
ATOM      1  O   LIG    1        0.857   1.073   1.886  0.00  0.00    -0.273 OA
ATOM      2  C   LIG    1        0.764   0.119   1.065  0.00  0.00    +0.248 C 
ATOM      3  C   LIG    1       -0.363  -0.849   1.055  0.00  0.00    +0.191 C 
ATOM      4  N   LIG    1        0.169  -1.987   0.340  0.00  0.00    -0.284 N 
ATOM      5  H   LIG    1       -0.199  -2.965   0.368  0.00  0.00    +0.151 HD
ATOM      6  C   LIG    1        1.285  -1.523  -0.407  0.00  0.00    +0.309 C 
ATOM      7  O   LIG    1        1.893  -2.143  -1.342  0.00  0.00    -0.252 OA
ATOM      8  N   LIG    1        1.677  -0.225   0.017  0.00  0.00    -0.224 N 
ENDROOT
BRANCH   3   9
ATOM      9  C   LIG    1       -1.507  -0.225   0.340  0.00  0.00    -0.018 A 
ATOM     10  C   LIG    1       -2.647   0.133   1.029  0.00  0.00    +0.006 A 
ATOM     11  C   LIG    1       -3.738   0.712   0.427  0.00  0.00    +0.000 A 
ATOM     12  C   LIG    1       -3.708   0.953  -0.918  0.00  0.00    +0.000 A 
ATOM     13  C   LIG    1       -2.590   0.611  -1.646  0.00  0.00    +0.000 A 
ATOM     14  C   LIG    1       -1.496   0.025  -1.016  0.00  0.00    +0.006 A 
ENDBRANCH   3   9
BRANCH   8  15
ATOM     15  C   LIG    1        2.743   0.626  -0.450  0.00  0.00    +0.114 C 
ATOM     16  C   LIG    1        4.035   0.416   0.284  0.00  0.00    +0.025 C 
ENDBRANCH   8  15
TORSDOF 2
