REMARK  Name = molecules/TTWJBBZEZQICBI-UHFFFAOYSA-N.pdb
REMARK                            x       y       z     vdW  Elec       q    Type
REMARK                         _______ _______ _______ _____ _____    ______ ____
ROOT
ATOM      1  C   LIG    1        2.261   0.661   0.807  0.00  0.00    +0.080 A 
ATOM      2  C   LIG    1        2.492   1.575   1.849  0.00  0.00    +0.038 A 
ATOM      3  C   LIG    1        3.692   2.228   1.984  0.00  0.00    +0.062 A 
ATOM      4 CL   LIG    1        4.017   3.370   3.263  0.00  0.00    -0.082 Cl
ATOM      5  C   LIG    1        4.674   1.956   1.054  0.00  0.00    +0.047 A 
ATOM      6  C   LIG    1        4.463   1.062   0.026  0.00  0.00    +0.070 A 
ATOM      7  C   LIG    1        3.240   0.393  -0.117  0.00  0.00    +0.134 A 
ENDROOT
BRANCH   1   8
ATOM      8  C   LIG    1        0.976   0.001   0.715  0.00  0.00    +0.248 C 
ATOM      9  O   LIG    1        0.142   0.346   1.648  0.00  0.00    -0.270 OA
ATOM     10  N   LIG    1        0.547  -0.937  -0.235  0.00  0.00    -0.310 N 
ATOM     11  H   LIG    1        1.153  -1.259  -0.997  0.00  0.00    +0.149 HD
BRANCH  10  12
ATOM     12  C   LIG    1       -0.801  -1.478  -0.147  0.00  0.00    +0.120 C 
BRANCH  12  13
ATOM     13  C   LIG    1       -1.877  -0.441  -0.273  0.00  0.00    +0.103 C 
BRANCH  13  14
ATOM     14  N   LIG    1       -3.194  -0.943  -0.194  0.00  0.00    -0.301 NA
BRANCH  14  15
ATOM     15  C   LIG    1       -4.150  -0.151   0.487  0.00  0.00    +0.081 C 
ATOM     16  C   LIG    1       -4.403   1.110  -0.331  0.00  0.00    +0.020 C 
ENDBRANCH  14  15
BRANCH  14  17
ATOM     17  C   LIG    1       -3.670  -1.760  -1.239  0.00  0.00    +0.081 C 
ATOM     18  C   LIG    1       -5.094  -2.181  -0.960  0.00  0.00    +0.020 C 
ENDBRANCH  14  17
ENDBRANCH  13  14
ENDBRANCH  12  13
ENDBRANCH  10  12
ENDBRANCH   1   8
BRANCH   5  19
ATOM     19  N   LIG    1        5.918   2.619   1.177  0.00  0.00    -0.357 N 
ATOM     20  H   LIG    1        5.996   3.636   1.394  0.00  0.00    +0.142 HD
ATOM     21  H   LIG    1        6.805   2.065   1.044  0.00  0.00    +0.142 HD
ENDBRANCH   5  19
BRANCH   7  22
ATOM     22  O   LIG    1        3.115  -0.488  -1.180  0.00  0.00    -0.494 OA
ATOM     23  C   LIG    1        4.128  -0.740  -2.103  0.00  0.00    +0.277 C 
ENDBRANCH   7  22
TORSDOF 8
