REMARK  Name = molecules/TTZHDVOVKQGIBA-IQWMDFIBSA-N.pdb
REMARK                            x       y       z     vdW  Elec       q    Type
REMARK                         _______ _______ _______ _____ _____    ______ ____
ROOT
ATOM      1  O   LIG    1       -0.082   0.284  -0.084  0.00  0.00    -0.284 OA
ENDROOT
BRANCH   1   2
ATOM      2  P   LIG    1       -0.546  -0.917   1.012  0.00  0.00    +0.462 P 
ATOM      3  O   LIG    1        0.231  -0.639   2.355  0.00  0.00    -0.228 OA
BRANCH   2   4
ATOM      4  N   LIG    1       -2.214  -0.523   1.456  0.00  0.00    -0.199 NA
ATOM      5  H   LIG    1       -2.201   0.228   2.195  0.00  0.00    +0.135 HD
BRANCH   4   6
ATOM      6  C   LIG    1       -2.812   0.085   0.291  0.00  0.00    +0.171 C 
ATOM      7  C   LIG    1       -3.225  -0.923  -0.774  0.00  0.00    +0.036 C 
BRANCH   6   8
ATOM      8  C   LIG    1       -3.958   0.936   0.585  0.00  0.00    +0.325 C 
ATOM      9  O   LIG    1       -4.084   1.508   1.674  0.00  0.00    -0.249 OA
BRANCH   8  10
ATOM     10  O   LIG    1       -4.902   1.078  -0.400  0.00  0.00    -0.461 OA
BRANCH  10  11
ATOM     11  C   LIG    1       -6.056   1.846  -0.253  0.00  0.00    +0.170 C 
ATOM     12  C   LIG    1       -6.897   1.194   0.822  0.00  0.00    +0.052 C 
ATOM     13  C   LIG    1       -5.759   3.295  -0.043  0.00  0.00    +0.052 C 
ENDBRANCH  10  11
ENDBRANCH   8  10
ENDBRANCH   6   8
ENDBRANCH   4   6
ENDBRANCH   2   4
BRANCH   2  14
ATOM     14  O   LIG    1       -0.320  -2.504   0.686  0.00  0.00    -0.413 OA
BRANCH  14  15
ATOM     15  C   LIG    1       -1.242  -3.319   0.005  0.00  0.00    +0.131 A 
ATOM     16  C   LIG    1       -2.257  -3.908   0.703  0.00  0.00    +0.046 A 
ATOM     17  C   LIG    1       -3.147  -4.704   0.003  0.00  0.00    +0.004 A 
ATOM     18  C   LIG    1       -3.024  -4.907  -1.391  0.00  0.00    +0.000 A 
ATOM     19  C   LIG    1       -1.983  -4.292  -2.042  0.00  0.00    +0.004 A 
ATOM     20  C   LIG    1       -1.100  -3.502  -1.341  0.00  0.00    +0.046 A 
ENDBRANCH  14  15
ENDBRANCH   2  14
ENDBRANCH   1   2
BRANCH   1  21
ATOM     21  C   LIG    1        1.324   0.209  -0.238  0.00  0.00    +0.206 C 
BRANCH  21  26
ATOM     22  C   LIG    1        4.476   1.794  -1.530  0.00  0.00    +0.055 C 
ATOM     23  C   LIG    1        3.947   2.397  -0.244  0.00  0.00    +0.182 C 
ATOM     24  C   LIG    1        4.067   1.457   0.923  0.00  0.00    +0.263 C 
ATOM     25  O   LIG    1        2.872   0.962   1.245  0.00  0.00    -0.345 OA
ATOM     26  C   LIG    1        1.902   1.454   0.347  0.00  0.00    +0.179 C 
ATOM     27  F   LIG    1        4.573   3.553   0.038  0.00  0.00    -0.235 F 
ATOM     28  C   LIG    1        2.441   2.553  -0.401  0.00  0.00    +0.187 C 
BRANCH  24  29
ATOM     29  N   LIG    1        5.129   0.507   0.649  0.00  0.00    -0.271 N 
ATOM     30  C   LIG    1        6.399   0.984   0.790  0.00  0.00    +0.331 A 
ATOM     31  O   LIG    1        6.554   2.155   1.186  0.00  0.00    -0.246 OA
ATOM     32  N   LIG    1        7.468   0.214   0.510  0.00  0.00    -0.275 N 
ATOM     33  H   LIG    1        8.451   0.590   0.614  0.00  0.00    +0.173 HD
ATOM     34  C   LIG    1        7.320  -1.059   0.081  0.00  0.00    +0.254 A 
ATOM     35  C   LIG    1        6.054  -1.571  -0.071  0.00  0.00    +0.088 A 
ATOM     36  O   LIG    1        8.356  -1.706  -0.167  0.00  0.00    -0.268 OA
ATOM     37  C   LIG    1        4.982  -0.741   0.229  0.00  0.00    +0.098 A 
ENDBRANCH  24  29
BRANCH  28  38
ATOM     38  O   LIG    1        2.171   3.811   0.276  0.00  0.00    -0.386 OA
ATOM     39  H   LIG    1        2.184   3.545   1.260  0.00  0.00    +0.210 HD
ENDBRANCH  28  38
ENDBRANCH  21  26
ENDBRANCH   1  21
TORSDOF 12
