REMARK  Name = molecules/TUESWZZJYCLFNL-UHFFFAOYSA-N.pdb
REMARK                            x       y       z     vdW  Elec       q    Type
REMARK                         _______ _______ _______ _____ _____    ______ ____
ROOT
ATOM      1  C   LIG    1        0.385  -0.330  -0.256  0.00  0.00    +0.008 C 
ATOM      2  C   LIG    1       -0.406   0.522   0.313  0.00  0.00    +0.012 C 
ENDROOT
BRANCH   1   6
ATOM      3  C   LIG    1        4.681  -0.276   0.075  0.00  0.00    +0.065 A 
ATOM      4  C   LIG    1        3.927   0.665   0.712  0.00  0.00    +0.016 A 
ATOM      5  C   LIG    1        2.523   0.665   0.617  0.00  0.00    +0.009 A 
ATOM      6  C   LIG    1        1.860  -0.284  -0.122  0.00  0.00    -0.025 A 
ATOM      7  C   LIG    1        2.662  -1.224  -0.754  0.00  0.00    +0.009 A 
ATOM      8  C   LIG    1        4.036  -1.236  -0.669  0.00  0.00    +0.016 A 
BRANCH   3  10
ATOM      9  N   LIG    1        6.904  -1.302  -0.522  0.00  0.00    -0.286 N 
ATOM     10  C   LIG    1        6.120  -0.307   0.151  0.00  0.00    +0.306 C 
ATOM     11  H   LIG    1        7.702  -1.755  -0.030  0.00  0.00    +0.301 HD
ATOM     12  H   LIG    1        6.663  -1.562  -1.503  0.00  0.00    +0.301 HD
BRANCH  10  13
ATOM     13  N   LIG    1        6.761   0.560   0.828  0.00  0.00    -0.069 NA
ATOM     14  H   LIG    1        6.411   1.345   1.377  0.00  0.00    +0.348 HD
ENDBRANCH  10  13
ENDBRANCH   3  10
ENDBRANCH   1   6
BRANCH   2  15
ATOM     15  C   LIG    1       -1.845   0.450   0.162  0.00  0.00    +0.016 A 
ATOM     16  C   LIG    1       -2.710   1.350   0.760  0.00  0.00    +0.125 A 
ATOM     17  C   LIG    1       -4.104   1.262   0.602  0.00  0.00    +0.062 A 
ATOM     18  C   LIG    1       -4.651   0.262  -0.166  0.00  0.00    +0.068 A 
ATOM     19  C   LIG    1       -3.783  -0.625  -0.755  0.00  0.00    +0.017 A 
ATOM     20  C   LIG    1       -2.394  -0.549  -0.605  0.00  0.00    +0.012 A 
BRANCH  18  21
ATOM     21  C   LIG    1       -6.076   0.110  -0.374  0.00  0.00    +0.306 C 
ATOM     22  N   LIG    1       -6.571  -0.945  -1.178  0.00  0.00    -0.286 N 
ATOM     23  H   LIG    1       -7.128  -1.713  -0.766  0.00  0.00    +0.301 HD
ATOM     24  H   LIG    1       -6.368  -0.943  -2.193  0.00  0.00    +0.301 HD
BRANCH  21  25
ATOM     25  N   LIG    1       -6.902   0.926   0.166  0.00  0.00    -0.069 NA
ATOM     26  H   LIG    1       -6.718   1.727   0.763  0.00  0.00    +0.348 HD
ENDBRANCH  21  25
ENDBRANCH  18  21
BRANCH  16  27
ATOM     27  O   LIG    1       -2.205   2.360   1.532  0.00  0.00    -0.506 OA
ATOM     28  H   LIG    1       -1.255   2.526   1.718  0.00  0.00    +0.292 HD
ENDBRANCH  16  27
ENDBRANCH   2  15
TORSDOF 7
