REMARK  Name = molecules/TUZYXOIXSAXUGO-PZAWKZKUSA-N.pdb
REMARK                            x       y       z     vdW  Elec       q    Type
REMARK                         _______ _______ _______ _____ _____    ______ ____
ROOT
ATOM      1  C   LIG    1        0.018  -1.191  -0.460  0.00  0.00    +0.007 C 
ATOM      2  C   LIG    1       -0.646  -1.061   0.862  0.00  0.00    +0.063 C 
ATOM      3  C   LIG    1       -1.550   0.145   1.008  0.00  0.00    +0.187 C 
ATOM      4  C   LIG    1       -2.023   0.091   2.481  0.00  0.00    +0.080 C 
ATOM      5  C   LIG    1       -2.975  -1.032   2.622  0.00  0.00    +0.141 C 
ATOM      6  C   LIG    1       -2.640  -2.190   1.758  0.00  0.00    +0.008 C 
ATOM      7  C   LIG    1       -1.609  -2.243   0.957  0.00  0.00    -0.042 C 
ATOM      8  C   LIG    1       -1.378  -3.401   0.119  0.00  0.00    -0.000 C 
ATOM      9  C   LIG    1       -0.297  -3.562  -0.609  0.00  0.00    -0.023 C 
ATOM     10  C   LIG    1        0.769  -2.488  -0.577  0.00  0.00    +0.012 C 
ATOM     11  C   LIG    1        1.653  -2.874   0.556  0.00  0.00    +0.012 C 
ENDROOT
BRANCH   5  12
ATOM     12  O   LIG    1       -3.123  -1.476   3.936  0.00  0.00    -0.388 OA
ATOM     13  H   LIG    1       -3.351  -0.771   4.562  0.00  0.00    +0.210 HD
ENDBRANCH   5  12
BRANCH   1  14
ATOM     14  C   LIG    1        0.530  -0.006  -1.137  0.00  0.00    +0.007 C 
BRANCH  14  15
ATOM     15  C   LIG    1        1.540   0.898  -0.603  0.00  0.00    +0.032 C 
BRANCH  15  16
ATOM     16  C   LIG    1        2.863   0.272  -0.353  0.00  0.00    +0.117 C 
BRANCH  16  17
ATOM     17  O   LIG    1        3.411  -0.368  -1.425  0.00  0.00    -0.392 OA
ATOM     18  H   LIG    1        3.737  -1.256  -1.215  0.00  0.00    +0.210 HD
ENDBRANCH  16  17
BRANCH  16  19
ATOM     19  C   LIG    1        3.880   1.290   0.176  0.00  0.00    +0.063 C 
BRANCH  19  20
ATOM     20  C   LIG    1        5.172   0.530   0.386  0.00  0.00    +0.128 C 
BRANCH  20  21
ATOM     21  O   LIG    1        5.649   0.014  -0.843  0.00  0.00    -0.391 OA
ATOM     22  H   LIG    1        5.504   0.683  -1.567  0.00  0.00    +0.210 HD
ENDBRANCH  20  21
BRANCH  20  23
ATOM     23  C   LIG    1        6.242   1.468   0.916  0.00  0.00    +0.151 C 
BRANCH  23  24
ATOM     24  C   LIG    1        7.479   0.714   1.112  0.00  0.00    +0.307 C 
ATOM     25  O   LIG    1        7.531  -0.508   0.850  0.00  0.00    -0.251 OA
BRANCH  24  26
ATOM     26  O   LIG    1        8.608   1.358   1.593  0.00  0.00    -0.481 OA
ATOM     27  H   LIG    1        8.699   2.360   1.638  0.00  0.00    +0.295 HD
ENDBRANCH  24  26
ENDBRANCH  23  24
ENDBRANCH  20  23
ENDBRANCH  19  20
ENDBRANCH  16  19
ENDBRANCH  15  16
ENDBRANCH  14  15
ENDBRANCH   1  14
BRANCH   3  28
ATOM     28  O   LIG    1       -2.744   0.040   0.255  0.00  0.00    -0.460 OA
BRANCH  28  29
ATOM     29  C   LIG    1       -3.131   1.169  -0.469  0.00  0.00    +0.310 C 
ATOM     30  O   LIG    1       -2.432   2.190  -0.422  0.00  0.00    -0.251 OA
BRANCH  29  31
ATOM     31  C   LIG    1       -4.367   1.174  -1.300  0.00  0.00    +0.094 C 
ATOM     32  C   LIG    1       -5.537   1.007  -0.323  0.00  0.00    +0.019 C 
BRANCH  31  33
ATOM     33  C   LIG    1       -4.498   2.516  -1.939  0.00  0.00    +0.011 C 
ATOM     34  C   LIG    1       -5.707   2.661  -2.809  0.00  0.00    +0.004 C 
ENDBRANCH  31  33
ENDBRANCH  29  31
ENDBRANCH  28  29
ENDBRANCH   3  28
TORSDOF 15
