REMARK  Name = molecules/TVQZAMVBTVNYLA-VIFPVBQESA-N.pdb
REMARK                            x       y       z     vdW  Elec       q    Type
REMARK                         _______ _______ _______ _____ _____    ______ ____
ROOT
ATOM      1  C   LIG    1       -1.934   0.341   0.223  0.00  0.00    -0.033 A 
ATOM      2  C   LIG    1       -1.618   0.635   1.534  0.00  0.00    +0.008 A 
ATOM      3  C   LIG    1       -0.318   0.586   1.999  0.00  0.00    +0.047 A 
ATOM      4  C   LIG    1        0.705   0.236   1.144  0.00  0.00    +0.134 A 
ATOM      5  O   LIG    1        2.016   0.184   1.602  0.00  0.00    -0.437 OA
ATOM      6  C   LIG    1        3.079  -0.161   0.786  0.00  0.00    +0.224 A 
ATOM      7  N   LIG    1        4.339  -0.199   1.274  0.00  0.00    -0.221 NA
ATOM      8  C   LIG    1        5.401  -0.529   0.514  0.00  0.00    +0.114 A 
ATOM      9  C   LIG    1        5.166  -0.837  -0.810  0.00  0.00    +0.020 A 
ATOM     10  C   LIG    1        3.895  -0.811  -1.349  0.00  0.00    +0.010 A 
ATOM     11  C   LIG    1        2.825  -0.464  -0.531  0.00  0.00    +0.019 A 
ATOM     12  C   LIG    1        1.486  -0.449  -1.149  0.00  0.00    +0.079 C 
ATOM     13  C   LIG    1        0.432  -0.065  -0.176  0.00  0.00    -0.000 A 
ATOM     14  C   LIG    1       -0.891  -0.005  -0.607  0.00  0.00    +0.012 A 
ENDROOT
BRANCH   1  15
ATOM     15  C   LIG    1       -3.317   0.398  -0.253  0.00  0.00    +0.124 C 
ATOM     16  C   LIG    1       -3.874   1.826  -0.213  0.00  0.00    +0.024 C 
BRANCH  15  17
ATOM     17  C   LIG    1       -4.231  -0.501   0.456  0.00  0.00    +0.312 C 
ATOM     18  O   LIG    1       -5.225  -0.050   1.076  0.00  0.00    -0.250 OA
BRANCH  17  19
ATOM     19  O   LIG    1       -4.013  -1.865   0.453  0.00  0.00    -0.480 OA
ATOM     20  H   LIG    1       -4.084  -2.391   1.315  0.00  0.00    +0.295 HD
ENDBRANCH  17  19
ENDBRANCH  15  17
ENDBRANCH   1  15
TORSDOF 3
