REMARK  Name = molecules/TVURRHSHRRELCG-CYBMUJFWSA-N.pdb
REMARK                            x       y       z     vdW  Elec       q    Type
REMARK                         _______ _______ _______ _____ _____    ______ ____
ROOT
ATOM      1 CL   LIG    1       -4.153   0.572   1.798  0.00  0.00    -0.079 Cl
ATOM      2  C   LIG    1       -2.786   0.796   0.735  0.00  0.00    +0.089 A 
ATOM      3  C   LIG    1       -1.893  -0.217   0.542  0.00  0.00    -0.020 A 
ATOM      4  C   LIG    1       -2.205  -1.464   1.298  0.00  0.00    +0.052 C 
ATOM      5  C   LIG    1       -2.130  -2.601   0.306  0.00  0.00    +0.085 C 
ATOM      6  N   LIG    1       -0.841  -3.145   0.093  0.00  0.00    -0.315 NA
ATOM      7  H   LIG    1       -0.687  -3.962   0.710  0.00  0.00    +0.122 HD
ATOM      8  C   LIG    1        0.258  -2.233   0.303  0.00  0.00    +0.093 C 
ATOM      9  C   LIG    1        0.263  -1.066  -0.614  0.00  0.00    +0.063 C 
ATOM     10  C   LIG    1       -0.806  -0.061  -0.293  0.00  0.00    -0.030 A 
ATOM     11  C   LIG    1       -0.596   1.101  -0.945  0.00  0.00    +0.053 A 
ATOM     12  C   LIG    1       -1.492   2.155  -0.768  0.00  0.00    +0.160 A 
ATOM     13  C   LIG    1       -2.577   2.000   0.066  0.00  0.00    +0.177 A 
ENDROOT
BRANCH   9  14
ATOM     14  C   LIG    1        1.555  -0.358  -0.492  0.00  0.00    -0.039 A 
ATOM     15  C   LIG    1        2.022  -0.071   0.769  0.00  0.00    +0.008 A 
ATOM     16  C   LIG    1        3.220   0.576   1.000  0.00  0.00    +0.045 A 
ATOM     17  C   LIG    1        3.964   0.942  -0.099  0.00  0.00    +0.117 A 
ATOM     18  C   LIG    1        3.508   0.661  -1.368  0.00  0.00    +0.045 A 
ATOM     19  C   LIG    1        2.312   0.015  -1.585  0.00  0.00    +0.008 A 
BRANCH  17  20
ATOM     20  O   LIG    1        5.173   1.594   0.119  0.00  0.00    -0.507 OA
ATOM     21  H   LIG    1        5.136   2.608   0.166  0.00  0.00    +0.292 HD
ENDBRANCH  17  20
ENDBRANCH   9  14
BRANCH  12  22
ATOM     22  O   LIG    1       -1.276   3.352  -1.438  0.00  0.00    -0.503 OA
ATOM     23  H   LIG    1       -1.890   4.135  -1.342  0.00  0.00    +0.292 HD
ENDBRANCH  12  22
BRANCH  13  24
ATOM     24  O   LIG    1       -3.485   3.012   0.270  0.00  0.00    -0.502 OA
ATOM     25  H   LIG    1       -3.460   3.923  -0.141  0.00  0.00    +0.292 HD
ENDBRANCH  13  24
TORSDOF 4
