REMARK  Name = molecules/TWHSQQYCDVSBRK-UHFFFAOYSA-N.pdb
REMARK                            x       y       z     vdW  Elec       q    Type
REMARK                         _______ _______ _______ _____ _____    ______ ____
ROOT
ATOM      1  C   LIG    1       -0.869   0.000   0.733  0.00  0.00    +0.050 A 
ATOM      2  C   LIG    1       -1.491   1.212   0.521  0.00  0.00    +0.022 A 
ATOM      3  C   LIG    1       -0.900   2.397   0.891  0.00  0.00    +0.012 A 
ATOM      4  C   LIG    1       -1.577   3.573   0.649  0.00  0.00    +0.001 A 
ATOM      5  C   LIG    1       -2.821   3.616   0.054  0.00  0.00    +0.005 A 
ATOM      6  C   LIG    1       -3.401   2.415  -0.312  0.00  0.00    -0.024 A 
ATOM      7  C   LIG    1       -4.748   2.470  -0.959  0.00  0.00    +0.046 C 
ATOM      8  C   LIG    1       -2.746   1.224  -0.082  0.00  0.00    +0.076 A 
ATOM      9  N   LIG    1       -3.350   0.089  -0.455  0.00  0.00    -0.246 NA
ATOM     10  C   LIG    1       -2.783  -1.112  -0.268  0.00  0.00    +0.086 A 
ATOM     11  C   LIG    1       -3.411  -2.275  -0.662  0.00  0.00    +0.063 A 
ATOM     12  C   LIG    1       -2.748  -3.495  -0.443  0.00  0.00    +0.015 A 
ATOM     13  C   LIG    1       -1.516  -3.550   0.145  0.00  0.00    +0.001 A 
ATOM     14  C   LIG    1       -0.914  -2.377   0.529  0.00  0.00    +0.012 A 
ATOM     15  C   LIG    1       -1.522  -1.147   0.335  0.00  0.00    +0.023 A 
ENDROOT
BRANCH  11  16
ATOM     16  C   LIG    1       -4.733  -2.297  -1.270  0.00  0.00    +0.246 C 
ATOM     17  N   LIG    1       -5.646  -1.238  -1.268  0.00  0.00    -0.314 N 
ATOM     18  H   LIG    1       -5.463  -0.335  -0.816  0.00  0.00    +0.149 HD
ATOM     19  C   LIG    1       -6.947  -1.428  -1.936  0.00  0.00    +0.128 C 
ATOM     20  O   LIG    1       -5.065  -3.403  -1.850  0.00  0.00    -0.270 OA
ENDBRANCH  11  16
BRANCH   1  21
ATOM     21  N   LIG    1        0.405  -0.110   1.339  0.00  0.00    -0.311 N 
ATOM     22  H   LIG    1        0.417  -0.214   2.375  0.00  0.00    +0.152 HD
BRANCH  21  23
ATOM     23  C   LIG    1        1.637  -0.089   0.650  0.00  0.00    +0.074 A 
ATOM     24  C   LIG    1        2.817  -0.197   1.340  0.00  0.00    +0.143 A 
ATOM     25  C   LIG    1        3.999  -0.167   0.619  0.00  0.00    +0.072 A 
ATOM     26  C   LIG    1        4.061  -0.038  -0.738  0.00  0.00    +0.051 A 
ATOM     27  C   LIG    1        2.857   0.069  -1.417  0.00  0.00    +0.026 A 
ATOM     28  C   LIG    1        1.674   0.042  -0.719  0.00  0.00    +0.029 A 
BRANCH  24  29
ATOM     29  O   LIG    1        2.899  -0.333   2.697  0.00  0.00    -0.493 OA
ATOM     30  C   LIG    1        4.086  -0.441   3.432  0.00  0.00    +0.277 C 
ENDBRANCH  24  29
BRANCH  26  31
ATOM     31  N   LIG    1        5.303  -0.024  -1.421  0.00  0.00    -0.221 N 
ATOM     32  H   LIG    1        5.378  -0.647  -2.276  0.00  0.00    +0.173 HD
BRANCH  31  33
ATOM     33  S   LIG    1        6.656   0.891  -0.990  0.00  0.00    +0.040 S 
ATOM     34  C   LIG    1        7.353   0.554   0.580  0.00  0.00    +0.218 C 
ATOM     35  O   LIG    1        6.312   2.356  -1.035  0.00  0.00    -0.155 OA
ATOM     36  O   LIG    1        7.778   0.705  -2.007  0.00  0.00    -0.155 OA
ENDBRANCH  31  33
ENDBRANCH  26  31
ENDBRANCH  21  23
ENDBRANCH   1  21
TORSDOF 6
