REMARK  Name = molecules/TWHZNAUBXFZMCA-UHFFFAOYSA-N.pdb
REMARK                            x       y       z     vdW  Elec       q    Type
REMARK                         _______ _______ _______ _____ _____    ______ ____
ROOT
ATOM      1  C   LIG    1        1.746  -0.242  -0.121  0.00  0.00    +0.165 A 
ATOM      2  N   LIG    1        0.611   0.444  -0.059  0.00  0.00    -0.220 NA
ATOM      3  C   LIG    1       -0.521  -0.134  -0.188  0.00  0.00    +0.135 A 
ATOM      4  C   LIG    1       -0.513  -1.520  -0.399  0.00  0.00    +0.081 A 
ATOM      5  S   LIG    1        1.138  -1.853  -0.387  0.00  0.00    -0.060 S 
ENDROOT
BRANCH   1   7
ATOM      6  C   LIG    1        4.067  -0.894  -0.288  0.00  0.00    +0.253 C 
ATOM      7  N   LIG    1        3.125   0.141  -0.039  0.00  0.00    -0.261 N 
ATOM      8  H   LIG    1        3.405   1.088   0.198  0.00  0.00    +0.157 HD
ATOM      9  O   LIG    1        3.636  -2.057  -0.583  0.00  0.00    -0.270 OA
BRANCH   6  15
ATOM     10  C   LIG    1        5.954   0.579   0.141  0.00  0.00    +0.066 A 
ATOM     11  C   LIG    1        7.314   0.840   0.233  0.00  0.00    +0.162 A 
ATOM     12  C   LIG    1        8.175  -0.210  -0.044  0.00  0.00    +0.165 A 
ATOM     13  C   LIG    1        7.722  -1.435  -0.392  0.00  0.00    +0.095 A 
ATOM     14  C   LIG    1        6.345  -1.697  -0.487  0.00  0.00    +0.133 A 
ATOM     15  C   LIG    1        5.482  -0.675  -0.215  0.00  0.00    +0.082 A 
BRANCH  11  16
ATOM     16  O   LIG    1        7.839   2.059   0.580  0.00  0.00    -0.491 OA
ATOM     17  C   LIG    1        6.952   3.116   0.901  0.00  0.00    +0.277 C 
ENDBRANCH  11  16
BRANCH  12  18
ATOM     18  O   LIG    1        9.517   0.040   0.055  0.00  0.00    -0.491 OA
ATOM     19  C   LIG    1       10.565  -0.880  -0.168  0.00  0.00    +0.277 C 
ENDBRANCH  12  18
BRANCH  14  20
ATOM     20  O   LIG    1        5.988  -2.993  -0.854  0.00  0.00    -0.506 OA
ATOM     21  H   LIG    1        5.146  -3.426  -1.002  0.00  0.00    +0.292 HD
ENDBRANCH  14  20
ENDBRANCH   6  15
ENDBRANCH   1   7
BRANCH   3  22
ATOM     22  C   LIG    1       -1.862   0.532  -0.216  0.00  0.00    +0.263 C 
ATOM     23  N   LIG    1       -2.815   0.534   0.737  0.00  0.00    -0.309 N 
ATOM     24  H   LIG    1       -3.669   1.150  -0.135  0.00  0.00    +0.149 HD
ATOM     25  O   LIG    1       -2.001   1.133  -1.363  0.00  0.00    -0.269 OA
BRANCH  23  26
ATOM     26  C   LIG    1       -3.806   0.545   1.703  0.00  0.00    +0.120 C 
BRANCH  26  27
ATOM     27  C   LIG    1       -4.995  -0.309   1.229  0.00  0.00    +0.103 C 
BRANCH  27  28
ATOM     28  N   LIG    1       -5.518   0.041   0.004  0.00  0.00    -0.296 NA
BRANCH  28  29
ATOM     29  C   LIG    1       -6.350   1.055  -0.329  0.00  0.00    +0.051 C 
ATOM     30  C   LIG    1       -7.756   0.751   0.250  0.00  0.00    +0.024 C 
ATOM     31  C   LIG    1       -6.085   2.468   0.142  0.00  0.00    +0.024 C 
ENDBRANCH  28  29
BRANCH  28  32
ATOM     32  C   LIG    1       -5.275  -0.982  -1.021  0.00  0.00    +0.051 C 
ATOM     33  C   LIG    1       -6.277  -2.079  -0.714  0.00  0.00    +0.024 C 
ATOM     34  C   LIG    1       -5.387  -0.566  -2.411  0.00  0.00    +0.024 C 
ENDBRANCH  28  32
ENDBRANCH  27  28
ENDBRANCH  26  27
ENDBRANCH  23  26
ENDBRANCH   3  22
TORSDOF 11
