REMARK  Name = molecules/TWNQGVIAIRXVLR-UHFFFAOYSA-N.pdb
REMARK                            x       y       z     vdW  Elec       q    Type
REMARK                         _______ _______ _______ _____ _____    ______ ____
ROOT
ATOM      1 AL   LIG    1        0.939  -0.496   0.554  0.00  0.00    +0.833 Al
ATOM      2  O   LIG    1       -0.729  -0.004   1.232  0.00  0.00    -0.555 OA
ATOM      3  O   LIG    1        0.803   1.135  -0.348  0.00  0.00    -0.555 OA
ATOM      4 AL   LIG    1       -0.937   0.494  -0.558  0.00  0.00    +0.833 Al
ATOM      5  O   LIG    1       -0.075  -1.130  -0.881  0.00  0.00    -0.555 OA
ENDROOT
TORSDOF 0
