REMARK  Name = molecules/TWVUMMQUXMYOOH-GFCCVEGCSA-N.pdb
REMARK                            x       y       z     vdW  Elec       q    Type
REMARK                         _______ _______ _______ _____ _____    ______ ____
ROOT
ATOM      1  O   LIG    1       -1.070   1.015   0.205  0.00  0.00    -0.487 OA
ENDROOT
BRANCH   1   2
ATOM      2  C   LIG    1       -2.231   0.460  -0.249  0.00  0.00    +0.145 A 
ATOM      3  C   LIG    1       -3.439   0.967   0.264  0.00  0.00    +0.030 A 
ATOM      4  C   LIG    1       -3.420   1.984   1.190  0.00  0.00    +0.012 A 
ATOM      5  C   LIG    1       -4.610   2.503   1.713  0.00  0.00    +0.001 A 
ATOM      6  C   LIG    1       -5.804   1.992   1.298  0.00  0.00    +0.001 A 
ATOM      7  C   LIG    1       -5.845   0.960   0.360  0.00  0.00    +0.014 A 
ATOM      8  C   LIG    1       -4.649   0.467  -0.140  0.00  0.00    +0.050 A 
ATOM      9  C   LIG    1       -4.711  -0.558  -1.071  0.00  0.00    +0.259 A 
ATOM     10  O   LIG    1       -5.814  -1.044  -1.467  0.00  0.00    -0.267 OA
ATOM     11  N   LIG    1       -3.568  -1.054  -1.572  0.00  0.00    -0.314 N 
ATOM     12  C   LIG    1       -3.615  -2.128  -2.549  0.00  0.00    +0.152 C 
ATOM     13  C   LIG    1       -2.369  -0.550  -1.165  0.00  0.00    +0.135 A 
ENDBRANCH   1   2
BRANCH   1  14
ATOM     14  C   LIG    1        0.250   0.749  -0.071  0.00  0.00    +0.261 C 
BRANCH  14  15
ATOM     15  C   LIG    1        0.783  -0.590   0.300  0.00  0.00    +0.166 C 
BRANCH  15  16
ATOM     16  O   LIG    1        0.660  -0.784   1.677  0.00  0.00    -0.387 OA
ATOM     17  H   LIG    1        1.419  -1.268   2.064  0.00  0.00    +0.210 HD
ENDBRANCH  15  16
BRANCH  15  18
ATOM     18  C   LIG    1        2.233  -0.774  -0.093  0.00  0.00    +0.116 C 
BRANCH  18  19
ATOM     19  N   LIG    1        3.098   0.168   0.585  0.00  0.00    -0.309 NA
ATOM     20  H   LIG    1        3.026   0.124   1.623  0.00  0.00    +0.123 HD
BRANCH  19  21
ATOM     21  C   LIG    1        4.468  -0.056   0.169  0.00  0.00    +0.011 C 
ATOM     22  C   LIG    1        5.406   0.907   0.868  0.00  0.00    +0.027 C 
ATOM     23  C   LIG    1        4.947  -1.452   0.504  0.00  0.00    +0.027 C 
ATOM     24  C   LIG    1        4.640   0.169  -1.318  0.00  0.00    +0.027 C 
ENDBRANCH  19  21
ENDBRANCH  18  19
ENDBRANCH  15  18
ENDBRANCH  14  15
ENDBRANCH   1  14
TORSDOF 7
