REMARK  Name = molecules/TXEIIPDJKFWEEC-UHFFFAOYSA-N.pdb
REMARK                            x       y       z     vdW  Elec       q    Type
REMARK                         _______ _______ _______ _____ _____    ______ ____
ROOT
ATOM      1  C   LIG    1        2.394   0.900  -0.671  0.00  0.00    +0.063 A 
ATOM      2  C   LIG    1        3.547   0.286  -0.284  0.00  0.00    +0.062 A 
ATOM      3  C   LIG    1        3.521  -0.884   0.430  0.00  0.00    +0.017 A 
ATOM      4  C   LIG    1        2.309  -1.451   0.766  0.00  0.00    +0.032 A 
ATOM      5  C   LIG    1        1.119  -0.868   0.398  0.00  0.00    +0.110 A 
ATOM      6  N   LIG    1       -0.185  -1.161   0.564  0.00  0.00    -0.209 NA
ATOM      7  C   LIG    1       -0.911  -0.206  -0.026  0.00  0.00    +0.228 A 
ATOM      8  O   LIG    1       -0.053   0.657  -0.546  0.00  0.00    -0.435 OA
ATOM      9  C   LIG    1        1.174   0.309  -0.321  0.00  0.00    +0.156 A 
ENDROOT
BRANCH   7  10
ATOM     10  C   LIG    1       -2.358  -0.071  -0.123  0.00  0.00    +0.040 A 
ATOM     11  C   LIG    1       -3.149  -1.032   0.458  0.00  0.00    +0.033 A 
ATOM     12  C   LIG    1       -4.541  -0.958   0.399  0.00  0.00    +0.043 A 
ATOM     13 CL   LIG    1       -5.500  -2.219   1.161  0.00  0.00    -0.083 Cl
ATOM     14  C   LIG    1       -5.159   0.089  -0.247  0.00  0.00    +0.040 A 
ATOM     15  C   LIG    1       -4.366   1.051  -0.828  0.00  0.00    +0.043 A 
ATOM     16 CL   LIG    1       -5.159   2.377  -1.646  0.00  0.00    -0.083 Cl
ATOM     17  C   LIG    1       -2.968   0.977  -0.769  0.00  0.00    +0.033 A 
ENDBRANCH   7  10
BRANCH   2  18
ATOM     18  C   LIG    1        4.836   0.904  -0.650  0.00  0.00    +0.337 C 
ATOM     19  O   LIG    1        4.883   1.964  -1.297  0.00  0.00    -0.245 OA
BRANCH  18  20
ATOM     20  O   LIG    1        6.025   0.298  -0.268  0.00  0.00    -0.477 OA
ATOM     21  H   LIG    1        6.780   0.915   0.021  0.00  0.00    +0.295 HD
ENDBRANCH  18  20
ENDBRANCH   2  18
TORSDOF 3
