REMARK  Name = molecules/TXOKWXJQVFUUDD-UHFFFAOYSA-N.pdb
REMARK                            x       y       z     vdW  Elec       q    Type
REMARK                         _______ _______ _______ _____ _____    ______ ____
ROOT
ATOM      1  C   LIG    1       -0.210   0.636   0.803  0.00  0.00    +0.121 A 
ATOM      2  C   LIG    1        0.794   1.323   1.482  0.00  0.00    +0.046 A 
ATOM      3  C   LIG    1        2.136   1.104   1.192  0.00  0.00    +0.014 A 
ATOM      4  C   LIG    1        2.501   0.210   0.233  0.00  0.00    +0.007 A 
ATOM      5  C   LIG    1        1.525  -0.474  -0.445  0.00  0.00    +0.014 A 
ATOM      6  C   LIG    1        0.169  -0.267  -0.166  0.00  0.00    +0.046 A 
ENDROOT
BRANCH   4   7
ATOM      7  C   LIG    1        3.927   0.001  -0.048  0.00  0.00    +0.109 A 
ATOM      8  N   LIG    1        4.988   0.551   0.468  0.00  0.00    -0.239 NA
ATOM      9  C   LIG    1        6.178   0.223   0.072  0.00  0.00    +0.080 A 
ATOM     10  C   LIG    1        7.392   0.746   0.550  0.00  0.00    +0.049 A 
ATOM     11  C   LIG    1        8.580   0.325   0.056  0.00  0.00    +0.043 A 
ATOM     12 CL   LIG    1       10.091   1.027   0.694  0.00  0.00    -0.083 Cl
ATOM     13  C   LIG    1        8.696  -0.629  -0.933  0.00  0.00    +0.021 A 
ATOM     14  C   LIG    1        7.513  -1.152  -1.412  0.00  0.00    +0.018 A 
ATOM     15  C   LIG    1        6.281  -0.727  -0.912  0.00  0.00    +0.040 A 
ATOM     16  S   LIG    1        4.632  -1.083  -1.200  0.00  0.00    -0.067 S 
ENDBRANCH   4   7
BRANCH   1  17
ATOM     17  O   LIG    1       -1.542   0.835   1.073  0.00  0.00    -0.491 OA
BRANCH  17  18
ATOM     18  C   LIG    1       -2.516   0.113   0.356  0.00  0.00    +0.244 C 
BRANCH  18  19
ATOM     19  C   LIG    1       -3.858   0.583   0.930  0.00  0.00    +0.125 C 
BRANCH  19  20
ATOM     20  N   LIG    1       -4.988  -0.031   0.340  0.00  0.00    -0.300 NA
BRANCH  20  21
ATOM     21  C   LIG    1       -5.088  -1.423   0.646  0.00  0.00    +0.081 C 
ATOM     22  C   LIG    1       -6.307  -2.060   0.005  0.00  0.00    +0.020 C 
ENDBRANCH  20  21
BRANCH  20  23
ATOM     23  C   LIG    1       -5.210   0.345  -1.008  0.00  0.00    +0.081 C 
ATOM     24  C   LIG    1       -5.630   1.819  -1.036  0.00  0.00    +0.020 C 
ENDBRANCH  20  23
ENDBRANCH  19  20
ENDBRANCH  18  19
ENDBRANCH  17  18
ENDBRANCH   1  17
TORSDOF 7
