REMARK  Name = molecules/TYMABNNERDVXID-FNYMZSKFSA-N.pdb
REMARK                            x       y       z     vdW  Elec       q    Type
REMARK                         _______ _______ _______ _____ _____    ______ ____
ROOT
ATOM      1  C   LIG    1       -3.592  -0.770   0.306  0.00  0.00    +0.125 C 
ATOM      2  C   LIG    1       -2.615   0.255  -0.177  0.00  0.00    +0.101 C 
ATOM      3  C   LIG    1       -1.153  -0.077   0.019  0.00  0.00    +0.068 C 
ATOM      4  C   LIG    1       -0.616   0.002  -1.355  0.00  0.00    +0.016 C 
ATOM      5  C   LIG    1       -1.614  -0.142  -2.223  0.00  0.00    +0.131 C 
ATOM      6  N   LIG    1       -2.839  -0.320  -1.508  0.00  0.00    -0.260 N 
ATOM      7  C   LIG    1       -4.157  -0.634  -1.066  0.00  0.00    +0.228 C 
ATOM      8  O   LIG    1       -5.256  -0.729  -1.660  0.00  0.00    -0.275 OA
ENDROOT
BRANCH   1   9
ATOM      9  C   LIG    1       -4.486  -0.245   1.409  0.00  0.00    +0.125 C 
ATOM     10  C   LIG    1       -5.297   0.933   0.981  0.00  0.00    +0.038 C 
BRANCH   9  11
ATOM     11  O   LIG    1       -5.350  -1.295   1.764  0.00  0.00    -0.391 OA
ATOM     12  H   LIG    1       -5.039  -1.772   2.562  0.00  0.00    +0.210 HD
ENDBRANCH   9  11
ENDBRANCH   1   9
BRANCH   5  13
ATOM     13  C   LIG    1       -1.514  -0.126  -3.671  0.00  0.00    +0.352 C 
ATOM     14  O   LIG    1       -0.404   0.035  -4.231  0.00  0.00    -0.244 OA
BRANCH  13  15
ATOM     15  O   LIG    1       -2.631  -0.287  -4.464  0.00  0.00    -0.476 OA
ATOM     16  H   LIG    1       -2.819  -1.216  -4.869  0.00  0.00    +0.295 HD
ENDBRANCH  13  15
ENDBRANCH   5  13
BRANCH   4  17
ATOM     17  S   LIG    1        1.075   0.247  -1.874  0.00  0.00    -0.120 S 
BRANCH  17  18
ATOM     18  C   LIG    1        2.091   0.393  -0.394  0.00  0.00    +0.094 C 
ATOM     19  C   LIG    1        2.195  -0.912   0.368  0.00  0.00    +0.062 C 
ATOM     20  C   LIG    1        3.372  -0.587   1.298  0.00  0.00    +0.227 C 
ATOM     21  N   LIG    1        4.202   0.292   0.498  0.00  0.00    -0.224 N 
ATOM     22  C   LIG    1        3.564   0.607  -0.764  0.00  0.00    +0.240 C 
BRANCH  21  23
ATOM     23  C   LIG    1        5.465   0.770   0.907  0.00  0.00    +0.277 C 
ATOM     24  C   LIG    1        5.695   1.047   2.337  0.00  0.00    +0.144 C 
ATOM     25  N   LIG    1        6.399   0.963   0.054  0.00  0.00    -0.104 NA
ATOM     26  H   LIG    1        6.279   0.782  -0.959  0.00  0.00    +0.363 HD
ENDBRANCH  21  23
ENDBRANCH  17  18
ENDBRANCH   4  17
TORSDOF 7
