REMARK  Name = molecules/TYMRLRRVMHJFTF-UHFFFAOYSA-N.pdb
REMARK                            x       y       z     vdW  Elec       q    Type
REMARK                         _______ _______ _______ _____ _____    ______ ____
ROOT
ATOM      1  C   LIG    1       -1.456  -0.066  -0.276  0.00  0.00    -0.034 A 
ATOM      2  C   LIG    1       -0.717   0.810   0.492  0.00  0.00    +0.007 A 
ATOM      3  C   LIG    1        0.651   0.683   0.624  0.00  0.00    +0.029 A 
ATOM      4  C   LIG    1        1.290  -0.350  -0.032  0.00  0.00    +0.105 A 
ATOM      5  C   LIG    1        0.567  -1.234  -0.803  0.00  0.00    +0.029 A 
ATOM      6  C   LIG    1       -0.802  -1.091  -0.923  0.00  0.00    +0.007 A 
ENDROOT
BRANCH   4   7
ATOM      7  S   LIG    1        3.022  -0.587   0.080  0.00  0.00    +0.056 S 
ATOM      8  O   LIG    1        3.537  -0.107   1.415  0.00  0.00    -0.153 OA
ATOM      9  O   LIG    1        3.292  -2.056  -0.072  0.00  0.00    -0.153 OA
BRANCH   7  10
ATOM     10  N   LIG    1        3.840   0.269  -1.167  0.00  0.00    -0.204 NA
ATOM     11  H   LIG    1        4.462   1.007  -0.818  0.00  0.00    +0.144 HD
ATOM     12  H   LIG    1        3.153   0.582  -1.889  0.00  0.00    +0.144 HD
ENDBRANCH   7  10
ENDBRANCH   4   7
BRANCH   1  13
ATOM     13  C   LIG    1       -2.940   0.093  -0.404  0.00  0.00    +0.113 C 
BRANCH  13  14
ATOM     14  N   LIG    1       -3.425   1.212   0.344  0.00  0.00    -0.326 NA
ATOM     15  H   LIG    1       -3.155   1.141   1.359  0.00  0.00    +0.119 HD
ATOM     16  H   LIG    1       -4.466   1.176   0.333  0.00  0.00    +0.119 HD
ENDBRANCH  13  14
ENDBRANCH   1  13
TORSDOF 4
