REMARK  Name = molecules/TYQXKHPOXXXCTP-CSLYCKPJSA-N.pdb
REMARK                            x       y       z     vdW  Elec       q    Type
REMARK                         _______ _______ _______ _____ _____    ______ ____
ROOT
ATOM      1  C   LIG    1        0.616  -1.477  -0.517  0.00  0.00    +0.158 C 
ATOM      2  C   LIG    1        0.247  -2.809  -0.133  0.00  0.00    +0.090 C 
ATOM      3  C   LIG    1        0.576  -3.034   1.359  0.00  0.00    +0.044 C 
ATOM      4  C   LIG    1       -0.963  -3.547  -0.420  0.00  0.00    +0.048 C 
ATOM      5  C   LIG    1       -1.647  -3.412  -1.730  0.00  0.00    +0.055 C 
ATOM      6  C   LIG    1       -3.141  -3.505  -1.605  0.00  0.00    +0.142 C 
ATOM      7  C   LIG    1       -3.871  -3.523  -0.316  0.00  0.00    +0.084 C 
ATOM      8  C   LIG    1       -3.862  -4.963   0.172  0.00  0.00    +0.018 C 
ATOM      9  C   LIG    1       -5.337  -3.139  -0.568  0.00  0.00    +0.159 C 
ATOM     10  C   LIG    1       -5.680  -1.781  -0.016  0.00  0.00    +0.126 C 
ATOM     11  C   LIG    1       -6.149  -1.872   1.428  0.00  0.00    +0.048 C 
ATOM     12  C   LIG    1       -4.539  -0.787  -0.051  0.00  0.00    +0.210 C 
ATOM     13  O   LIG    1       -4.136  -0.417   1.229  0.00  0.00    -0.458 OA
ATOM     14  C   LIG    1       -3.010   0.195   1.691  0.00  0.00    +0.313 C 
ATOM     15  O   LIG    1       -3.009   1.322   2.256  0.00  0.00    -0.250 OA
ATOM     16  C   LIG    1       -1.622  -0.404   1.584  0.00  0.00    +0.124 C 
ATOM     17  C   LIG    1       -1.161  -0.470   3.055  0.00  0.00    +0.022 C 
ATOM     18  C   LIG    1       -0.678   0.395   0.759  0.00  0.00    +0.140 C 
ATOM     19  O   LIG    1       -3.789  -3.569  -2.655  0.00  0.00    -0.297 OA
ATOM     20  C   LIG    1       -1.310  -4.594  -2.672  0.00  0.00    +0.015 C 
ATOM     21  C   LIG    1       -0.054  -0.214  -0.427  0.00  0.00    +0.047 C 
ATOM     22  C   LIG    1       -0.854   0.176  -1.689  0.00  0.00    +0.013 C 
ENDROOT
BRANCH   9  23
ATOM     23  O   LIG    1       -6.172  -4.071   0.057  0.00  0.00    -0.388 OA
ATOM     24  H   LIG    1       -6.681  -4.583  -0.621  0.00  0.00    +0.210 HD
ENDBRANCH   9  23
BRANCH  12  25
ATOM     25  C   LIG    1       -4.988   0.470  -0.792  0.00  0.00    +0.044 C 
ATOM     26  C   LIG    1       -5.415   0.153  -2.192  0.00  0.00    +0.007 C 
ENDBRANCH  12  25
BRANCH  10  27
ATOM     27  O   LIG    1       -6.767  -1.296  -0.734  0.00  0.00    -0.383 OA
ATOM     28  H   LIG    1       -7.646  -1.563  -0.358  0.00  0.00    +0.210 HD
ENDBRANCH  10  27
BRANCH   2  29
ATOM     29  O   LIG    1        1.264  -3.652  -0.763  0.00  0.00    -0.386 OA
ATOM     30  H   LIG    1        1.222  -4.544  -0.374  0.00  0.00    +0.210 HD
ENDBRANCH   2  29
BRANCH   1  31
ATOM     31  O   LIG    1        1.969  -1.359  -0.032  0.00  0.00    -0.341 OA
BRANCH  31  32
ATOM     32  C   LIG    1        2.916  -1.246  -0.958  0.00  0.00    +0.293 C 
ATOM     33  C   LIG    1        4.043  -0.289  -0.804  0.00  0.00    +0.249 C 
ATOM     34  C   LIG    1        4.665  -0.047  -2.143  0.00  0.00    +0.104 C 
ATOM     35  C   LIG    1        4.949  -1.382  -2.836  0.00  0.00    +0.054 C 
ATOM     36  C   LIG    1        3.844  -2.354  -2.685  0.00  0.00    +0.120 C 
ATOM     37  C   LIG    1        4.202  -3.677  -3.332  0.00  0.00    +0.038 C 
ATOM     38  O   LIG    1        3.521  -2.513  -1.342  0.00  0.00    -0.345 OA
BRANCH  34  39
ATOM     39  N   LIG    1        5.922   0.624  -2.074  0.00  0.00    -0.302 NA
ATOM     40  C   LIG    1        5.954   1.945  -1.568  0.00  0.00    +0.105 C 
ATOM     41  C   LIG    1        6.669   0.480  -3.312  0.00  0.00    +0.105 C 
ENDBRANCH  34  39
BRANCH  33  42
ATOM     42  O   LIG    1        3.636   0.905  -0.208  0.00  0.00    -0.455 OA
BRANCH  42  43
ATOM     43  C   LIG    1        4.299   1.324   0.980  0.00  0.00    +0.307 C 
ATOM     44  O   LIG    1        5.228   0.612   1.446  0.00  0.00    -0.251 OA
BRANCH  43  45
ATOM     45  C   LIG    1        3.924   2.559   1.659  0.00  0.00    +0.117 C 
ATOM     46  C   LIG    1        4.920   2.876   2.793  0.00  0.00    +0.015 C 
ENDBRANCH  43  45
ENDBRANCH  42  43
ENDBRANCH  33  42
ENDBRANCH  31  32
ENDBRANCH   1  31
BRANCH  18  47
ATOM     47  O   LIG    1        0.233   1.171   1.487  0.00  0.00    -0.347 OA
BRANCH  47  48
ATOM     48  C   LIG    1       -0.039   2.525   1.507  0.00  0.00    +0.254 C 
ATOM     49  C   LIG    1       -0.118   3.123   2.891  0.00  0.00    +0.098 C 
ATOM     50  C   LIG    1       -0.003   4.622   2.758  0.00  0.00    +0.099 C 
ATOM     51  C   LIG    1       -0.967   5.252   3.751  0.00  0.00    +0.044 C 
ATOM     52  C   LIG    1       -0.518   5.064   1.379  0.00  0.00    +0.175 C 
ATOM     53  C   LIG    1        0.453   4.505   0.366  0.00  0.00    +0.149 C 
ATOM     54  C   LIG    1       -0.282   4.407  -0.953  0.00  0.00    +0.041 C 
ATOM     55  O   LIG    1        0.879   3.274   0.775  0.00  0.00    -0.346 OA
BRANCH  50  56
ATOM     56  O   LIG    1        1.261   5.118   2.873  0.00  0.00    -0.374 OA
ATOM     57  C   LIG    1        1.921   4.921   4.051  0.00  0.00    +0.194 C 
ENDBRANCH  50  56
BRANCH  52  58
ATOM     58  O   LIG    1       -0.599   6.452   1.317  0.00  0.00    -0.386 OA
ATOM     59  H   LIG    1        0.253   6.897   1.556  0.00  0.00    +0.210 HD
ENDBRANCH  52  58
ENDBRANCH  47  48
ENDBRANCH  18  47
TORSDOF 14
