REMARK  Name = molecules/TYYBFXNZMFNZJT-UHFFFAOYSA-N.pdb
REMARK                            x       y       z     vdW  Elec       q    Type
REMARK                         _______ _______ _______ _____ _____    ______ ____
ROOT
ATOM      1  C   LIG    1        1.371  -1.620  -0.770  0.00  0.00    +0.234 C 
ATOM      2  O   LIG    1        1.466  -0.759   0.161  0.00  0.00    -0.274 OA
ATOM      3  N   LIG    1        2.528  -2.277  -1.271  0.00  0.00    -0.282 N 
ATOM      4  H   LIG    1        2.502  -2.977  -2.021  0.00  0.00    +0.155 HD
ENDROOT
BRANCH   3   5
ATOM      5  C   LIG    1        3.799  -1.949  -0.705  0.00  0.00    +0.062 A 
ATOM      6  C   LIG    1        4.298  -2.643   0.375  0.00  0.00    +0.051 A 
ATOM      7  I   LIG    1        3.166  -4.207   1.196  0.00  0.00    -0.041 I 
ATOM      8  C   LIG    1        5.529  -2.284   0.883  0.00  0.00    +0.088 A 
ATOM      9  C   LIG    1        6.252  -1.230   0.300  0.00  0.00    +0.042 A 
ATOM     10  I   LIG    1        8.075  -0.728   1.231  0.00  0.00    -0.042 I 
ATOM     11  C   LIG    1        5.747  -0.549  -0.775  0.00  0.00    +0.065 A 
ATOM     12  C   LIG    1        4.488  -0.922  -1.286  0.00  0.00    +0.049 A 
ATOM     13  I   LIG    1        3.695   0.125  -2.942  0.00  0.00    -0.041 I 
BRANCH  11  14
ATOM     14  C   LIG    1        6.415   0.561  -1.407  0.00  0.00    +0.246 C 
ATOM     15  N   LIG    1        7.783   0.832  -1.473  0.00  0.00    -0.309 N 
ATOM     16  H   LIG    1        8.495   0.184  -1.079  0.00  0.00    +0.149 HD
ATOM     17  O   LIG    1        5.631   1.400  -1.985  0.00  0.00    -0.270 OA
BRANCH  15  18
ATOM     18  C   LIG    1        8.309   2.024  -2.143  0.00  0.00    +0.132 C 
BRANCH  18  19
ATOM     19  C   LIG    1        7.794   3.247  -1.447  0.00  0.00    +0.174 C 
BRANCH  19  20
ATOM     20  O   LIG    1        8.318   4.367  -2.109  0.00  0.00    -0.393 OA
ATOM     21  H   LIG    1        8.398   4.139  -3.060  0.00  0.00    +0.209 HD
ENDBRANCH  19  20
ENDBRANCH  18  19
ENDBRANCH  15  18
ENDBRANCH  11  14
BRANCH   8  22
ATOM     22  C   LIG    1        6.084  -2.987   2.010  0.00  0.00    +0.339 C 
ATOM     23  O   LIG    1        5.491  -3.949   2.584  0.00  0.00    -0.245 OA
BRANCH  22  24
ATOM     24  O   LIG    1        7.316  -2.649   2.541  0.00  0.00    -0.477 OA
ATOM     25  H   LIG    1        7.993  -3.357   2.819  0.00  0.00    +0.295 HD
ENDBRANCH  22  24
ENDBRANCH   8  22
ENDBRANCH   3   5
BRANCH   1  26
ATOM     26  C   LIG    1        0.013  -1.896  -1.294  0.00  0.00    +0.200 C 
BRANCH  26  28
ATOM     27  C   LIG    1       -2.337  -1.147  -0.888  0.00  0.00    +0.247 C 
ATOM     28  N   LIG    1       -0.984  -1.065  -0.581  0.00  0.00    -0.303 N 
ATOM     29  H   LIG    1       -0.649  -0.437   0.180  0.00  0.00    +0.150 HD
ATOM     30  O   LIG    1       -2.675  -1.988  -1.796  0.00  0.00    -0.270 OA
BRANCH  27  31
ATOM     31  C   LIG    1       -3.392  -0.382  -0.274  0.00  0.00    +0.065 A 
ATOM     32  C   LIG    1       -3.271   0.893   0.199  0.00  0.00    +0.040 A 
ATOM     33  C   LIG    1       -4.381   1.558   0.747  0.00  0.00    +0.065 A 
ATOM     34  C   LIG    1       -5.578   0.924   0.799  0.00  0.00    +0.049 A 
ATOM     35  I   LIG    1       -7.298   1.888   1.508  0.00  0.00    -0.041 I 
ATOM     36  C   LIG    1       -5.742  -0.383   0.324  0.00  0.00    +0.064 A 
ATOM     37  I   LIG    1       -1.455   1.969   0.064  0.00  0.00    -0.042 I 
ATOM     38  C   LIG    1       -4.652  -1.010  -0.202  0.00  0.00    +0.049 A 
ATOM     39  I   LIG    1       -4.806  -2.982  -0.941  0.00  0.00    -0.041 I 
BRANCH  33  40
ATOM     40  C   LIG    1       -4.136   2.909   1.172  0.00  0.00    +0.246 C 
ATOM     41  N   LIG    1       -4.780   3.537   2.248  0.00  0.00    -0.314 N 
ATOM     42  H   LIG    1       -5.454   3.013   2.831  0.00  0.00    +0.149 HD
ATOM     43  C   LIG    1       -4.474   4.941   2.606  0.00  0.00    +0.128 C 
ATOM     44  O   LIG    1       -3.264   3.606   0.541  0.00  0.00    -0.270 OA
ENDBRANCH  33  40
BRANCH  36  45
ATOM     45  N   LIG    1       -7.016  -0.995   0.407  0.00  0.00    -0.273 N 
ATOM     46  C   LIG    1       -7.684  -1.271   1.653  0.00  0.00    +0.138 C 
ATOM     47  C   LIG    1       -7.669  -1.358  -0.803  0.00  0.00    +0.216 C 
ATOM     48  C   LIG    1       -9.013  -2.015  -0.803  0.00  0.00    +0.109 C 
ATOM     49  O   LIG    1       -7.166  -1.155  -1.946  0.00  0.00    -0.276 OA
ENDBRANCH  36  45
ENDBRANCH  27  31
ENDBRANCH  26  28
ENDBRANCH   1  26
TORSDOF 12
