REMARK  Name = molecules/TYZROVQLWOKYKF-ZDUSSCGKSA-N.pdb
REMARK                            x       y       z     vdW  Elec       q    Type
REMARK                         _______ _______ _______ _____ _____    ______ ____
ROOT
ATOM      1  C   LIG    1       -0.136  -1.263   0.354  0.00  0.00    +0.042 A 
ATOM      2  C   LIG    1       -0.461   0.097   0.450  0.00  0.00    +0.063 A 
ATOM      3  C   LIG    1       -1.760   0.528   0.364  0.00  0.00    +0.146 A 
ATOM      4  F   LIG    1       -2.089   1.852   0.456  0.00  0.00    -0.203 F 
ATOM      5  C   LIG    1       -2.830  -0.357   0.176  0.00  0.00    +0.066 A 
ATOM      6  C   LIG    1       -2.481  -1.682   0.085  0.00  0.00    +0.028 A 
ATOM      7  C   LIG    1       -1.175  -2.139   0.169  0.00  0.00    +0.025 A 
ENDROOT
BRANCH   1  13
ATOM      8  O   LIG    1        1.088  -3.988   0.849  0.00  0.00    -0.226 OA
ATOM      9  C   LIG    1        1.770  -2.905   0.789  0.00  0.00    +0.408 C 
ATOM     10  O   LIG    1        3.129  -2.787   1.054  0.00  0.00    -0.444 OA
ATOM     11  C   LIG    1        3.435  -1.423   1.062  0.00  0.00    +0.213 C 
ATOM     12  C   LIG    1        2.380  -0.820   0.161  0.00  0.00    +0.163 C 
ATOM     13  N   LIG    1        1.230  -1.646   0.439  0.00  0.00    -0.234 N 
BRANCH  11  14
ATOM     14  C   LIG    1        4.827  -1.150   0.510  0.00  0.00    +0.150 C 
BRANCH  14  15
ATOM     15  N   LIG    1        5.114   0.268   0.518  0.00  0.00    -0.312 N 
ATOM     16  H   LIG    1        4.415   0.972   0.887  0.00  0.00    +0.149 HD
ATOM     17  C   LIG    1        6.338   0.806   0.040  0.00  0.00    +0.210 C 
ATOM     18  C   LIG    1        6.631   2.259   0.048  0.00  0.00    +0.109 C 
ATOM     19  O   LIG    1        7.186  -0.007  -0.402  0.00  0.00    -0.276 OA
ENDBRANCH  14  15
ENDBRANCH  11  14
ENDBRANCH   1  13
BRANCH   5  20
ATOM     20  N   LIG    1       -4.133   0.157   0.090  0.00  0.00    -0.323 N 
ATOM     21  C   LIG    1       -4.812   0.945   1.072  0.00  0.00    +0.133 C 
ATOM     22  C   LIG    1       -5.505   2.137   0.442  0.00  0.00    +0.178 C 
ATOM     23  O   LIG    1       -6.019   1.909  -0.802  0.00  0.00    -0.377 OA
ATOM     24  C   LIG    1       -5.158   1.300  -1.676  0.00  0.00    +0.178 C 
ATOM     25  C   LIG    1       -4.899  -0.117  -1.124  0.00  0.00    +0.133 C 
ENDBRANCH   5  20
TORSDOF 4
