REMARK  Name = molecules/TZADDXVKYWMEHX-YFKPBYRVSA-N.pdb
REMARK                            x       y       z     vdW  Elec       q    Type
REMARK                         _______ _______ _______ _____ _____    ______ ____
ROOT
ATOM      1  N   LIG    1        0.405  -0.728  -0.054  0.00  0.00    -0.349 N 
ATOM      2  C   LIG    1        0.210  -1.602   0.951  0.00  0.00    +0.104 A 
ATOM      3  C   LIG    1        1.090  -1.703   2.009  0.00  0.00    +0.077 A 
ATOM      4  I   LIG    1        0.742  -3.074   3.540  0.00  0.00    -0.038 I 
ATOM      5  C   LIG    1        2.221  -0.887   2.060  0.00  0.00    +0.208 A 
ATOM      6  O   LIG    1        3.038  -0.970   3.026  0.00  0.00    -0.286 OA
ATOM      7  C   LIG    1        2.403  -0.002   1.025  0.00  0.00    +0.077 A 
ATOM      8  I   LIG    1        4.112   1.235   1.098  0.00  0.00    -0.038 I 
ATOM      9  C   LIG    1        1.494   0.066  -0.016  0.00  0.00    +0.104 A 
ENDROOT
BRANCH   1  10
ATOM     10  C   LIG    1       -0.473  -0.584  -1.169  0.00  0.00    +0.155 C 
BRANCH  10  11
ATOM     11  C   LIG    1       -1.567   0.424  -0.969  0.00  0.00    +0.159 C 
BRANCH  11  12
ATOM     12  O   LIG    1       -2.280   0.534  -2.165  0.00  0.00    -0.388 OA
ATOM     13  H   LIG    1       -2.639  -0.329  -2.448  0.00  0.00    +0.210 HD
ENDBRANCH  11  12
BRANCH  11  14
ATOM     14  C   LIG    1       -0.989   1.810  -0.702  0.00  0.00    +0.188 C 
BRANCH  14  15
ATOM     15  O   LIG    1       -2.053   2.704  -0.596  0.00  0.00    -0.392 OA
ATOM     16  H   LIG    1       -2.906   2.270  -0.823  0.00  0.00    +0.210 HD
ENDBRANCH  14  15
ENDBRANCH  11  14
ENDBRANCH  10  11
ENDBRANCH   1  10
TORSDOF 5
