REMARK  Name = molecules/TZDUHAJSIBHXDL-LBPRGKRZSA-N.pdb
REMARK                            x       y       z     vdW  Elec       q    Type
REMARK                         _______ _______ _______ _____ _____    ______ ____
ROOT
ATOM      1  N   LIG    1       -0.608  -0.521   0.143  0.00  0.00    -0.280 N 
ATOM      2  C   LIG    1        0.619  -0.620   0.806  0.00  0.00    +0.403 C 
ATOM      3  O   LIG    1        0.763  -0.017   1.914  0.00  0.00    -0.226 OA
ATOM      4  H   LIG    1       -0.713  -1.023  -0.768  0.00  0.00    +0.152 HD
ENDROOT
BRANCH   1   5
ATOM      5  C   LIG    1       -1.684   0.241   0.693  0.00  0.00    +0.115 C 
BRANCH   5   6
ATOM      6  C   LIG    1       -2.925   0.219  -0.180  0.00  0.00    -0.004 C 
ATOM      7  C   LIG    1       -4.013   0.953   0.550  0.00  0.00    +0.009 C 
ATOM      8  C   LIG    1       -5.331   0.905  -0.196  0.00  0.00    +0.001 C 
ATOM      9  C   LIG    1       -5.749  -0.546  -0.288  0.00  0.00    +0.000 C 
ATOM     10  C   LIG    1       -4.691  -1.424  -0.886  0.00  0.00    +0.001 C 
ATOM     11  C   LIG    1       -3.327  -1.242  -0.279  0.00  0.00    +0.009 C 
BRANCH   6  12
ATOM     12  C   LIG    1       -2.639   0.774  -1.535  0.00  0.00    +0.129 C 
BRANCH  12  13
ATOM     13  C   LIG    1       -2.240   2.186  -1.568  0.00  0.00    +0.305 C 
ATOM     14  O   LIG    1       -1.965   2.743  -2.663  0.00  0.00    -0.251 OA
BRANCH  13  15
ATOM     15  O   LIG    1       -2.142   2.980  -0.438  0.00  0.00    -0.481 OA
ATOM     16  H   LIG    1       -2.506   3.925  -0.486  0.00  0.00    +0.295 HD
ENDBRANCH  13  15
ENDBRANCH  12  13
ENDBRANCH   6  12
ENDBRANCH   5   6
ENDBRANCH   1   5
BRANCH   2  17
ATOM     17  O   LIG    1        1.709  -1.340   0.336  0.00  0.00    -0.411 OA
BRANCH  17  18
ATOM     18  C   LIG    1        2.912  -1.386   1.073  0.00  0.00    +0.368 C 
ATOM     19  C   LIG    1        3.223  -2.790   1.538  0.00  0.00    +0.100 C 
BRANCH  18  20
ATOM     20  O   LIG    1        3.989  -0.797   0.376  0.00  0.00    -0.425 OA
BRANCH  20  21
ATOM     21  C   LIG    1        4.670   0.334   0.849  0.00  0.00    +0.313 C 
ATOM     22  O   LIG    1        4.245   0.781   1.944  0.00  0.00    -0.250 OA
BRANCH  21  23
ATOM     23  C   LIG    1        5.789   0.919   0.094  0.00  0.00    +0.092 C 
ATOM     24  C   LIG    1        6.920  -0.080  -0.042  0.00  0.00    +0.019 C 
ATOM     25  C   LIG    1        5.411   1.380  -1.284  0.00  0.00    +0.019 C 
ENDBRANCH  21  23
ENDBRANCH  20  21
ENDBRANCH  18  20
ENDBRANCH  17  18
ENDBRANCH   2  17
TORSDOF 10
