REMARK  Name = molecules/TZFUBYYADABEAV-UHFFFAOYSA-N.pdb
REMARK                            x       y       z     vdW  Elec       q    Type
REMARK                         _______ _______ _______ _____ _____    ______ ____
ROOT
ATOM      1  C   LIG    1       -2.150   0.864   1.140  0.00  0.00    +0.265 C 
ATOM      2  O   LIG    1       -2.215   2.026   1.647  0.00  0.00    -0.268 OA
ATOM      3  N   LIG    1       -1.069  -0.002   1.378  0.00  0.00    -0.294 N 
ATOM      4  C   LIG    1        0.046   0.399   2.233  0.00  0.00    +0.123 C 
ATOM      5  C   LIG    1        1.375   0.176   1.544  0.00  0.00    +0.103 C 
ATOM      6  N   LIG    1        1.379  -1.066   0.799  0.00  0.00    -0.295 NA
ATOM      7  C   LIG    1        0.311  -1.938   1.165  0.00  0.00    +0.103 C 
ATOM      8  C   LIG    1       -1.026  -1.309   0.790  0.00  0.00    +0.123 C 
ENDROOT
BRANCH   1   9
ATOM      9  C   LIG    1       -3.247   0.427   0.280  0.00  0.00    +0.126 A 
ATOM     10  C   LIG    1       -4.319   1.298   0.052  0.00  0.00    +0.033 A 
ATOM     11  C   LIG    1       -5.390   0.966  -0.740  0.00  0.00    +0.004 A 
ATOM     12  C   LIG    1       -5.379  -0.286  -1.324  0.00  0.00    +0.020 A 
ATOM     13  C   LIG    1       -4.316  -1.111  -1.082  0.00  0.00    +0.111 A 
ATOM     14  N   LIG    1       -3.284  -0.765  -0.305  0.00  0.00    -0.250 NA
ENDBRANCH   1   9
BRANCH   6  15
ATOM     15  C   LIG    1        1.444  -0.818  -0.614  0.00  0.00    +0.119 C 
BRANCH  15  16
ATOM     16  C   LIG    1        2.739  -0.098  -0.888  0.00  0.00    -0.033 A 
ATOM     17  C   LIG    1        3.823  -0.176  -0.050  0.00  0.00    +0.005 A 
ATOM     18  C   LIG    1        5.012   0.481  -0.307  0.00  0.00    +0.000 A 
ATOM     19  C   LIG    1        5.105   1.240  -1.449  0.00  0.00    +0.000 A 
ATOM     20  C   LIG    1        4.011   1.327  -2.310  0.00  0.00    +0.000 A 
ATOM     21  C   LIG    1        2.824   0.667  -2.045  0.00  0.00    +0.005 A 
ENDBRANCH  15  16
ENDBRANCH   6  15
TORSDOF 3
