REMARK  Name = molecules/TZGBBMBARSFJBG-UKTHLTGXSA-N.pdb
REMARK                            x       y       z     vdW  Elec       q    Type
REMARK                         _______ _______ _______ _____ _____    ______ ____
ROOT
ATOM      1  O   LIG    1       -0.990   1.729  -1.968  0.00  0.00    -0.285 OA
ATOM      2  C   LIG    1       -0.736   0.977  -1.006  0.00  0.00    +0.210 C 
ATOM      3  C   LIG    1       -1.804   0.152  -0.432  0.00  0.00    +0.027 A 
ATOM      4  C   LIG    1       -1.488  -0.668   0.630  0.00  0.00    -0.029 A 
ATOM      5  C   LIG    1       -2.488  -1.461   1.191  0.00  0.00    +0.005 A 
ATOM      6  C   LIG    1       -3.786  -1.458   0.725  0.00  0.00    +0.000 A 
ATOM      7  C   LIG    1       -4.087  -0.633  -0.338  0.00  0.00    +0.001 A 
ATOM      8  C   LIG    1       -0.119  -0.695   1.149  0.00  0.00    +0.056 C 
ATOM      9  C   LIG    1        0.861   0.040   0.648  0.00  0.00    +0.012 C 
ATOM     10  C   LIG    1       -3.096   0.157  -0.899  0.00  0.00    +0.012 A 
ATOM     11  C   LIG    1        0.629   0.940  -0.477  0.00  0.00    +0.114 C 
ENDROOT
BRANCH  11  12
ATOM     12  N   LIG    1        1.592   1.646  -0.951  0.00  0.00    -0.145 NA
BRANCH  12  13
ATOM     13  N   LIG    1        2.902   1.591  -0.421  0.00  0.00    -0.200 N 
ATOM     14  H   LIG    1        3.281   2.411   0.096  0.00  0.00    +0.176 HD
ATOM     15  C   LIG    1        3.646   0.398  -0.625  0.00  0.00    +0.315 C 
ATOM     16  N   LIG    1        4.951   0.318  -0.109  0.00  0.00    -0.312 N 
ATOM     17  H   LIG    1        5.208   0.865   0.726  0.00  0.00    +0.147 HD
ATOM     18  H   LIG    1        5.649  -0.286  -0.564  0.00  0.00    +0.147 HD
ATOM     19  O   LIG    1        3.180  -0.583  -1.249  0.00  0.00    -0.251 OA
ENDBRANCH  12  13
ENDBRANCH  11  12
TORSDOF 2
