REMARK  Name = molecules/TZIRZGBAFTZREM-MKAGXXMWSA-N.pdb
REMARK                            x       y       z     vdW  Elec       q    Type
REMARK                         _______ _______ _______ _____ _____    ______ ____
ROOT
ATOM      1  N   LIG    1       13.529  -2.170   0.000  0.00  0.00    -0.093 NA
ATOM      2  C   LIG    1       12.978  -3.406   0.000  0.00  0.00    +0.290 C 
ATOM      3  O   LIG    1       13.659  -4.742   0.000  0.00  0.00    -0.198 OA
ENDROOT
TORSDOF 0
REMARK  Name = molecules/TZIRZGBAFTZREM-MKAGXXMWSA-N.pdb
REMARK                            x       y       z     vdW  Elec       q    Type
REMARK                         _______ _______ _______ _____ _____    ______ ____
ROOT
ATOM      1  N   LIG    1       11.428   0.743   0.000  0.00  0.00    +0.079 NA
ATOM      2  O   LIG    1       12.084   1.871   0.000  0.00  0.00    -0.079 OA
ENDROOT
TORSDOF 0
REMARK  Name = molecules/TZIRZGBAFTZREM-MKAGXXMWSA-N.pdb
REMARK                            x       y       z     vdW  Elec       q    Type
REMARK                         _______ _______ _______ _____ _____    ______ ____
ROOT
ATOM      1  C   LIG    1       10.611   5.121   0.000  0.00  0.00    +0.104 C 
ATOM      2  C   LIG    1        9.930   6.457   0.000  0.00  0.00    +0.108 C 
ENDROOT
BRANCH   1   3
ATOM      3  N   LIG    1       10.846   3.639   0.000  0.00  0.00    -0.273 NA
ATOM      4  H   LIG    1        9.924   3.211   0.000  0.00  0.00    +0.169 HD
ENDBRANCH   1   3
BRANCH   2   5
ATOM      5  N   LIG    1        8.870   7.518   0.000  0.00  0.00    -0.243 NA
ATOM      6  C   LIG    1        7.533   8.199   0.000  0.00  0.00    +0.135 C 
ENDBRANCH   2   5
TORSDOF 2
REMARK  Name = molecules/TZIRZGBAFTZREM-MKAGXXMWSA-N.pdb
REMARK                            x       y       z     vdW  Elec       q    Type
REMARK                         _______ _______ _______ _____ _____    ______ ____
ROOT
ATOM      1  N   LIG    1        4.570   8.199   0.000  0.00  0.00    -0.136 NA
ATOM      2  C   LIG    1        3.234   7.518   0.000  0.00  0.00    +0.136 C 
ENDROOT
TORSDOF 0
REMARK  Name = molecules/TZIRZGBAFTZREM-MKAGXXMWSA-N.pdb
REMARK                            x       y       z     vdW  Elec       q    Type
REMARK                         _______ _______ _______ _____ _____    ______ ____
ROOT
ATOM      1  N   LIG    1        1.492   5.121   0.000  0.00  0.00    -0.136 NA
ATOM      2  C   LIG    1        2.173   6.457   0.000  0.00  0.00    +0.136 C 
ENDROOT
TORSDOF 0
REMARK  Name = molecules/TZIRZGBAFTZREM-MKAGXXMWSA-N.pdb
REMARK                            x       y       z     vdW  Elec       q    Type
REMARK                         _______ _______ _______ _____ _____    ______ ____
ROOT
ATOM      1  N   LIG    1        2.173   0.821   0.000  0.00  0.00    +0.000 NA
ENDROOT
TORSDOF 0
REMARK  Name = molecules/TZIRZGBAFTZREM-MKAGXXMWSA-N.pdb
REMARK                            x       y       z     vdW  Elec       q    Type
REMARK                         _______ _______ _______ _____ _____    ______ ____
ROOT
ATOM      1  N   LIG    1        4.413  -2.554   0.000  0.00  0.00    -0.344 NA
ATOM      2  H   LIG    1        3.917  -3.150   0.000  0.00  0.00    +0.115 HD
ATOM      3  H   LIG    1        4.945  -3.001   0.000  0.00  0.00    +0.115 HD
ATOM      4  H   LIG    1        3.820  -2.220   0.000  0.00  0.00    +0.115 HD
ENDROOT
TORSDOF 0
REMARK  Name = molecules/TZIRZGBAFTZREM-MKAGXXMWSA-N.pdb
REMARK                            x       y       z     vdW  Elec       q    Type
REMARK                         _______ _______ _______ _____ _____    ______ ____
ROOT
ATOM      1  N   LIG    1        5.886   0.721   0.000  0.00  0.00    -0.133 NA
ATOM      2  C   LIG    1        6.165  -0.594   0.000  0.00  0.00    +0.067 C 
ATOM      3  C   LIG    1        7.305  -0.855   0.000  0.00  0.00    +0.015 C 
ENDROOT
BRANCH   2   4
ATOM      4  C   LIG    1        5.069  -0.537   0.000  0.00  0.00    +0.045 C 
ATOM      5  C   LIG    1        4.829  -1.275   0.000  0.00  0.00    +0.007 C 
ENDBRANCH   2   4
TORSDOF 1
REMARK  Name = molecules/TZIRZGBAFTZREM-MKAGXXMWSA-N.pdb
REMARK                            x       y       z     vdW  Elec       q    Type
REMARK                         _______ _______ _______ _____ _____    ______ ____
ROOT
ATOM      1  N   LIG    1        8.563  -1.672   0.000  0.00  0.00    -0.251 NA
ATOM      2  H   LIG    1        7.949  -2.145   0.000  0.00  0.00    +0.141 HD
ENDROOT
BRANCH   1   3
ATOM      3  C   LIG    1        9.083  -2.249   0.000  0.00  0.00    +0.092 C 
ATOM      4  C   LIG    1        8.485  -3.170   0.000  0.00  0.00    +0.019 C 
ENDBRANCH   1   3
TORSDOF 1
REMARK  Name = molecules/TZIRZGBAFTZREM-MKAGXXMWSA-N.pdb
REMARK                            x       y       z     vdW  Elec       q    Type
REMARK                         _______ _______ _______ _____ _____    ______ ____
ROOT
ATOM      1  N   LIG    1        6.170  -4.350   0.000  0.00  0.00    -0.273 NA
ATOM      2  H   LIG    1        7.269  -4.453   0.000  0.00  0.00    +0.137 HD
ATOM      3  H   LIG    1        6.020  -5.306   0.000  0.00  0.00    +0.137 HD
ENDROOT
TORSDOF 0
REMARK  Name = molecules/TZIRZGBAFTZREM-MKAGXXMWSA-N.pdb
REMARK                            x       y       z     vdW  Elec       q    Type
REMARK                         _______ _______ _______ _____ _____    ______ ____
ROOT
ATOM      1  N   LIG    1        6.087  -2.092   0.000  0.00  0.00    +0.000 NA
ENDROOT
TORSDOF 0
REMARK  Name = molecules/TZIRZGBAFTZREM-MKAGXXMWSA-N.pdb
REMARK                            x       y       z     vdW  Elec       q    Type
REMARK                         _______ _______ _______ _____ _____    ______ ____
ROOT
ATOM      1  N   LIG    1        3.986   0.821   0.000  0.00  0.00    +0.000 NA
ENDROOT
TORSDOF 0
REMARK  Name = molecules/TZIRZGBAFTZREM-MKAGXXMWSA-N.pdb
REMARK                            x       y       z     vdW  Elec       q    Type
REMARK                         _______ _______ _______ _____ _____    ______ ____
ROOT
ATOM      1  N   LIG    1        1.073  -1.280   0.000  0.00  0.00    -0.344 NA
ATOM      2  H   LIG    1        0.973  -2.676   0.000  0.00  0.00    +0.115 HD
ATOM      3  H   LIG    1        0.959  -0.060   0.000  0.00  0.00    +0.115 HD
ATOM      4  H   LIG    1        1.909  -0.944   0.000  0.00  0.00    +0.115 HD
ENDROOT
TORSDOF 0
REMARK  Name = molecules/TZIRZGBAFTZREM-MKAGXXMWSA-N.pdb
REMARK                            x       y       z     vdW  Elec       q    Type
REMARK                         _______ _______ _______ _____ _____    ______ ____
ROOT
ATOM      1  N   LIG    1        3.174  -4.193   0.000  0.00  0.00    -0.344 NA
ATOM      2  H   LIG    1        2.033  -3.951   0.000  0.00  0.00    +0.115 HD
ATOM      3  H   LIG    1        2.733  -4.950   0.000  0.00  0.00    +0.115 HD
ATOM      4  H   LIG    1        3.411  -4.846   0.000  0.00  0.00    +0.115 HD
ENDROOT
TORSDOF 0
REMARK  Name = molecules/TZIRZGBAFTZREM-MKAGXXMWSA-N.pdb
REMARK                            x       y       z     vdW  Elec       q    Type
REMARK                         _______ _______ _______ _____ _____    ______ ____
ROOT
ATOM      1  N   LIG    1        5.851  -6.586   0.000  0.00  0.00    -0.163 NA
ATOM      2  H   LIG    1        5.800  -8.040   0.000  0.00  0.00    +0.163 HD
ENDROOT
TORSDOF 0
REMARK  Name = molecules/TZIRZGBAFTZREM-MKAGXXMWSA-N.pdb
REMARK                            x       y       z     vdW  Elec       q    Type
REMARK                         _______ _______ _______ _____ _____    ______ ____
ROOT
ATOM      1  N   LIG    1        3.458  -9.264   0.000  0.00  0.00    +0.000 NA
ENDROOT
TORSDOF 0
REMARK  Name = molecules/TZIRZGBAFTZREM-MKAGXXMWSA-N.pdb
REMARK                            x       y       z     vdW  Elec       q    Type
REMARK                         _______ _______ _______ _____ _____    ______ ____
ROOT
ATOM      1  C   LIG    1        0.815  -6.206   0.000  0.00  0.00    +0.174 C 
ENDROOT
BRANCH   1   2
ATOM      2  N   LIG    1        0.780  -6.870   0.000  0.00  0.00    -0.228 NA
ATOM      3  H   LIG    1        0.942  -7.630   0.000  0.00  0.00    +0.143 HD
ENDBRANCH   1   2
BRANCH   1   4
ATOM      4  N   LIG    1        0.859  -5.372   0.000  0.00  0.00    -0.205 NA
ATOM      5  C   LIG    1       -0.238  -5.158   0.000  0.00  0.00    +0.116 C 
ENDBRANCH   1   4
TORSDOF 2
REMARK  Name = molecules/TZIRZGBAFTZREM-MKAGXXMWSA-N.pdb
REMARK                            x       y       z     vdW  Elec       q    Type
REMARK                         _______ _______ _______ _____ _____    ______ ____
ROOT
ATOM      1  N   LIG    1       -1.320  -3.957   0.000  0.00  0.00    -0.214 NA
ATOM      2  H   LIG    1       -1.739  -4.839   0.000  0.00  0.00    +0.150 HD
ATOM      3  H   LIG    1       -0.339  -3.893   0.000  0.00  0.00    +0.150 HD
ENDROOT
BRANCH   1   4
ATOM      4  O   LIG    1       -0.866  -4.604   0.000  0.00  0.00    -0.286 OA
ATOM      5  C   LIG    1       -0.639  -5.294   0.000  0.00  0.00    +0.200 C 
ENDBRANCH   1   4
TORSDOF 1
REMARK  Name = molecules/TZIRZGBAFTZREM-MKAGXXMWSA-N.pdb
REMARK                            x       y       z     vdW  Elec       q    Type
REMARK                         _______ _______ _______ _____ _____    ______ ____
ROOT
ATOM      1  N   LIG    1       -4.233  -6.058   0.000  0.00  0.00    -0.163 NA
ATOM      2  H   LIG    1       -4.566  -6.598   0.000  0.00  0.00    +0.163 HD
ENDROOT
TORSDOF 0
REMARK  Name = molecules/TZIRZGBAFTZREM-MKAGXXMWSA-N.pdb
REMARK                            x       y       z     vdW  Elec       q    Type
REMARK                         _______ _______ _______ _____ _____    ______ ____
ROOT
ATOM      1  N   LIG    1       -2.133  -8.971   0.000  0.00  0.00    -0.156 NA
ATOM      2  C   LIG    1       -3.229  -8.756   0.000  0.00  0.00    +0.156 C 
ENDROOT
TORSDOF 0
REMARK  Name = molecules/TZIRZGBAFTZREM-MKAGXXMWSA-N.pdb
REMARK                            x       y       z     vdW  Elec       q    Type
REMARK                         _______ _______ _______ _____ _____    ______ ____
ROOT
ATOM      1  C   LIG    1        1.881 -10.683   0.000  0.00  0.00    +0.122 C 
ENDROOT
BRANCH   1   3
ATOM      2  N   LIG    1        0.545 -11.364   0.000  0.00  0.00    -0.123 NA
ATOM      3  C   LIG    1        1.685 -11.468   0.000  0.00  0.00    +0.116 C 
ATOM      4  C   LIG    1        1.803 -12.181   0.000  0.00  0.00    -0.095 C 
ATOM      5  C   LIG    1        1.964 -12.940   0.000  0.00  0.00    +0.061 C 
ENDBRANCH   1   3
BRANCH   1   6
ATOM      6  N   LIG    1        1.606  -9.970   0.000  0.00  0.00    -0.292 NA
ATOM      7  H   LIG    1        0.800  -9.488   0.000  0.00  0.00    +0.124 HD
BRANCH   6   8
ATOM      8  C   LIG    1        1.960  -9.185   0.000  0.00  0.00    +0.064 C 
ATOM      9  C   LIG    1        3.006  -9.432   0.000  0.00  0.00    +0.023 C 
ENDBRANCH   6   8
ENDBRANCH   1   6
TORSDOF 3
REMARK  Name = molecules/TZIRZGBAFTZREM-MKAGXXMWSA-N.pdb
REMARK                            x       y       z     vdW  Elec       q    Type
REMARK                         _______ _______ _______ _____ _____    ______ ____
ROOT
ATOM      1  C   LIG    1       -3.346 -13.963   0.000  0.00  0.00    +0.264 C 
ENDROOT
BRANCH   1   3
ATOM      2  N   LIG    1       -1.849 -14.041   0.000  0.00  0.00    -0.253 NA
ATOM      3  C   LIG    1       -2.389 -13.709   0.000  0.00  0.00    +0.122 C 
BRANCH   2   4
ATOM      4  C   LIG    1       -0.891 -13.787   0.000  0.00  0.00    +0.120 C 
ATOM      5  C   LIG    1       -1.032 -12.783   0.000  0.00  0.00    +0.011 C 
ENDBRANCH   2   4
ENDBRANCH   1   3
BRANCH   1   6
ATOM      6  N   LIG    1       -3.206 -14.967   0.000  0.00  0.00    -0.212 NA
ATOM      7  H   LIG    1       -2.512 -15.179   0.000  0.00  0.00    +0.144 HD
ENDBRANCH   1   6
BRANCH   1   8
ATOM      8  O   LIG    1       -3.164 -13.053   0.000  0.00  0.00    -0.199 OA
BRANCH   8   9
ATOM      9  O   LIG    1       -3.070 -12.372   0.000  0.00  0.00    -0.223 OA
ATOM     10  C   LIG    1       -3.386 -11.752   0.000  0.00  0.00    +0.225 C 
ENDBRANCH   8   9
ENDBRANCH   1   8
TORSDOF 5
REMARK  Name = molecules/TZIRZGBAFTZREM-MKAGXXMWSA-N.pdb
REMARK                            x       y       z     vdW  Elec       q    Type
REMARK                         _______ _______ _______ _____ _____    ______ ____
ROOT
ATOM      1  N   LIG    1       -4.526 -11.648   0.000  0.00  0.00    -0.159 NA
ATOM      2  H   LIG    1       -5.279 -11.178   0.000  0.00  0.00    +0.163 HD
ENDROOT
BRANCH   1   3
ATOM      3  N   LIG    1       -4.723 -12.433   0.000  0.00  0.00    -0.134 NA
ATOM      4  C   LIG    1       -4.626 -13.390   0.000  0.00  0.00    +0.129 C 
ENDBRANCH   1   3
TORSDOF 1
REMARK  Name = molecules/TZIRZGBAFTZREM-MKAGXXMWSA-N.pdb
REMARK                            x       y       z     vdW  Elec       q    Type
REMARK                         _______ _______ _______ _____ _____    ______ ____
ROOT
ATOM      1  N   LIG    1       -5.627  -7.835   0.000  0.00  0.00    -0.131 NA
ATOM      2  C   LIG    1       -6.382  -8.756   0.000  0.00  0.00    +0.109 C 
ATOM      3  C   LIG    1       -7.027  -8.373   0.000  0.00  0.00    +0.022 C 
ENDROOT
TORSDOF 0
REMARK  Name = molecules/TZIRZGBAFTZREM-MKAGXXMWSA-N.pdb
REMARK                            x       y       z     vdW  Elec       q    Type
REMARK                         _______ _______ _______ _____ _____    ______ ____
ROOT
ATOM      1  N   LIG    1       -3.391  -5.158   0.000  0.00  0.00    -0.163 NA
ATOM      2  H   LIG    1       -2.999  -5.771   0.000  0.00  0.00    +0.163 HD
ENDROOT
TORSDOF 0
REMARK  Name = molecules/TZIRZGBAFTZREM-MKAGXXMWSA-N.pdb
REMARK                            x       y       z     vdW  Elec       q    Type
REMARK                         _______ _______ _______ _____ _____    ______ ____
ROOT
ATOM      1  N   LIG    1       -3.308  -7.415   0.000  0.00  0.00    +0.000 NA
ENDROOT
TORSDOF 0
REMARK  Name = molecules/TZIRZGBAFTZREM-MKAGXXMWSA-N.pdb
REMARK                            x       y       z     vdW  Elec       q    Type
REMARK                         _______ _______ _______ _____ _____    ______ ____
ROOT
ATOM      1  N   LIG    1       -1.071  -7.734   0.000  0.00  0.00    -0.273 NA
ATOM      2  H   LIG    1       -0.487  -8.013   0.000  0.00  0.00    +0.137 HD
ATOM      3  H   LIG    1       -0.712  -7.027   0.000  0.00  0.00    +0.137 HD
ENDROOT
TORSDOF 0
REMARK  Name = molecules/TZIRZGBAFTZREM-MKAGXXMWSA-N.pdb
REMARK                            x       y       z     vdW  Elec       q    Type
REMARK                         _______ _______ _______ _____ _____    ______ ____
ROOT
ATOM      1  O   LIG    1       -1.144  -9.310   0.000  0.00  0.00    -0.270 OA
ENDROOT
BRANCH   1   2
ATOM      2  N   LIG    1       -0.494 -10.053   0.000  0.00  0.00    -0.111 NA
ATOM      3  H   LIG    1        0.447 -10.244   0.000  0.00  0.00    +0.176 HD
ENDBRANCH   1   2
BRANCH   1   4
ATOM      4  C   LIG    1       -1.888  -8.992   0.000  0.00  0.00    +0.163 C 
ATOM      5  C   LIG    1       -1.992  -9.974   0.000  0.00  0.00    +0.042 C 
ENDBRANCH   1   4
TORSDOF 2
REMARK  Name = molecules/TZIRZGBAFTZREM-MKAGXXMWSA-N.pdb
REMARK                            x       y       z     vdW  Elec       q    Type
REMARK                         _______ _______ _______ _____ _____    ______ ____
ROOT
ATOM      1  N   LIG    1       -0.813 -12.289   0.000  0.00  0.00    +0.119 NA
ATOM      2  O   LIG    1        0.056 -12.884   0.000  0.00  0.00    -0.119 OA
ENDROOT
TORSDOF 0
REMARK  Name = molecules/TZIRZGBAFTZREM-MKAGXXMWSA-N.pdb
REMARK                            x       y       z     vdW  Elec       q    Type
REMARK                         _______ _______ _______ _____ _____    ______ ____
ROOT
ATOM      1  N   LIG    1       -5.884 -12.573   0.000  0.00  0.00    -0.163 NA
ATOM      2  H   LIG    1       -6.899 -11.688   0.000  0.00  0.00    +0.163 HD
ENDROOT
TORSDOF 0
REMARK  Name = molecules/TZIRZGBAFTZREM-MKAGXXMWSA-N.pdb
REMARK                            x       y       z     vdW  Elec       q    Type
REMARK                         _______ _______ _______ _____ _____    ______ ____
ROOT
ATOM      1  N   LIG    1       -6.985  -8.761   0.000  0.00  0.00    -0.166 NA
ATOM      2  C   LIG    1       -7.880  -8.678   0.000  0.00  0.00    +0.166 C 
ENDROOT
TORSDOF 0
REMARK  Name = molecules/TZIRZGBAFTZREM-MKAGXXMWSA-N.pdb
REMARK                            x       y       z     vdW  Elec       q    Type
REMARK                         _______ _______ _______ _____ _____    ______ ____
ROOT
ATOM      1  N   LIG    1       -4.727  -8.678   0.000  0.00  0.00    +0.000 NA
ENDROOT
TORSDOF 0
REMARK  Name = molecules/TZIRZGBAFTZREM-MKAGXXMWSA-N.pdb
REMARK                            x       y       z     vdW  Elec       q    Type
REMARK                         _______ _______ _______ _____ _____    ______ ____
ROOT
ATOM      1  N   LIG    1       -1.814  -6.577   0.000  0.00  0.00    +0.080 NA
ATOM      2  O   LIG    1       -1.127  -6.712   0.000  0.00  0.00    -0.067 OA
ATOM      3  O   LIG    1       -0.504  -7.046   0.000  0.00  0.00    -0.012 OA
ENDROOT
TORSDOF 0
REMARK  Name = molecules/TZIRZGBAFTZREM-MKAGXXMWSA-N.pdb
REMARK                            x       y       z     vdW  Elec       q    Type
REMARK                         _______ _______ _______ _____ _____    ______ ____
ROOT
ATOM      1  C   LIG    1       -2.818  -3.879   0.000  0.00  0.00    +0.200 C 
ATOM      2  C   LIG    1       -1.814  -3.738   0.000  0.00  0.00    +0.035 C 
ENDROOT
BRANCH   2   3
ATOM      3  C   LIG    1       -2.001  -2.621   0.000  0.00  0.00    +0.017 C 
ATOM      4  C   LIG    1       -2.740  -2.381   0.000  0.00  0.00    +0.009 C 
ENDBRANCH   2   3
BRANCH   1   5
ATOM      5  O   LIG    1       -3.313  -3.348   0.000  0.00  0.00    -0.351 OA
BRANCH   5   6
ATOM      6  N   LIG    1       -3.915  -3.664   0.000  0.00  0.00    -0.074 NA
ATOM      7  C   LIG    1       -4.810  -3.581   0.000  0.00  0.00    +0.165 C 
ENDBRANCH   5   6
ENDBRANCH   1   5
TORSDOF 3
REMARK  Name = molecules/TZIRZGBAFTZREM-MKAGXXMWSA-N.pdb
REMARK                            x       y       z     vdW  Elec       q    Type
REMARK                         _______ _______ _______ _____ _____    ______ ____
ROOT
ATOM      1  N   LIG    1       -6.828  -5.765   0.000  0.00  0.00    -0.273 NA
ATOM      2  H   LIG    1       -6.617  -4.549   0.000  0.00  0.00    +0.137 HD
ATOM      3  H   LIG    1       -7.540  -5.903   0.000  0.00  0.00    +0.137 HD
ENDROOT
TORSDOF 0
REMARK  Name = molecules/TZIRZGBAFTZREM-MKAGXXMWSA-N.pdb
REMARK                            x       y       z     vdW  Elec       q    Type
REMARK                         _______ _______ _______ _____ _____    ______ ____
ROOT
ATOM      1  C   LIG    1       12.109  -0.594   0.000  0.00  0.00    -0.000 C 
ENDROOT
TORSDOF 0
REMARK  Name = molecules/TZIRZGBAFTZREM-MKAGXXMWSA-N.pdb
REMARK                            x       y       z     vdW  Elec       q    Type
REMARK                         _______ _______ _______ _____ _____    ______ ____
ROOT
ATOM      1  C   LIG    1       18.101  -0.908   0.000  0.00  0.00    +0.018 C 
ENDROOT
BRANCH   1   2
ATOM      2  C   LIG    1       19.599  -0.986   0.000  0.00  0.00    +0.124 C 
ATOM      3  N   LIG    1       21.097  -1.065   0.000  0.00  0.00    -0.143 NA
ENDBRANCH   1   2
BRANCH   1   4
ATOM      4  C   LIG    1       16.603  -0.829   0.000  0.00  0.00    +0.001 C 
ATOM      5  C   LIG    1       15.105  -0.751   0.000  0.00  0.00    +0.000 C 
ENDBRANCH   1   4
TORSDOF 2
REMARK  Name = molecules/TZIRZGBAFTZREM-MKAGXXMWSA-N.pdb
REMARK                            x       y       z     vdW  Elec       q    Type
REMARK                         _______ _______ _______ _____ _____    ______ ____
ROOT
ATOM      1  C   LIG    1       13.607  -0.672   0.000  0.00  0.00    +0.103 C 
ATOM      2  N   LIG    1       13.795  -2.148   0.000  0.00  0.00    -0.244 NA
ATOM      3  H   LIG    1       14.678  -3.135   0.000  0.00  0.00    +0.141 HD
ENDROOT
TORSDOF 0
REMARK  Name = molecules/TZIRZGBAFTZREM-MKAGXXMWSA-N.pdb
REMARK                            x       y       z     vdW  Elec       q    Type
REMARK                         _______ _______ _______ _____ _____    ______ ____
ROOT
ATOM      1  O   HOH    1       11.452  -1.942   0.000  0.00  0.00    -0.253 OA
ATOM      2  H   HOH    0       10.764  -2.326   0.000  0.00  0.00    +0.253 HD
ENDROOT
TORSDOF 0
REMARK  Name = molecules/TZIRZGBAFTZREM-MKAGXXMWSA-N.pdb
REMARK                            x       y       z     vdW  Elec       q    Type
REMARK                         _______ _______ _______ _____ _____    ______ ____
ROOT
ATOM      1  C   LIG    1       10.611   2.158   0.000  0.00  0.00    +0.000 C 
ENDROOT
TORSDOF 0
REMARK  Name = molecules/TZIRZGBAFTZREM-MKAGXXMWSA-N.pdb
REMARK                            x       y       z     vdW  Elec       q    Type
REMARK                         _______ _______ _______ _____ _____    ______ ____
ROOT
ATOM      1  S   LIG    1        7.533  -0.920   0.000  0.00  0.00    +0.228 S 
ATOM      2  O   LIG    1        7.549  -1.701   0.000  0.00  0.00    -0.228 OA
ENDROOT
TORSDOF 0
REMARK  Name = molecules/TZIRZGBAFTZREM-MKAGXXMWSA-N.pdb
REMARK                            x       y       z     vdW  Elec       q    Type
REMARK                         _______ _______ _______ _____ _____    ______ ____
ROOT
ATOM      1  C   LIG    1        8.870  -0.239   0.000  0.00  0.00    +0.000 C 
ENDROOT
TORSDOF 0
REMARK  Name = molecules/TZIRZGBAFTZREM-MKAGXXMWSA-N.pdb
REMARK                            x       y       z     vdW  Elec       q    Type
REMARK                         _______ _______ _______ _____ _____    ______ ____
ROOT
ATOM      1  C   LIG    1        9.930   0.821   0.000  0.00  0.00    +0.000 C 
ENDROOT
TORSDOF 0
REMARK  Name = molecules/TZIRZGBAFTZREM-MKAGXXMWSA-N.pdb
REMARK                            x       y       z     vdW  Elec       q    Type
REMARK                         _______ _______ _______ _____ _____    ______ ____
ROOT
ATOM      1  C   LIG    1       12.499   7.452   0.000  0.00  0.00    +0.441 C 
ATOM      2  O   LIG    1       11.962   8.853   0.000  0.00  0.00    -0.223 OA
ATOM      3  N   LIG    1       13.981   7.218   0.000  0.00  0.00    -0.048 NA
ENDROOT
BRANCH   1   5
ATOM      4  C   LIG    1       11.555   6.287   0.000  0.00  0.00    +0.257 C 
ATOM      5  O   LIG    1       11.027   7.480   0.000  0.00  0.00    -0.428 OA
ENDBRANCH   1   5
TORSDOF 1
REMARK  Name = molecules/TZIRZGBAFTZREM-MKAGXXMWSA-N.pdb
REMARK                            x       y       z     vdW  Elec       q    Type
REMARK                         _______ _______ _______ _____ _____    ______ ____
ROOT
ATOM      1  C   LIG    1        6.052   8.434   0.000  0.00  0.00    +0.000 C 
ENDROOT
TORSDOF 0
REMARK  Name = molecules/TZIRZGBAFTZREM-MKAGXXMWSA-N.pdb
REMARK                            x       y       z     vdW  Elec       q    Type
REMARK                         _______ _______ _______ _____ _____    ______ ____
ROOT
ATOM      1  O   HOH    1        8.594  10.036   0.000  0.00  0.00    -0.253 OA
ATOM      2  H   HOH    0        8.893   8.833   0.000  0.00  0.00    +0.253 HD
ENDROOT
TORSDOF 0
REMARK  Name = molecules/TZIRZGBAFTZREM-MKAGXXMWSA-N.pdb
REMARK                            x       y       z     vdW  Elec       q    Type
REMARK                         _______ _______ _______ _____ _____    ______ ____
ROOT
ATOM      1  C   LIG    1        6.757  11.097   0.000  0.00  0.00    +0.000 C 
ENDROOT
TORSDOF 0
REMARK  Name = molecules/TZIRZGBAFTZREM-MKAGXXMWSA-N.pdb
REMARK                            x       y       z     vdW  Elec       q    Type
REMARK                         _______ _______ _______ _____ _____    ______ ____
ROOT
ATOM      1  C   LIG    1        7.145   9.648   0.000  0.00  0.00    +0.169 C 
ATOM      2  O   LIG    1        5.869   9.922   0.000  0.00  0.00    -0.379 OA
ATOM      3  H   LIG    1        5.308  10.709   0.000  0.00  0.00    +0.211 HD
ENDROOT
TORSDOF 0
REMARK  Name = molecules/TZIRZGBAFTZREM-MKAGXXMWSA-N.pdb
REMARK                            x       y       z     vdW  Elec       q    Type
REMARK                         _______ _______ _______ _____ _____    ______ ____
ROOT
ATOM      1  C   LIG    1        1.833   8.056   0.000  0.00  0.00    +0.232 C 
ATOM      2  O   LIG    1        0.861   7.184   0.000  0.00  0.00    -0.232 OA
ENDROOT
TORSDOF 0
REMARK  Name = molecules/TZIRZGBAFTZREM-MKAGXXMWSA-N.pdb
REMARK                            x       y       z     vdW  Elec       q    Type
REMARK                         _______ _______ _______ _____ _____    ______ ____
ROOT
ATOM      1  C   LIG    1        1.492   2.158   0.000  0.00  0.00    +0.000 C 
ATOM      2  C   LIG    1        2.567   2.397   0.000  0.00  0.00    +0.000 C 
ENDROOT
TORSDOF 0
REMARK  Name = molecules/TZIRZGBAFTZREM-MKAGXXMWSA-N.pdb
REMARK                            x       y       z     vdW  Elec       q    Type
REMARK                         _______ _______ _______ _____ _____    ______ ____
ROOT
ATOM      1  O   HOH    1       -0.818   4.080   0.000  0.00  0.00    -0.253 OA
ATOM      2  H   HOH    0        0.234   4.736   0.000  0.00  0.00    +0.253 HD
ENDROOT
TORSDOF 0
REMARK  Name = molecules/TZIRZGBAFTZREM-MKAGXXMWSA-N.pdb
REMARK                            x       y       z     vdW  Elec       q    Type
REMARK                         _______ _______ _______ _____ _____    ______ ____
ROOT
ATOM      1  C   LIG    1        1.257   3.639   0.000  0.00  0.00    +0.000 C 
ENDROOT
TORSDOF 0
REMARK  Name = molecules/TZIRZGBAFTZREM-MKAGXXMWSA-N.pdb
REMARK                            x       y       z     vdW  Elec       q    Type
REMARK                         _______ _______ _______ _____ _____    ______ ____
ROOT
ATOM      1  C   LIG    1       -1.259   2.005   0.000  0.00  0.00    +0.000 C 
ENDROOT
TORSDOF 0
REMARK  Name = molecules/TZIRZGBAFTZREM-MKAGXXMWSA-N.pdb
REMARK                            x       y       z     vdW  Elec       q    Type
REMARK                         _______ _______ _______ _____ _____    ______ ____
ROOT
ATOM      1  C   LIG    1       -0.001   2.822   0.000  0.00  0.00    +0.000 C 
ENDROOT
TORSDOF 0
REMARK  Name = molecules/TZIRZGBAFTZREM-MKAGXXMWSA-N.pdb
REMARK                            x       y       z     vdW  Elec       q    Type
REMARK                         _______ _______ _______ _____ _____    ______ ____
ROOT
ATOM      1  O   HOH    1        0.133   1.524   0.000  0.00  0.00    -0.410 OA
ATOM      2  H   HOH    0        0.992   0.794   0.000  0.00  0.00    +0.205 HD
ATOM      3  H   HOH    0       -0.442   0.747   0.000  0.00  0.00    +0.205 HD
ENDROOT
TORSDOF 0
REMARK  Name = molecules/TZIRZGBAFTZREM-MKAGXXMWSA-N.pdb
REMARK                            x       y       z     vdW  Elec       q    Type
REMARK                         _______ _______ _______ _____ _____    ______ ____
ROOT
ATOM      1  C   LIG    1        3.155  -1.737   0.000  0.00  0.00    +0.000 C 
ENDROOT
TORSDOF 0
REMARK  Name = molecules/TZIRZGBAFTZREM-MKAGXXMWSA-N.pdb
REMARK                            x       y       z     vdW  Elec       q    Type
REMARK                         _______ _______ _______ _____ _____    ______ ____
ROOT
ATOM      1  S   LIG    1        6.052  -1.155   0.000  0.00  0.00    +0.009 S 
ATOM      2  C   LIG    1        5.750  -1.873   0.000  0.00  0.00    -0.009 C 
ENDROOT
TORSDOF 0
REMARK  Name = molecules/TZIRZGBAFTZREM-MKAGXXMWSA-N.pdb
REMARK                            x       y       z     vdW  Elec       q    Type
REMARK                         _______ _______ _______ _____ _____    ______ ____
ROOT
ATOM      1  C   LIG    1        4.570  -0.920   0.000  0.00  0.00    +0.256 C 
ATOM      2  O   LIG    1        3.828  -1.087   0.000  0.00  0.00    -0.437 OA
ENDROOT
BRANCH   2   3
ATOM      3  C   LIG    1        3.571  -0.458   0.000  0.00  0.00    +0.418 C 
ATOM      4  O   LIG    1        3.783   0.236   0.000  0.00  0.00    -0.238 OA
ENDBRANCH   2   3
TORSDOF 1
REMARK  Name = molecules/TZIRZGBAFTZREM-MKAGXXMWSA-N.pdb
REMARK                            x       y       z     vdW  Elec       q    Type
REMARK                         _______ _______ _______ _____ _____    ______ ____
ROOT
ATOM      1  C   LIG    1        3.234  -0.239   0.000  0.00  0.00    +0.000 C 
ATOM      2  C   LIG    1        2.410  -0.599   0.000  0.00  0.00    +0.000 C 
ENDROOT
TORSDOF 0
REMARK  Name = molecules/TZIRZGBAFTZREM-MKAGXXMWSA-N.pdb
REMARK                            x       y       z     vdW  Elec       q    Type
REMARK                         _______ _______ _______ _____ _____    ______ ____
ROOT
ATOM      1  O   LIG    1        1.912  -2.576   0.000  0.00  0.00    -0.363 OA
ATOM      2  C   LIG    1        2.493  -2.856   0.000  0.00  0.00    +0.181 C 
ATOM      3  C   LIG    1        0.995  -2.778   0.000  0.00  0.00    +0.181 C 
ENDROOT
TORSDOF 0
REMARK  Name = molecules/TZIRZGBAFTZREM-MKAGXXMWSA-N.pdb
REMARK                            x       y       z     vdW  Elec       q    Type
REMARK                         _______ _______ _______ _____ _____    ______ ____
ROOT
ATOM      1  C   LIG    1        6.431  -3.210   0.000  0.00  0.00    +0.000 C 
ENDROOT
TORSDOF 0
REMARK  Name = molecules/TZIRZGBAFTZREM-MKAGXXMWSA-N.pdb
REMARK                            x       y       z     vdW  Elec       q    Type
REMARK                         _______ _______ _______ _____ _____    ______ ____
ROOT
ATOM      1  O   LIG    1        8.960   2.062   0.000  0.00  0.00    -0.229 OA
ATOM      2  C   LIG    1        7.462   2.141   0.000  0.00  0.00    +0.185 C 
ATOM      3  C   LIG    1        7.540   3.639   0.000  0.00  0.00    +0.044 C 
ENDROOT
TORSDOF 0
REMARK  Name = molecules/TZIRZGBAFTZREM-MKAGXXMWSA-N.pdb
REMARK                            x       y       z     vdW  Elec       q    Type
REMARK                         _______ _______ _______ _____ _____    ______ ____
ROOT
ATOM      1  C   LIG    1        7.383   0.643   0.000  0.00  0.00    +0.012 C 
ATOM      2  C   LIG    1        7.663  -0.673   0.000  0.00  0.00    -0.009 C 
ATOM      3  C   LIG    1        6.244   0.904   0.000  0.00  0.00    -0.004 C 
ENDROOT
TORSDOF 0
REMARK  Name = molecules/TZIRZGBAFTZREM-MKAGXXMWSA-N.pdb
REMARK                            x       y       z     vdW  Elec       q    Type
REMARK                         _______ _______ _______ _____ _____    ______ ____
ROOT
ATOM      1  O   HOH    1        6.301  -1.970   0.000  0.00  0.00    +0.000 OA
ENDROOT
TORSDOF 0
REMARK  Name = molecules/TZIRZGBAFTZREM-MKAGXXMWSA-N.pdb
REMARK                            x       y       z     vdW  Elec       q    Type
REMARK                         _______ _______ _______ _____ _____    ______ ____
ROOT
ATOM      1  C   LIG    1        6.987  -3.092   0.000  0.00  0.00    -0.000 C 
ENDROOT
TORSDOF 0
REMARK  Name = molecules/TZIRZGBAFTZREM-MKAGXXMWSA-N.pdb
REMARK                            x       y       z     vdW  Elec       q    Type
REMARK                         _______ _______ _______ _____ _____    ______ ____
ROOT
ATOM      1  C   LIG    1        9.982  -3.249   0.000  0.00  0.00    -0.000 C 
ENDROOT
TORSDOF 0
REMARK  Name = molecules/TZIRZGBAFTZREM-MKAGXXMWSA-N.pdb
REMARK                            x       y       z     vdW  Elec       q    Type
REMARK                         _______ _______ _______ _____ _____    ______ ____
ROOT
ATOM      1  C   LIG    1       11.480  -3.327   0.000  0.00  0.00    +0.000 C 
ENDROOT
TORSDOF 0
REMARK  Name = molecules/TZIRZGBAFTZREM-MKAGXXMWSA-N.pdb
REMARK                            x       y       z     vdW  Elec       q    Type
REMARK                         _______ _______ _______ _____ _____    ______ ____
ROOT
ATOM      1  C   LIG    1        4.750  -2.773   0.000  0.00  0.00    +0.000 C 
ENDROOT
TORSDOF 0
REMARK  Name = molecules/TZIRZGBAFTZREM-MKAGXXMWSA-N.pdb
REMARK                            x       y       z     vdW  Elec       q    Type
REMARK                         _______ _______ _______ _____ _____    ______ ____
ROOT
ATOM      1  C   LIG    1        4.593  -5.769   0.000  0.00  0.00    +0.000 C 
ENDROOT
TORSDOF 0
REMARK  Name = molecules/TZIRZGBAFTZREM-MKAGXXMWSA-N.pdb
REMARK                            x       y       z     vdW  Elec       q    Type
REMARK                         _______ _______ _______ _____ _____    ______ ____
ROOT
ATOM      1  C   LIG    1        4.515  -7.267   0.000  0.00  0.00    +0.208 C 
ATOM      2  O   LIG    1        3.436  -6.762   0.000  0.00  0.00    -0.215 OA
ENDROOT
BRANCH   1   3
ATOM      3  C   LIG    1        4.275  -8.006   0.000  0.00  0.00    +0.000 C 
ATOM      4  C   LIG    1        4.436  -8.765   0.000  0.00  0.00    +0.007 C 
ENDBRANCH   1   3
TORSDOF 1
REMARK  Name = molecules/TZIRZGBAFTZREM-MKAGXXMWSA-N.pdb
REMARK                            x       y       z     vdW  Elec       q    Type
REMARK                         _______ _______ _______ _____ _____    ______ ____
ROOT
ATOM      1  N   LIG    1        4.358 -10.263   0.000  0.00  0.00    -0.163 NA
ATOM      2  H   LIG    1        4.303  -9.580   0.000  0.00  0.00    +0.163 HD
ENDROOT
TORSDOF 0
REMARK  Name = molecules/TZIRZGBAFTZREM-MKAGXXMWSA-N.pdb
REMARK                            x       y       z     vdW  Elec       q    Type
REMARK                         _______ _______ _______ _____ _____    ______ ____
ROOT
ATOM      1  C   LIG    1        5.616 -11.080   0.000  0.00  0.00    +0.000 C 
ENDROOT
TORSDOF 0
REMARK  Name = molecules/TZIRZGBAFTZREM-MKAGXXMWSA-N.pdb
REMARK                            x       y       z     vdW  Elec       q    Type
REMARK                         _______ _______ _______ _____ _____    ______ ____
ROOT
ATOM      1  N   LIG    1        6.952 -10.399   0.000  0.00  0.00    -0.273 NA
ATOM      2  H   LIG    1        6.059  -9.556   0.000  0.00  0.00    +0.137 HD
ATOM      3  H   LIG    1        7.734  -9.589   0.000  0.00  0.00    +0.137 HD
ENDROOT
TORSDOF 0
REMARK  Name = molecules/TZIRZGBAFTZREM-MKAGXXMWSA-N.pdb
REMARK                            x       y       z     vdW  Elec       q    Type
REMARK                         _______ _______ _______ _____ _____    ______ ____
ROOT
ATOM      1  N   LIG    1        5.537 -12.578   0.000  0.00  0.00    -0.163 NA
ATOM      2  H   LIG    1        4.595 -12.194   0.000  0.00  0.00    +0.163 HD
ENDROOT
TORSDOF 0
REMARK  Name = molecules/TZIRZGBAFTZREM-MKAGXXMWSA-N.pdb
REMARK                            x       y       z     vdW  Elec       q    Type
REMARK                         _______ _______ _______ _____ _____    ______ ____
ROOT
ATOM      1  C   LIG    1        4.672  -4.271   0.000  0.00  0.00    +0.000 C 
ENDROOT
TORSDOF 0
REMARK  Name = molecules/TZIRZGBAFTZREM-MKAGXXMWSA-N.pdb
REMARK                            x       y       z     vdW  Elec       q    Type
REMARK                         _______ _______ _______ _____ _____    ______ ____
ROOT
ATOM      1  O   LIG    1        3.402  -2.116   0.000  0.00  0.00    +0.000 OA
ATOM      2  O   LIG    1        2.981  -1.438   0.000  0.00  0.00    +0.000 OA
ENDROOT
TORSDOF 0
REMARK  Name = molecules/TZIRZGBAFTZREM-MKAGXXMWSA-N.pdb
REMARK                            x       y       z     vdW  Elec       q    Type
REMARK                         _______ _______ _______ _____ _____    ______ ____
ROOT
ATOM      1  C   LIG    1        4.667  -0.516   0.000  0.00  0.00    +0.000 C 
ENDROOT
TORSDOF 0
REMARK  Name = molecules/TZIRZGBAFTZREM-MKAGXXMWSA-N.pdb
REMARK                            x       y       z     vdW  Elec       q    Type
REMARK                         _______ _______ _______ _____ _____    ______ ____
ROOT
ATOM      1  C   LIG    1       10.659  -0.830   0.000  0.00  0.00    -0.000 C 
ENDROOT
TORSDOF 0
REMARK  Name = molecules/TZIRZGBAFTZREM-MKAGXXMWSA-N.pdb
REMARK                            x       y       z     vdW  Elec       q    Type
REMARK                         _______ _______ _______ _____ _____    ______ ____
ROOT
ATOM      1  C   LIG    1        9.161  -0.751   0.000  0.00  0.00    +0.000 C 
ENDROOT
TORSDOF 0
REMARK  Name = molecules/TZIRZGBAFTZREM-MKAGXXMWSA-N.pdb
REMARK                            x       y       z     vdW  Elec       q    Type
REMARK                         _______ _______ _______ _____ _____    ______ ____
ROOT
ATOM      1  O   HOH    1        3.355  -1.243   0.000  0.00  0.00    -0.253 OA
ATOM      2  H   HOH    0        2.567  -1.573   0.000  0.00  0.00    +0.253 HD
ENDROOT
TORSDOF 0
REMARK  Name = molecules/TZIRZGBAFTZREM-MKAGXXMWSA-N.pdb
REMARK                            x       y       z     vdW  Elec       q    Type
REMARK                         _______ _______ _______ _____ _____    ______ ____
ROOT
ATOM      1  C   LIG    1        2.488   0.899   0.000  0.00  0.00    +0.005 C 
ATOM      2  C   LIG    1        3.649   1.040   0.000  0.00  0.00    -0.005 C 
ENDROOT
TORSDOF 0
REMARK  Name = molecules/TZIRZGBAFTZREM-MKAGXXMWSA-N.pdb
REMARK                            x       y       z     vdW  Elec       q    Type
REMARK                         _______ _______ _______ _____ _____    ______ ____
ROOT
ATOM      1  C   LIG    1       -0.503  -2.699   0.000  0.00  0.00    -0.000 C 
ENDROOT
TORSDOF 0
REMARK  Name = molecules/TZIRZGBAFTZREM-MKAGXXMWSA-N.pdb
REMARK                            x       y       z     vdW  Elec       q    Type
REMARK                         _______ _______ _______ _____ _____    ______ ____
ROOT
ATOM      1  N   LIG    1       -2.682  -1.284   0.000  0.00  0.00    +0.000 NA
ENDROOT
TORSDOF 0
REMARK  Name = molecules/TZIRZGBAFTZREM-MKAGXXMWSA-N.pdb
REMARK                            x       y       z     vdW  Elec       q    Type
REMARK                         _______ _______ _______ _____ _____    ______ ____
ROOT
ATOM      1  C   LIG    1        4.593  -5.769   0.000  0.00  0.00    +0.054 C 
ATOM      2  C   LIG    1        4.799  -4.364   0.000  0.00  0.00    +0.054 C 
ATOM      3  C   LIG    1        3.855  -5.529   0.000  0.00  0.00    +0.049 C 
ATOM      4  N   LIG    1        4.672  -6.787   0.000  0.00  0.00    -0.158 NA
ENDROOT
TORSDOF 0
REMARK  Name = molecules/TZIRZGBAFTZREM-MKAGXXMWSA-N.pdb
REMARK                            x       y       z     vdW  Elec       q    Type
REMARK                         _______ _______ _______ _____ _____    ______ ____
ROOT
ATOM      1  C   LIG    1        4.750  -2.773   0.000  0.00  0.00    -0.000 C 
ENDROOT
TORSDOF 0
REMARK  Name = molecules/TZIRZGBAFTZREM-MKAGXXMWSA-N.pdb
REMARK                            x       y       z     vdW  Elec       q    Type
REMARK                         _______ _______ _______ _____ _____    ______ ____
ROOT
ATOM      1  C   LIG    1        4.986   1.721   0.000  0.00  0.00    +0.000 C 
ENDROOT
TORSDOF 0
REMARK  Name = molecules/TZIRZGBAFTZREM-MKAGXXMWSA-N.pdb
REMARK                            x       y       z     vdW  Elec       q    Type
REMARK                         _______ _______ _______ _____ _____    ______ ____
ROOT
ATOM      1  C   LIG    1        6.165  -0.594   0.000  0.00  0.00    +0.000 C 
ENDROOT
TORSDOF 0
REMARK  Name = molecules/TZIRZGBAFTZREM-MKAGXXMWSA-N.pdb
REMARK                            x       y       z     vdW  Elec       q    Type
REMARK                         _______ _______ _______ _____ _____    ______ ____
ROOT
ATOM      1  C   LIG    1        4.672  -4.271   0.000  0.00  0.00    +0.000 C 
ENDROOT
TORSDOF 0
REMARK  Name = molecules/TZIRZGBAFTZREM-MKAGXXMWSA-N.pdb
REMARK                            x       y       z     vdW  Elec       q    Type
REMARK                         _______ _______ _______ _____ _____    ______ ____
ROOT
ATOM      1  O   HOH    1        3.257  -6.450   0.000  0.00  0.00    -0.410 OA
ATOM      2  H   HOH    0        2.862  -5.660   0.000  0.00  0.00    +0.205 HD
ATOM      3  H   HOH    0        3.017  -7.189   0.000  0.00  0.00    +0.205 HD
ENDROOT
TORSDOF 0
REMARK  Name = molecules/TZIRZGBAFTZREM-MKAGXXMWSA-N.pdb
REMARK                            x       y       z     vdW  Elec       q    Type
REMARK                         _______ _______ _______ _____ _____    ______ ____
ROOT
ATOM      1  C   LIG    1       10.267  -8.320   0.000  0.00  0.00    +0.008 C 
ATOM      2  C   LIG    1        8.769  -8.241   0.000  0.00  0.00    -0.008 C 
ENDROOT
TORSDOF 0
REMARK  Name = molecules/TZIRZGBAFTZREM-MKAGXXMWSA-N.pdb
REMARK                            x       y       z     vdW  Elec       q    Type
REMARK                         _______ _______ _______ _____ _____    ______ ____
ROOT
ATOM      1  C   LIG    1        7.271  -8.163   0.000  0.00  0.00    -0.000 C 
ENDROOT
TORSDOF 0
REMARK  Name = molecules/TZIRZGBAFTZREM-MKAGXXMWSA-N.pdb
REMARK                            x       y       z     vdW  Elec       q    Type
REMARK                         _______ _______ _______ _____ _____    ______ ____
ROOT
ATOM      1  C   LIG    1        5.773  -8.084   0.000  0.00  0.00    +0.000 C 
ENDROOT
TORSDOF 0
REMARK  Name = molecules/TZIRZGBAFTZREM-MKAGXXMWSA-N.pdb
REMARK                            x       y       z     vdW  Elec       q    Type
REMARK                         _______ _______ _______ _____ _____    ______ ____
ROOT
ATOM      1  C   LIG    1        8.847  -6.743   0.000  0.00  0.00    -0.000 C 
ENDROOT
TORSDOF 0
REMARK  Name = molecules/TZIRZGBAFTZREM-MKAGXXMWSA-N.pdb
REMARK                            x       y       z     vdW  Elec       q    Type
REMARK                         _______ _______ _______ _____ _____    ______ ____
ROOT
ATOM      1  C   LIG    1        2.038  -7.687   0.000  0.00  0.00    -0.000 C 
ENDROOT
TORSDOF 0
REMARK  Name = molecules/TZIRZGBAFTZREM-MKAGXXMWSA-N.pdb
REMARK                            x       y       z     vdW  Elec       q    Type
REMARK                         _______ _______ _______ _____ _____    ______ ____
ROOT
ATOM      1  C   LIG    1        3.379 -10.761   0.000  0.00  0.00    +0.000 C 
ENDROOT
TORSDOF 0
REMARK  Name = molecules/TZIRZGBAFTZREM-MKAGXXMWSA-N.pdb
REMARK                            x       y       z     vdW  Elec       q    Type
REMARK                         _______ _______ _______ _____ _____    ______ ____
ROOT
ATOM      1  O   HOH    1        3.282  -6.848   0.000  0.00  0.00    -0.253 OA
ATOM      2  H   HOH    0        2.043  -7.067   0.000  0.00  0.00    +0.253 HD
ENDROOT
TORSDOF 0
REMARK  Name = molecules/TZIRZGBAFTZREM-MKAGXXMWSA-N.pdb
REMARK                            x       y       z     vdW  Elec       q    Type
REMARK                         _______ _______ _______ _____ _____    ______ ____
ROOT
ATOM      1  C   LIG    1        2.357  -5.451   0.000  0.00  0.00    +0.000 C 
ENDROOT
TORSDOF 0
REMARK  Name = molecules/TZIRZGBAFTZREM-MKAGXXMWSA-N.pdb
REMARK                            x       y       z     vdW  Elec       q    Type
REMARK                         _______ _______ _______ _____ _____    ______ ____
ROOT
ATOM      1  N   LIG    1        6.199  -4.901   0.000  0.00  0.00    -0.163 NA
ATOM      2  H   LIG    1        7.154  -5.482   0.000  0.00  0.00    +0.163 HD
ENDROOT
TORSDOF 0
REMARK  Name = molecules/TZIRZGBAFTZREM-MKAGXXMWSA-N.pdb
REMARK                            x       y       z     vdW  Elec       q    Type
REMARK                         _______ _______ _______ _____ _____    ______ ____
ROOT
ATOM      1  C   LIG    1        6.121  -6.399   0.000  0.00  0.00    +0.000 C 
ENDROOT
TORSDOF 0
REMARK  Name = molecules/TZIRZGBAFTZREM-MKAGXXMWSA-N.pdb
REMARK                            x       y       z     vdW  Elec       q    Type
REMARK                         _______ _______ _______ _____ _____    ______ ____
ROOT
ATOM      1  C   LIG    1        0.859  -5.372   0.000  0.00  0.00    +0.000 C 
ENDROOT
TORSDOF 0
REMARK  Name = molecules/TZIRZGBAFTZREM-MKAGXXMWSA-N.pdb
REMARK                            x       y       z     vdW  Elec       q    Type
REMARK                         _______ _______ _______ _____ _____    ______ ____
ROOT
ATOM      1  O   LIG    1       -1.429  -5.688   0.000  0.00  0.00    -0.402 OA
ENDROOT
BRANCH   1   3
ATOM      2  C   LIG    1       -2.897  -5.377   0.000  0.00  0.00    +0.063 C 
ATOM      3  C   LIG    1       -1.893  -5.236   0.000  0.00  0.00    +0.176 C 
ENDBRANCH   1   3
BRANCH   1   4
ATOM      4  C   LIG    1       -1.609  -6.333   0.000  0.00  0.00    +0.131 C 
ATOM      5  C   LIG    1       -1.835  -6.979   0.000  0.00  0.00    +0.032 C 
ENDBRANCH   1   4
TORSDOF 2
REMARK  Name = molecules/TZIRZGBAFTZREM-MKAGXXMWSA-N.pdb
REMARK                            x       y       z     vdW  Elec       q    Type
REMARK                         _______ _______ _______ _____ _____    ______ ____
ROOT
ATOM      1  O   HOH    1       -2.661  -0.883   0.000  0.00  0.00    -0.253 OA
ATOM      2  H   HOH    0       -2.425  -0.039   0.000  0.00  0.00    +0.253 HD
ENDROOT
TORSDOF 0
REMARK  Name = molecules/TZIRZGBAFTZREM-MKAGXXMWSA-N.pdb
REMARK                            x       y       z     vdW  Elec       q    Type
REMARK                         _______ _______ _______ _____ _____    ______ ____
ROOT
ATOM      1  C   LIG    1       -2.814  -7.634   0.000  0.00  0.00    +0.000 C 
ENDROOT
TORSDOF 0
REMARK  Name = molecules/TZIRZGBAFTZREM-MKAGXXMWSA-N.pdb
REMARK                            x       y       z     vdW  Elec       q    Type
REMARK                         _______ _______ _______ _____ _____    ______ ____
ROOT
ATOM      1  C   LIG    1       -5.809  -7.477   0.000  0.00  0.00    -0.000 C 
ENDROOT
TORSDOF 0
REMARK  Name = molecules/TZIRZGBAFTZREM-MKAGXXMWSA-N.pdb
REMARK                            x       y       z     vdW  Elec       q    Type
REMARK                         _______ _______ _______ _____ _____    ______ ____
ROOT
ATOM      1  O   LIG    1       -7.307  -7.399   0.000  0.00  0.00    -0.279 OA
ATOM      2  C   LIG    1       -7.971  -7.207   0.000  0.00  0.00    +0.279 C 
ENDROOT
TORSDOF 0
REMARK  Name = molecules/TZIRZGBAFTZREM-MKAGXXMWSA-N.pdb
REMARK                            x       y       z     vdW  Elec       q    Type
REMARK                         _______ _______ _______ _____ _____    ______ ____
ROOT
ATOM      1  C   LIG    1       -4.312  -7.556   0.000  0.00  0.00    +0.000 C 
ENDROOT
TORSDOF 0
REMARK  Name = molecules/TZIRZGBAFTZREM-MKAGXXMWSA-N.pdb
REMARK                            x       y       z     vdW  Elec       q    Type
REMARK                         _______ _______ _______ _____ _____    ______ ____
ROOT
ATOM      1  O   HOH    1       -1.716  -6.611   0.000  0.00  0.00    +0.000 OA
ENDROOT
TORSDOF 0
REMARK  Name = molecules/TZIRZGBAFTZREM-MKAGXXMWSA-N.pdb
REMARK                            x       y       z     vdW  Elec       q    Type
REMARK                         _______ _______ _______ _____ _____    ______ ____
ROOT
ATOM      1  C   LIG    1       -0.713 -10.547   0.000  0.00  0.00    +0.000 C 
ENDROOT
TORSDOF 0
REMARK  Name = molecules/TZIRZGBAFTZREM-MKAGXXMWSA-N.pdb
REMARK                            x       y       z     vdW  Elec       q    Type
REMARK                         _______ _______ _______ _____ _____    ______ ____
ROOT
ATOM      1  C   LIG    1       -0.556  -7.551   0.000  0.00  0.00    +0.000 C 
ENDROOT
TORSDOF 0
REMARK  Name = molecules/TZIRZGBAFTZREM-MKAGXXMWSA-N.pdb
REMARK                            x       y       z     vdW  Elec       q    Type
REMARK                         _______ _______ _______ _____ _____    ______ ____
ROOT
ATOM      1  C   LIG    1       -0.478  -6.053   0.000  0.00  0.00    +0.000 C 
ATOM      2  C   LIG    1       -0.443  -5.389   0.000  0.00  0.00    +0.000 C 
ENDROOT
TORSDOF 0
REMARK  Name = molecules/TZIRZGBAFTZREM-MKAGXXMWSA-N.pdb
REMARK                            x       y       z     vdW  Elec       q    Type
REMARK                         _______ _______ _______ _____ _____    ______ ____
ROOT
ATOM      1  C   LIG    1       -0.635  -9.049   0.000  0.00  0.00    +0.000 C 
ENDROOT
TORSDOF 0
REMARK  Name = molecules/TZIRZGBAFTZREM-MKAGXXMWSA-N.pdb
REMARK                            x       y       z     vdW  Elec       q    Type
REMARK                         _______ _______ _______ _____ _____    ______ ____
ROOT
ATOM      1  O   HOH    1       -1.845 -11.531   0.000  0.00  0.00    +0.000 OA
ENDROOT
TORSDOF 0
REMARK  Name = molecules/TZIRZGBAFTZREM-MKAGXXMWSA-N.pdb
REMARK                            x       y       z     vdW  Elec       q    Type
REMARK                         _______ _______ _______ _____ _____    ______ ____
ROOT
ATOM      1  C   LIG    1        3.462 -13.019   0.000  0.00  0.00    +0.000 C 
ENDROOT
TORSDOF 0
REMARK  Name = molecules/TZIRZGBAFTZREM-MKAGXXMWSA-N.pdb
REMARK                            x       y       z     vdW  Elec       q    Type
REMARK                         _______ _______ _______ _____ _____    ______ ____
ROOT
ATOM      1  N   LIG    1        4.279 -11.761   0.000  0.00  0.00    +0.000 NA
ENDROOT
TORSDOF 0
REMARK  Name = molecules/TZIRZGBAFTZREM-MKAGXXMWSA-N.pdb
REMARK                            x       y       z     vdW  Elec       q    Type
REMARK                         _______ _______ _______ _____ _____    ______ ____
ROOT
ATOM      1  O   HOH    1        4.143 -14.355   0.000  0.00  0.00    -0.253 OA
ATOM      2  H   HOH    0        4.284 -15.359   0.000  0.00  0.00    +0.253 HD
ENDROOT
TORSDOF 0
REMARK  Name = molecules/TZIRZGBAFTZREM-MKAGXXMWSA-N.pdb
REMARK                            x       y       z     vdW  Elec       q    Type
REMARK                         _______ _______ _______ _____ _____    ______ ____
ROOT
ATOM      1  C   LIG    1        0.466 -12.862   0.000  0.00  0.00    +0.000 C 
ENDROOT
TORSDOF 0
REMARK  Name = molecules/TZIRZGBAFTZREM-MKAGXXMWSA-N.pdb
REMARK                            x       y       z     vdW  Elec       q    Type
REMARK                         _______ _______ _______ _____ _____    ______ ____
ROOT
ATOM      1  O   LIG    1       -2.016 -11.651   0.000  0.00  0.00    +0.000 OA
ATOM      2  O   LIG    1       -1.776 -12.308   0.000  0.00  0.00    +0.000 OA
ENDROOT
TORSDOF 0
REMARK  Name = molecules/TZIRZGBAFTZREM-MKAGXXMWSA-N.pdb
REMARK                            x       y       z     vdW  Elec       q    Type
REMARK                         _______ _______ _______ _____ _____    ______ ____
ROOT
ATOM      1  C   LIG    1       -3.268 -12.465   0.000  0.00  0.00    +0.000 C 
ENDROOT
TORSDOF 0
REMARK  Name = molecules/TZIRZGBAFTZREM-MKAGXXMWSA-N.pdb
REMARK                            x       y       z     vdW  Elec       q    Type
REMARK                         _______ _______ _______ _____ _____    ______ ____
ROOT
ATOM      1  C   LIG    1       -3.425 -15.461   0.000  0.00  0.00    -0.005 C 
ATOM      2  C   LIG    1       -3.285 -16.465   0.000  0.00  0.00    +0.005 C 
ENDROOT
TORSDOF 0
REMARK  Name = molecules/TZIRZGBAFTZREM-MKAGXXMWSA-N.pdb
REMARK                            x       y       z     vdW  Elec       q    Type
REMARK                         _______ _______ _______ _____ _____    ______ ____
ROOT
ATOM      1  C   LIG    1       -3.503 -16.959   0.000  0.00  0.00    +0.000 C 
ENDROOT
TORSDOF 0
REMARK  Name = molecules/TZIRZGBAFTZREM-MKAGXXMWSA-N.pdb
REMARK                            x       y       z     vdW  Elec       q    Type
REMARK                         _______ _______ _______ _____ _____    ______ ____
ROOT
ATOM      1  C   LIG    1       -2.245 -17.776   0.000  0.00  0.00    -0.000 C 
ENDROOT
TORSDOF 0
REMARK  Name = molecules/TZIRZGBAFTZREM-MKAGXXMWSA-N.pdb
REMARK                            x       y       z     vdW  Elec       q    Type
REMARK                         _______ _______ _______ _____ _____    ______ ____
ROOT
ATOM      1  C   LIG    1       -2.324 -19.274   0.000  0.00  0.00    -0.000 C 
ATOM      2  C   LIG    1       -3.661 -19.955   0.000  0.00  0.00    -0.001 C 
ENDROOT
BRANCH   2   3
ATOM      3  C   LIG    1       -4.919 -19.138   0.000  0.00  0.00    -0.008 C 
ATOM      4  C   LIG    1       -4.861 -17.884   0.000  0.00  0.00    +0.008 C 
ENDBRANCH   2   3
TORSDOF 1
REMARK  Name = molecules/TZIRZGBAFTZREM-MKAGXXMWSA-N.pdb
REMARK                            x       y       z     vdW  Elec       q    Type
REMARK                         _______ _______ _______ _____ _____    ______ ____
ROOT
ATOM      1  C   LIG    1       -4.840 -17.640   0.000  0.00  0.00    -0.004 C 
ATOM      2  C   LIG    1       -4.783 -16.386   0.000  0.00  0.00    +0.004 C 
ENDROOT
TORSDOF 0
REMARK  Name = molecules/TZIRZGBAFTZREM-MKAGXXMWSA-N.pdb
REMARK                            x       y       z     vdW  Elec       q    Type
REMARK                         _______ _______ _______ _____ _____    ______ ____
ROOT
ATOM      1  C   LIG    1       -4.369  -8.652   0.000  0.00  0.00    +0.000 C 
ENDROOT
TORSDOF 0
REMARK  Name = molecules/TZIRZGBAFTZREM-MKAGXXMWSA-N.pdb
REMARK                            x       y       z     vdW  Elec       q    Type
REMARK                         _______ _______ _______ _____ _____    ______ ____
ROOT
ATOM      1  C   LIG    1       -4.447 -10.150   0.000  0.00  0.00    +0.000 C 
ENDROOT
TORSDOF 0
REMARK  Name = molecules/TZIRZGBAFTZREM-MKAGXXMWSA-N.pdb
REMARK                            x       y       z     vdW  Elec       q    Type
REMARK                         _______ _______ _______ _____ _____    ______ ____
ROOT
ATOM      1  O   LIG    1       -3.365  -7.537   0.000  0.00  0.00    -0.036 OA
ATOM      2  O   LIG    1       -3.412  -8.398   0.000  0.00  0.00    -0.003 OA
ENDROOT
BRANCH   1   3
ATOM      3  O   LIG    1       -4.051  -7.907   0.000  0.00  0.00    -0.218 OA
ATOM      4  H   LIG    1       -4.812  -7.861   0.000  0.00  0.00    +0.256 HD
ENDBRANCH   1   3
TORSDOF 1
REMARK  Name = molecules/TZIRZGBAFTZREM-MKAGXXMWSA-N.pdb
REMARK                            x       y       z     vdW  Elec       q    Type
REMARK                         _______ _______ _______ _____ _____    ______ ____
ROOT
ATOM      1  C   LIG    1       -4.208  -6.416   0.000  0.00  0.00    +0.000 C 
ENDROOT
TORSDOF 0
REMARK  Name = molecules/TZIRZGBAFTZREM-MKAGXXMWSA-N.pdb
REMARK                            x       y       z     vdW  Elec       q    Type
REMARK                         _______ _______ _______ _____ _____    ______ ____
ROOT
ATOM      1  C   LIG    1       -5.705  -6.337   0.000  0.00  0.00    +0.018 C 
ATOM      2  C   LIG    1       -5.408  -7.341   0.000  0.00  0.00    -0.018 C 
ENDROOT
TORSDOF 0
REMARK  Name = molecules/TZIRZGBAFTZREM-MKAGXXMWSA-N.pdb
REMARK                            x       y       z     vdW  Elec       q    Type
REMARK                         _______ _______ _______ _____ _____    ______ ____
ROOT
ATOM      1  C   LIG    1       -7.154  -5.949   0.000  0.00  0.00    -0.005 C 
ATOM      2  C   LIG    1       -6.906  -7.263   0.000  0.00  0.00    +0.005 C 
ENDROOT
TORSDOF 0
REMARK  Name = molecules/TZIRZGBAFTZREM-MKAGXXMWSA-N.pdb
REMARK                            x       y       z     vdW  Elec       q    Type
REMARK                         _______ _______ _______ _____ _____    ______ ____
ROOT
ATOM      1  C   LIG    1       -1.971  -6.734   0.000  0.00  0.00    +0.000 C 
ENDROOT
TORSDOF 0
REMARK  Name = molecules/TZIRZGBAFTZREM-MKAGXXMWSA-N.pdb
REMARK                            x       y       z     vdW  Elec       q    Type
REMARK                         _______ _______ _______ _____ _____    ______ ____
ROOT
ATOM      1  C   LIG    1       -1.736  -2.240   0.000  0.00  0.00    -0.000 C 
ENDROOT
TORSDOF 0
REMARK  Name = molecules/TZIRZGBAFTZREM-MKAGXXMWSA-N.pdb
REMARK                            x       y       z     vdW  Elec       q    Type
REMARK                         _______ _______ _______ _____ _____    ______ ____
ROOT
ATOM      1  C   LIG    1       -3.312  -3.660   0.000  0.00  0.00    -0.000 C 
ENDROOT
TORSDOF 0
REMARK  Name = molecules/TZIRZGBAFTZREM-MKAGXXMWSA-N.pdb
REMARK                            x       y       z     vdW  Elec       q    Type
REMARK                         _______ _______ _______ _____ _____    ______ ____
ROOT
ATOM      1  C   LIG    1       -4.884  -8.835   0.000  0.00  0.00    +0.000 C 
ENDROOT
TORSDOF 0
REMARK  Name = molecules/TZIRZGBAFTZREM-MKAGXXMWSA-N.pdb
REMARK                            x       y       z     vdW  Elec       q    Type
REMARK                         _______ _______ _______ _____ _____    ______ ____
ROOT
ATOM      1  C   LIG    1       -3.386  -8.913   0.000  0.00  0.00    +0.000 C 
ENDROOT
TORSDOF 0
REMARK  Name = molecules/TZIRZGBAFTZREM-MKAGXXMWSA-N.pdb
REMARK                            x       y       z     vdW  Elec       q    Type
REMARK                         _______ _______ _______ _____ _____    ______ ____
ROOT
ATOM      1  C   LIG    1       -6.461 -10.254   0.000  0.00  0.00    +0.000 C 
ENDROOT
TORSDOF 0
REMARK  Name = molecules/TZIRZGBAFTZREM-MKAGXXMWSA-N.pdb
REMARK                            x       y       z     vdW  Elec       q    Type
REMARK                         _______ _______ _______ _____ _____    ______ ____
ROOT
ATOM      1  C   LIG    1       -2.071 -11.472   0.000  0.00  0.00    +0.329 C 
ENDROOT
BRANCH   1   2
ATOM      2  O   LIG    1       -1.915 -10.491   0.000  0.00  0.00    -0.354 OA
ATOM      3  H   LIG    1       -3.264 -10.770   0.000  0.00  0.00    +0.213 HD
ENDBRANCH   1   2
BRANCH   1   4
ATOM      4  O   LIG    1       -2.038 -12.409   0.000  0.00  0.00    -0.155 OA
ATOM      5  O   LIG    1       -2.931 -12.701   0.000  0.00  0.00    -0.032 OA
ENDBRANCH   1   4
TORSDOF 2
REMARK  Name = molecules/TZIRZGBAFTZREM-MKAGXXMWSA-N.pdb
REMARK                            x       y       z     vdW  Elec       q    Type
REMARK                         _______ _______ _______ _____ _____    ______ ____
ROOT
ATOM      1  C   LIG    1        0.348  -9.153   0.000  0.00  0.00    +0.000 C 
ENDROOT
TORSDOF 0
REMARK  Name = molecules/TZIRZGBAFTZREM-MKAGXXMWSA-N.pdb
REMARK                            x       y       z     vdW  Elec       q    Type
REMARK                         _______ _______ _______ _____ _____    ______ ____
ROOT
ATOM      1  C   LIG    1        0.427  -7.655   0.000  0.00  0.00    +0.000 C 
ENDROOT
TORSDOF 0
REMARK  Name = molecules/TZIRZGBAFTZREM-MKAGXXMWSA-N.pdb
REMARK                            x       y       z     vdW  Elec       q    Type
REMARK                         _______ _______ _______ _____ _____    ______ ____
ROOT
ATOM      1  C   LIG    1        0.187 -11.389   0.000  0.00  0.00    +0.000 C 
ENDROOT
TORSDOF 0
REMARK  Name = molecules/TZIRZGBAFTZREM-MKAGXXMWSA-N.pdb
REMARK                            x       y       z     vdW  Elec       q    Type
REMARK                         _______ _______ _______ _____ _____    ______ ____
ROOT
ATOM      1  C   LIG    1        3.134 -11.856   0.000  0.00  0.00    +0.000 C 
ENDROOT
TORSDOF 0
REMARK  Name = molecules/TZIRZGBAFTZREM-MKAGXXMWSA-N.pdb
REMARK                            x       y       z     vdW  Elec       q    Type
REMARK                         _______ _______ _______ _____ _____    ______ ____
ROOT
ATOM      1  C   LIG    1        3.950 -10.598   0.000  0.00  0.00    +0.000 C 
ENDROOT
TORSDOF 0
REMARK  Name = molecules/TZIRZGBAFTZREM-MKAGXXMWSA-N.pdb
REMARK                            x       y       z     vdW  Elec       q    Type
REMARK                         _______ _______ _______ _____ _____    ______ ____
ROOT
ATOM      1  C   LIG    1       -1.914  -8.476   0.000  0.00  0.00    +0.000 C 
ENDROOT
TORSDOF 0
REMARK  Name = molecules/TZIRZGBAFTZREM-MKAGXXMWSA-N.pdb
REMARK                            x       y       z     vdW  Elec       q    Type
REMARK                         _______ _______ _______ _____ _____    ______ ____
ROOT
ATOM      1  C   LIG    1        0.607 -13.866   0.000  0.00  0.00    +0.000 C 
ENDROOT
TORSDOF 0
REMARK  Name = molecules/TZIRZGBAFTZREM-MKAGXXMWSA-N.pdb
REMARK                            x       y       z     vdW  Elec       q    Type
REMARK                         _______ _______ _______ _____ _____    ______ ____
ROOT
ATOM      1  C   LIG    1        2.105 -13.944   0.000  0.00  0.00    +0.000 C 
ENDROOT
TORSDOF 0
REMARK  Name = molecules/TZIRZGBAFTZREM-MKAGXXMWSA-N.pdb
REMARK                            x       y       z     vdW  Elec       q    Type
REMARK                         _______ _______ _______ _____ _____    ______ ____
ROOT
ATOM      1  N   LIG    1        2.786 -15.281   0.000  0.00  0.00    -0.163 NA
ATOM      2  H   LIG    1        2.428 -14.367   0.000  0.00  0.00    +0.163 HD
ENDROOT
TORSDOF 0
REMARK  Name = molecules/TZIRZGBAFTZREM-MKAGXXMWSA-N.pdb
REMARK                            x       y       z     vdW  Elec       q    Type
REMARK                         _______ _______ _______ _____ _____    ______ ____
ROOT
ATOM      1  O   HOH    1        3.495 -13.383   0.000  0.00  0.00    +0.000 OA
ENDROOT
TORSDOF 0
REMARK  Name = molecules/TZIRZGBAFTZREM-MKAGXXMWSA-N.pdb
REMARK                            x       y       z     vdW  Elec       q    Type
REMARK                         _______ _______ _______ _____ _____    ______ ____
ROOT
ATOM      1  C   LIG    1       -4.704 -14.888   0.000  0.00  0.00    +0.000 C 
ENDROOT
TORSDOF 0
REMARK  Name = molecules/TZIRZGBAFTZREM-MKAGXXMWSA-N.pdb
REMARK                            x       y       z     vdW  Elec       q    Type
REMARK                         _______ _______ _______ _____ _____    ______ ____
ROOT
ATOM      1  C   LIG    1       -5.727  -9.578   0.000  0.00  0.00    +0.000 C 
ENDROOT
TORSDOF 0
REMARK  Name = molecules/TZIRZGBAFTZREM-MKAGXXMWSA-N.pdb
REMARK                            x       y       z     vdW  Elec       q    Type
REMARK                         _______ _______ _______ _____ _____    ______ ____
ROOT
ATOM      1  C   LIG    1       -5.805 -11.075   0.000  0.00  0.00    +0.000 C 
ENDROOT
TORSDOF 0
REMARK  Name = molecules/TZIRZGBAFTZREM-MKAGXXMWSA-N.pdb
REMARK                            x       y       z     vdW  Elec       q    Type
REMARK                         _______ _______ _______ _____ _____    ______ ____
ROOT
ATOM      1  O   HOH    1       -4.336 -10.140   0.000  0.00  0.00    -0.253 OA
ATOM      2  H   HOH    0       -5.039 -10.145   0.000  0.00  0.00    +0.253 HD
ENDROOT
TORSDOF 0
REMARK  Name = molecules/TZIRZGBAFTZREM-MKAGXXMWSA-N.pdb
REMARK                            x       y       z     vdW  Elec       q    Type
REMARK                         _______ _______ _______ _____ _____    ______ ____
ROOT
ATOM      1  C   LIG    1       -8.404  -7.184   0.000  0.00  0.00    +0.000 C 
ENDROOT
TORSDOF 0
REMARK  Name = molecules/TZIRZGBAFTZREM-MKAGXXMWSA-N.pdb
REMARK                            x       y       z     vdW  Elec       q    Type
REMARK                         _______ _______ _______ _____ _____    ______ ____
ROOT
ATOM      1  O   HOH    1       -9.902  -7.106   0.000  0.00  0.00    -0.253 OA
ATOM      2  H   HOH    0       -9.586  -8.107   0.000  0.00  0.00    +0.253 HD
ENDROOT
TORSDOF 0
REMARK  Name = molecules/TZIRZGBAFTZREM-MKAGXXMWSA-N.pdb
REMARK                            x       y       z     vdW  Elec       q    Type
REMARK                         _______ _______ _______ _____ _____    ______ ____
ROOT
ATOM      1  O   HOH    1       -5.643  -5.860   0.000  0.00  0.00    +0.000 OA
ENDROOT
TORSDOF 0
REMARK  Name = molecules/TZIRZGBAFTZREM-MKAGXXMWSA-N.pdb
REMARK                            x       y       z     vdW  Elec       q    Type
REMARK                         _______ _______ _______ _____ _____    ______ ____
ROOT
ATOM      1  C   LIG    1       -3.151  -7.258   0.000  0.00  0.00    +0.000 C 
ENDROOT
TORSDOF 0
REMARK  Name = molecules/TZIRZGBAFTZREM-MKAGXXMWSA-N.pdb
REMARK                            x       y       z     vdW  Elec       q    Type
REMARK                         _______ _______ _______ _____ _____    ______ ____
ROOT
ATOM      1  C   LIG    1       -3.308 -10.254   0.000  0.00  0.00    +0.000 C 
ENDROOT
TORSDOF 0
REMARK  Name = molecules/TZIRZGBAFTZREM-MKAGXXMWSA-N.pdb
REMARK                            x       y       z     vdW  Elec       q    Type
REMARK                         _______ _______ _______ _____ _____    ______ ____
ROOT
ATOM      1  O   HOH    1       -4.032  -6.045   0.000  0.00  0.00    +0.000 OA
ENDROOT
TORSDOF 0
REMARK  Name = molecules/TZIRZGBAFTZREM-MKAGXXMWSA-N.pdb
REMARK                            x       y       z     vdW  Elec       q    Type
REMARK                         _______ _______ _______ _____ _____    ______ ____
ROOT
ATOM      1  C   LIG    1       -3.234  -5.001   0.000  0.00  0.00    +0.000 C 
ENDROOT
TORSDOF 0
REMARK  Name = molecules/TZIRZGBAFTZREM-MKAGXXMWSA-N.pdb
REMARK                            x       y       z     vdW  Elec       q    Type
REMARK                         _______ _______ _______ _____ _____    ______ ____
ROOT
ATOM      1  O   HOH    1       -0.159  -3.660   0.000  0.00  0.00    -0.253 OA
ATOM      2  H   HOH    0       -0.503  -2.699   0.000  0.00  0.00    +0.253 HD
ENDROOT
TORSDOF 0
REMARK  Name = molecules/TZIRZGBAFTZREM-MKAGXXMWSA-N.pdb
REMARK                            x       y       z     vdW  Elec       q    Type
REMARK                         _______ _______ _______ _____ _____    ______ ____
ROOT
ATOM      1  C   LIG    1       -1.736  -5.079   0.000  0.00  0.00    +0.000 C 
ENDROOT
TORSDOF 0
REMARK  Name = molecules/TZIRZGBAFTZREM-MKAGXXMWSA-N.pdb
REMARK                            x       y       z     vdW  Elec       q    Type
REMARK                         _______ _______ _______ _____ _____    ______ ____
ROOT
ATOM      1  C   LIG    1        1.260  -5.236   0.000  0.00  0.00    -0.000 C 
ENDROOT
TORSDOF 0
REMARK  Name = molecules/TZIRZGBAFTZREM-MKAGXXMWSA-N.pdb
REMARK                            x       y       z     vdW  Elec       q    Type
REMARK                         _______ _______ _______ _____ _____    ______ ____
ROOT
ATOM      1  O   LIG    1       -4.719  -5.209   0.000  0.00  0.00    +0.000 OA
ATOM      2  O   LIG    1       -4.233  -5.901   0.000  0.00  0.00    +0.000 OA
ENDROOT
TORSDOF 0
REMARK  Name = molecules/TZIRZGBAFTZREM-MKAGXXMWSA-N.pdb
REMARK                            x       y       z     vdW  Elec       q    Type
REMARK                         _______ _______ _______ _____ _____    ______ ____
ROOT
ATOM      1  C   LIG    1       -5.491  -5.084   0.000  0.00  0.00    +0.000 C 
ENDROOT
TORSDOF 0
REMARK  Name = molecules/TZIRZGBAFTZREM-MKAGXXMWSA-N.pdb
REMARK                            x       y       z     vdW  Elec       q    Type
REMARK                         _______ _______ _______ _____ _____    ______ ____
ROOT
ATOM      1  C   LIG    1       -5.334  -2.088   0.000  0.00  0.00    +0.000 C 
ENDROOT
TORSDOF 0
REMARK  Name = molecules/TZIRZGBAFTZREM-MKAGXXMWSA-N.pdb
REMARK                            x       y       z     vdW  Elec       q    Type
REMARK                         _______ _______ _______ _____ _____    ______ ____
ROOT
ATOM      1  C   LIG    1       -5.256  -0.590   0.000  0.00  0.00    +0.000 C 
ENDROOT
TORSDOF 0
REMARK  Name = molecules/TZIRZGBAFTZREM-MKAGXXMWSA-N.pdb
REMARK                            x       y       z     vdW  Elec       q    Type
REMARK                         _______ _______ _______ _____ _____    ______ ____
ROOT
ATOM      1  C   LIG    1       -6.514   0.227   0.000  0.00  0.00    +0.030 C 
ATOM      2  C   LIG    1       -6.435   1.725   0.000  0.00  0.00    +0.024 C 
ATOM      3  C   LIG    1       -5.098   2.406   0.000  0.00  0.00    +0.157 C 
ATOM      4  O   LIG    1       -5.020   3.904   0.000  0.00  0.00    -0.293 OA
ATOM      5  C   LIG    1       -3.841   1.589   0.000  0.00  0.00    +0.082 C 
ENDROOT
TORSDOF 0
REMARK  Name = molecules/TZIRZGBAFTZREM-MKAGXXMWSA-N.pdb
REMARK                            x       y       z     vdW  Elec       q    Type
REMARK                         _______ _______ _______ _____ _____    ______ ____
ROOT
ATOM      1  C   LIG    1       -3.919   0.091   0.000  0.00  0.00    +0.000 C 
ENDROOT
TORSDOF 0
REMARK  Name = molecules/TZIRZGBAFTZREM-MKAGXXMWSA-N.pdb
REMARK                            x       y       z     vdW  Elec       q    Type
REMARK                         _______ _______ _______ _____ _____    ______ ____
ROOT
ATOM      1  C   LIG    1       -5.413  -3.586   0.000  0.00  0.00    +0.000 C 
ENDROOT
TORSDOF 0
REMARK  Name = molecules/TZIRZGBAFTZREM-MKAGXXMWSA-N.pdb
REMARK                            x       y       z     vdW  Elec       q    Type
REMARK                         _______ _______ _______ _____ _____    ______ ____
ROOT
ATOM      1  H   UNK    1       12.393   1.892   0.000  0.00  0.00    +0.000 HD
ENDROOT
TORSDOF 0
REMARK  Name = molecules/TZIRZGBAFTZREM-MKAGXXMWSA-N.pdb
REMARK                            x       y       z     vdW  Elec       q    Type
REMARK                         _______ _______ _______ _____ _____    ______ ____
ROOT
ATOM      1  H   UNK    1       12.346   3.639   0.000  0.00  0.00    +0.000 HD
ENDROOT
TORSDOF 0
REMARK  Name = molecules/TZIRZGBAFTZREM-MKAGXXMWSA-N.pdb
REMARK                            x       y       z     vdW  Elec       q    Type
REMARK                         _______ _______ _______ _____ _____    ______ ____
ROOT
ATOM      1  H   UNK    1        9.751   8.732   0.000  0.00  0.00    +0.000 HD
ENDROOT
TORSDOF 0
REMARK  Name = molecules/TZIRZGBAFTZREM-MKAGXXMWSA-N.pdb
REMARK                            x       y       z     vdW  Elec       q    Type
REMARK                         _______ _______ _______ _____ _____    ______ ____
ROOT
ATOM      1  H   UNK    1        4.107   9.626   0.000  0.00  0.00    +0.000 HD
ENDROOT
TORSDOF 0
REMARK  Name = molecules/TZIRZGBAFTZREM-MKAGXXMWSA-N.pdb
REMARK                            x       y       z     vdW  Elec       q    Type
REMARK                         _______ _______ _______ _____ _____    ______ ____
ROOT
ATOM      1  H   UNK    1        0.065   5.584   0.000  0.00  0.00    +0.000 HD
ENDROOT
TORSDOF 0
REMARK  Name = molecules/TZIRZGBAFTZREM-MKAGXXMWSA-N.pdb
REMARK                            x       y       z     vdW  Elec       q    Type
REMARK                         _______ _______ _______ _____ _____    ______ ____
ROOT
ATOM      1  H   UNK    1        7.435  -2.750   0.000  0.00  0.00    +0.000 HD
ENDROOT
TORSDOF 0
REMARK  Name = molecules/TZIRZGBAFTZREM-MKAGXXMWSA-N.pdb
REMARK                            x       y       z     vdW  Elec       q    Type
REMARK                         _______ _______ _______ _____ _____    ______ ____
ROOT
ATOM      1  H   UNK    1        5.083   1.844   0.000  0.00  0.00    +0.000 HD
ENDROOT
TORSDOF 0
REMARK  Name = molecules/TZIRZGBAFTZREM-MKAGXXMWSA-N.pdb
REMARK                            x       y       z     vdW  Elec       q    Type
REMARK                         _______ _______ _______ _____ _____    ______ ____
ROOT
ATOM      1  H   UNK    1       -0.076  -0.316   0.000  0.00  0.00    +0.000 HD
ENDROOT
TORSDOF 0
REMARK  Name = molecules/TZIRZGBAFTZREM-MKAGXXMWSA-N.pdb
REMARK                            x       y       z     vdW  Elec       q    Type
REMARK                         _______ _______ _______ _____ _____    ______ ____
ROOT
ATOM      1  H   UNK    1        2.037 -11.207   0.000  0.00  0.00    +0.000 HD
ENDROOT
TORSDOF 0
REMARK  Name = molecules/TZIRZGBAFTZREM-MKAGXXMWSA-N.pdb
REMARK                            x       y       z     vdW  Elec       q    Type
REMARK                         _______ _______ _______ _____ _____    ______ ____
ROOT
ATOM      1  H   UNK    1       -1.168 -15.378   0.000  0.00  0.00    +0.000 HD
ENDROOT
TORSDOF 0
REMARK  Name = molecules/TZIRZGBAFTZREM-MKAGXXMWSA-N.pdb
REMARK                            x       y       z     vdW  Elec       q    Type
REMARK                         _______ _______ _______ _____ _____    ______ ____
ROOT
ATOM      1  H   UNK    1       -5.988 -11.985   0.000  0.00  0.00    +0.000 HD
ENDROOT
TORSDOF 0
REMARK  Name = molecules/TZIRZGBAFTZREM-MKAGXXMWSA-N.pdb
REMARK                            x       y       z     vdW  Elec       q    Type
REMARK                         _______ _______ _______ _____ _____    ______ ____
ROOT
ATOM      1  H   UNK    1        0.524 -11.608   0.000  0.00  0.00    +0.000 HD
ENDROOT
TORSDOF 0
REMARK  Name = molecules/TZIRZGBAFTZREM-MKAGXXMWSA-N.pdb
REMARK                            x       y       z     vdW  Elec       q    Type
REMARK                         _______ _______ _______ _____ _____    ______ ____
ROOT
ATOM      1  H   UNK    1       -7.220 -13.254   0.000  0.00  0.00    +0.000 HD
ENDROOT
TORSDOF 0
REMARK  Name = molecules/TZIRZGBAFTZREM-MKAGXXMWSA-N.pdb
REMARK                            x       y       z     vdW  Elec       q    Type
REMARK                         _______ _______ _______ _____ _____    ______ ____
ROOT
ATOM      1  H   UNK    1       -7.988  -9.875   0.000  0.00  0.00    +0.000 HD
ENDROOT
TORSDOF 0
REMARK  Name = molecules/TZIRZGBAFTZREM-MKAGXXMWSA-N.pdb
REMARK                            x       y       z     vdW  Elec       q    Type
REMARK                         _______ _______ _______ _____ _____    ______ ____
ROOT
ATOM      1  H   UNK    1       -0.556  -7.394   0.000  0.00  0.00    +0.000 HD
ENDROOT
TORSDOF 0
REMARK  Name = molecules/TZIRZGBAFTZREM-MKAGXXMWSA-N.pdb
REMARK                            x       y       z     vdW  Elec       q    Type
REMARK                         _______ _______ _______ _____ _____    ______ ____
ROOT
ATOM      1  H   UNK    1       -7.851  -4.668   0.000  0.00  0.00    +0.000 HD
ENDROOT
TORSDOF 0
REMARK  Name = molecules/TZIRZGBAFTZREM-MKAGXXMWSA-N.pdb
REMARK                            x       y       z     vdW  Elec       q    Type
REMARK                         _______ _______ _______ _____ _____    ______ ____
ROOT
ATOM      1  H   UNK    1       13.686   0.826   0.000  0.00  0.00    +0.000 HD
ENDROOT
TORSDOF 0
REMARK  Name = molecules/TZIRZGBAFTZREM-MKAGXXMWSA-N.pdb
REMARK                            x       y       z     vdW  Elec       q    Type
REMARK                         _______ _______ _______ _____ _____    ______ ____
ROOT
ATOM      1  H   UNK    1       21.914   0.193   0.000  0.00  0.00    +0.000 HD
ENDROOT
TORSDOF 0
REMARK  Name = molecules/TZIRZGBAFTZREM-MKAGXXMWSA-N.pdb
REMARK                            x       y       z     vdW  Elec       q    Type
REMARK                         _______ _______ _______ _____ _____    ______ ____
ROOT
ATOM      1  H   UNK    1       21.778  -2.401   0.000  0.00  0.00    +0.000 HD
ENDROOT
TORSDOF 0
REMARK  Name = molecules/TZIRZGBAFTZREM-MKAGXXMWSA-N.pdb
REMARK                            x       y       z     vdW  Elec       q    Type
REMARK                         _______ _______ _______ _____ _____    ______ ____
ROOT
ATOM      1  H   UNK    1       12.827   5.492   0.000  0.00  0.00    +0.000 HD
ENDROOT
TORSDOF 0
REMARK  Name = molecules/TZIRZGBAFTZREM-MKAGXXMWSA-N.pdb
REMARK                            x       y       z     vdW  Elec       q    Type
REMARK                         _______ _______ _______ _____ _____    ______ ____
ROOT
ATOM      1  H   UNK    1       14.925   8.383   0.000  0.00  0.00    +0.000 HD
ENDROOT
TORSDOF 0
REMARK  Name = molecules/TZIRZGBAFTZREM-MKAGXXMWSA-N.pdb
REMARK                            x       y       z     vdW  Elec       q    Type
REMARK                         _______ _______ _______ _____ _____    ______ ____
ROOT
ATOM      1  H   UNK    1       14.518   5.817   0.000  0.00  0.00    +0.000 HD
ENDROOT
TORSDOF 0
REMARK  Name = molecules/TZIRZGBAFTZREM-MKAGXXMWSA-N.pdb
REMARK                            x       y       z     vdW  Elec       q    Type
REMARK                         _______ _______ _______ _____ _____    ______ ____
ROOT
ATOM      1  H   UNK    1        9.156  11.427   0.000  0.00  0.00    +0.000 HD
ENDROOT
TORSDOF 0
REMARK  Name = molecules/TZIRZGBAFTZREM-MKAGXXMWSA-N.pdb
REMARK                            x       y       z     vdW  Elec       q    Type
REMARK                         _______ _______ _______ _____ _____    ______ ____
ROOT
ATOM      1  H   UNK    1        6.369  12.546   0.000  0.00  0.00    +0.000 HD
ENDROOT
TORSDOF 0
REMARK  Name = molecules/TZIRZGBAFTZREM-MKAGXXMWSA-N.pdb
REMARK                            x       y       z     vdW  Elec       q    Type
REMARK                         _______ _______ _______ _____ _____    ______ ____
ROOT
ATOM      1  H   UNK    1        8.148  11.659   0.000  0.00  0.00    +0.000 HD
ENDROOT
TORSDOF 0
REMARK  Name = molecules/TZIRZGBAFTZREM-MKAGXXMWSA-N.pdb
REMARK                            x       y       z     vdW  Elec       q    Type
REMARK                         _______ _______ _______ _____ _____    ______ ____
ROOT
ATOM      1  H   UNK    1       -2.314   4.185   0.000  0.00  0.00    +0.000 HD
ENDROOT
TORSDOF 0
REMARK  Name = molecules/TZIRZGBAFTZREM-MKAGXXMWSA-N.pdb
REMARK                            x       y       z     vdW  Elec       q    Type
REMARK                         _______ _______ _______ _____ _____    ______ ____
ROOT
ATOM      1  H   UNK    1       -2.223   3.154   0.000  0.00  0.00    +0.000 HD
ENDROOT
TORSDOF 0
REMARK  Name = molecules/TZIRZGBAFTZREM-MKAGXXMWSA-N.pdb
REMARK                            x       y       z     vdW  Elec       q    Type
REMARK                         _______ _______ _______ _____ _____    ______ ____
ROOT
ATOM      1  H   UNK    1        0.488   1.404   0.000  0.00  0.00    +0.000 HD
ENDROOT
TORSDOF 0
REMARK  Name = molecules/TZIRZGBAFTZREM-MKAGXXMWSA-N.pdb
REMARK                            x       y       z     vdW  Elec       q    Type
REMARK                         _______ _______ _______ _____ _____    ______ ____
ROOT
ATOM      1  H   UNK    1        9.904  -4.747   0.000  0.00  0.00    +0.000 HD
ENDROOT
TORSDOF 0
REMARK  Name = molecules/TZIRZGBAFTZREM-MKAGXXMWSA-N.pdb
REMARK                            x       y       z     vdW  Elec       q    Type
REMARK                         _______ _______ _______ _____ _____    ______ ____
ROOT
ATOM      1  H   UNK    1       11.402  -4.825   0.000  0.00  0.00    +0.000 HD
ENDROOT
TORSDOF 0
REMARK  Name = molecules/TZIRZGBAFTZREM-MKAGXXMWSA-N.pdb
REMARK                            x       y       z     vdW  Elec       q    Type
REMARK                         _______ _______ _______ _____ _____    ______ ____
ROOT
ATOM      1  H   UNK    1       11.376  -1.831   0.000  0.00  0.00    +0.000 HD
ENDROOT
TORSDOF 0
REMARK  Name = molecules/TZIRZGBAFTZREM-MKAGXXMWSA-N.pdb
REMARK                            x       y       z     vdW  Elec       q    Type
REMARK                         _______ _______ _______ _____ _____    ______ ____
ROOT
ATOM      1  H   UNK    1       15.273  -2.408   0.000  0.00  0.00    +0.000 HD
ENDROOT
TORSDOF 0
REMARK  Name = molecules/TZIRZGBAFTZREM-MKAGXXMWSA-N.pdb
REMARK                            x       y       z     vdW  Elec       q    Type
REMARK                         _______ _______ _______ _____ _____    ______ ____
ROOT
ATOM      1  H   UNK    1        8.589  -4.667   0.000  0.00  0.00    +0.000 HD
ENDROOT
TORSDOF 0
REMARK  Name = molecules/TZIRZGBAFTZREM-MKAGXXMWSA-N.pdb
REMARK                            x       y       z     vdW  Elec       q    Type
REMARK                         _______ _______ _______ _____ _____    ______ ____
ROOT
ATOM      1  H   UNK    1        8.210 -11.216   0.000  0.00  0.00    +0.000 HD
ENDROOT
TORSDOF 0
REMARK  Name = molecules/TZIRZGBAFTZREM-MKAGXXMWSA-N.pdb
REMARK                            x       y       z     vdW  Elec       q    Type
REMARK                         _______ _______ _______ _____ _____    ______ ____
ROOT
ATOM      1  H   UNK    1        6.795 -13.395   0.000  0.00  0.00    +0.000 HD
ENDROOT
TORSDOF 0
REMARK  Name = molecules/TZIRZGBAFTZREM-MKAGXXMWSA-N.pdb
REMARK                            x       y       z     vdW  Elec       q    Type
REMARK                         _______ _______ _______ _____ _____    ______ ____
ROOT
ATOM      1  H   UNK    1        3.175  -4.376   0.000  0.00  0.00    +0.000 HD
ENDROOT
TORSDOF 0
REMARK  Name = molecules/TZIRZGBAFTZREM-MKAGXXMWSA-N.pdb
REMARK                            x       y       z     vdW  Elec       q    Type
REMARK                         _______ _______ _______ _____ _____    ______ ____
ROOT
ATOM      1  H   UNK    1        7.585  -2.171   0.000  0.00  0.00    +0.000 HD
ENDROOT
TORSDOF 0
REMARK  Name = molecules/TZIRZGBAFTZREM-MKAGXXMWSA-N.pdb
REMARK                            x       y       z     vdW  Elec       q    Type
REMARK                         _______ _______ _______ _____ _____    ______ ____
ROOT
ATOM      1  H   UNK    1       -0.608  -1.203   0.000  0.00  0.00    +0.000 HD
ENDROOT
TORSDOF 0
REMARK  Name = molecules/TZIRZGBAFTZREM-MKAGXXMWSA-N.pdb
REMARK                            x       y       z     vdW  Elec       q    Type
REMARK                         _______ _______ _______ _____ _____    ______ ____
ROOT
ATOM      1  H   UNK    1        0.292  -3.971   0.000  0.00  0.00    +0.000 HD
ENDROOT
TORSDOF 0
REMARK  Name = molecules/TZIRZGBAFTZREM-MKAGXXMWSA-N.pdb
REMARK                            x       y       z     vdW  Elec       q    Type
REMARK                         _______ _______ _______ _____ _____    ______ ____
ROOT
ATOM      1  H   UNK    1       -1.865  -0.026   0.000  0.00  0.00    +0.000 HD
ENDROOT
TORSDOF 0
REMARK  Name = molecules/TZIRZGBAFTZREM-MKAGXXMWSA-N.pdb
REMARK                            x       y       z     vdW  Elec       q    Type
REMARK                         _______ _______ _______ _____ _____    ______ ____
ROOT
ATOM      1  H   UNK    1        5.064   3.219   0.000  0.00  0.00    +0.000 HD
ENDROOT
TORSDOF 0
REMARK  Name = molecules/TZIRZGBAFTZREM-MKAGXXMWSA-N.pdb
REMARK                            x       y       z     vdW  Elec       q    Type
REMARK                         _______ _______ _______ _____ _____    ______ ____
ROOT
ATOM      1  H   UNK    1        9.108  -5.266   0.000  0.00  0.00    +0.000 HD
ENDROOT
TORSDOF 0
REMARK  Name = molecules/TZIRZGBAFTZREM-MKAGXXMWSA-N.pdb
REMARK                            x       y       z     vdW  Elec       q    Type
REMARK                         _______ _______ _______ _____ _____    ______ ____
ROOT
ATOM      1  H   UNK    1        7.370  -6.483   0.000  0.00  0.00    +0.000 HD
ENDROOT
TORSDOF 0
REMARK  Name = molecules/TZIRZGBAFTZREM-MKAGXXMWSA-N.pdb
REMARK                            x       y       z     vdW  Elec       q    Type
REMARK                         _______ _______ _______ _____ _____    ______ ____
ROOT
ATOM      1  H   UNK    1        0.487  -9.471   0.000  0.00  0.00    +0.000 HD
ENDROOT
TORSDOF 0
REMARK  Name = molecules/TZIRZGBAFTZREM-MKAGXXMWSA-N.pdb
REMARK                            x       y       z     vdW  Elec       q    Type
REMARK                         _______ _______ _______ _____ _____    ______ ____
ROOT
ATOM      1  H   UNK    1        4.323 -11.927   0.000  0.00  0.00    +0.000 HD
ENDROOT
TORSDOF 0
REMARK  Name = molecules/TZIRZGBAFTZREM-MKAGXXMWSA-N.pdb
REMARK                            x       y       z     vdW  Elec       q    Type
REMARK                         _______ _______ _______ _____ _____    ______ ____
ROOT
ATOM      1  H   UNK    1        2.820  -6.877   0.000  0.00  0.00    +0.000 HD
ENDROOT
TORSDOF 0
REMARK  Name = molecules/TZIRZGBAFTZREM-MKAGXXMWSA-N.pdb
REMARK                            x       y       z     vdW  Elec       q    Type
REMARK                         _______ _______ _______ _____ _____    ______ ____
ROOT
ATOM      1  H   UNK    1        1.893  -4.024   0.000  0.00  0.00    +0.000 HD
ENDROOT
TORSDOF 0
REMARK  Name = molecules/TZIRZGBAFTZREM-MKAGXXMWSA-N.pdb
REMARK                            x       y       z     vdW  Elec       q    Type
REMARK                         _______ _______ _______ _____ _____    ______ ____
ROOT
ATOM      1  H   UNK    1        7.547  -4.244   0.000  0.00  0.00    +0.000 HD
ENDROOT
TORSDOF 0
REMARK  Name = molecules/TZIRZGBAFTZREM-MKAGXXMWSA-N.pdb
REMARK                            x       y       z     vdW  Elec       q    Type
REMARK                         _______ _______ _______ _____ _____    ______ ____
ROOT
ATOM      1  H   UNK    1        1.298  -3.938   0.000  0.00  0.00    +0.000 HD
ENDROOT
TORSDOF 0
REMARK  Name = molecules/TZIRZGBAFTZREM-MKAGXXMWSA-N.pdb
REMARK                            x       y       z     vdW  Elec       q    Type
REMARK                         _______ _______ _______ _____ _____    ______ ____
ROOT
ATOM      1  H   UNK    1       -4.174  -1.942   0.000  0.00  0.00    +0.000 HD
ENDROOT
TORSDOF 0
REMARK  Name = molecules/TZIRZGBAFTZREM-MKAGXXMWSA-N.pdb
REMARK                            x       y       z     vdW  Elec       q    Type
REMARK                         _______ _______ _______ _____ _____    ______ ____
ROOT
ATOM      1  H   UNK    1       -1.529   0.101   0.000  0.00  0.00    +0.000 HD
ENDROOT
TORSDOF 0
REMARK  Name = molecules/TZIRZGBAFTZREM-MKAGXXMWSA-N.pdb
REMARK                            x       y       z     vdW  Elec       q    Type
REMARK                         _______ _______ _______ _____ _____    ______ ____
ROOT
ATOM      1  H   UNK    1       -6.420  -8.847   0.000  0.00  0.00    +0.000 HD
ENDROOT
TORSDOF 0
REMARK  Name = molecules/TZIRZGBAFTZREM-MKAGXXMWSA-N.pdb
REMARK                            x       y       z     vdW  Elec       q    Type
REMARK                         _______ _______ _______ _____ _____    ______ ____
ROOT
ATOM      1  H   UNK    1        1.740  -6.586   0.000  0.00  0.00    +0.000 HD
ENDROOT
TORSDOF 0
REMARK  Name = molecules/TZIRZGBAFTZREM-MKAGXXMWSA-N.pdb
REMARK                            x       y       z     vdW  Elec       q    Type
REMARK                         _______ _______ _______ _____ _____    ______ ____
ROOT
ATOM      1  H   UNK    1        3.146 -12.017   0.000  0.00  0.00    +0.000 HD
ENDROOT
TORSDOF 0
REMARK  Name = molecules/TZIRZGBAFTZREM-MKAGXXMWSA-N.pdb
REMARK                            x       y       z     vdW  Elec       q    Type
REMARK                         _______ _______ _______ _____ _____    ______ ____
ROOT
ATOM      1  H   UNK    1        5.461 -12.685   0.000  0.00  0.00    +0.000 HD
ENDROOT
TORSDOF 0
REMARK  Name = molecules/TZIRZGBAFTZREM-MKAGXXMWSA-N.pdb
REMARK                            x       y       z     vdW  Elec       q    Type
REMARK                         _______ _______ _______ _____ _____    ______ ____
ROOT
ATOM      1  H   UNK    1       -1.948 -15.721   0.000  0.00  0.00    +0.000 HD
ENDROOT
TORSDOF 0
REMARK  Name = molecules/TZIRZGBAFTZREM-MKAGXXMWSA-N.pdb
REMARK                            x       y       z     vdW  Elec       q    Type
REMARK                         _______ _______ _______ _____ _____    ______ ____
ROOT
ATOM      1  H   UNK    1       -0.909 -17.095   0.000  0.00  0.00    +0.000 HD
ENDROOT
TORSDOF 0
REMARK  Name = molecules/TZIRZGBAFTZREM-MKAGXXMWSA-N.pdb
REMARK                            x       y       z     vdW  Elec       q    Type
REMARK                         _______ _______ _______ _____ _____    ______ ____
ROOT
ATOM      1  H   UNK    1       -4.824 -13.702   0.000  0.00  0.00    +0.000 HD
ENDROOT
TORSDOF 0
REMARK  Name = molecules/TZIRZGBAFTZREM-MKAGXXMWSA-N.pdb
REMARK                            x       y       z     vdW  Elec       q    Type
REMARK                         _______ _______ _______ _____ _____    ______ ____
ROOT
ATOM      1  H   UNK    1       -5.119  -4.957   0.000  0.00  0.00    +0.000 HD
ENDROOT
TORSDOF 0
REMARK  Name = molecules/TZIRZGBAFTZREM-MKAGXXMWSA-N.pdb
REMARK                            x       y       z     vdW  Elec       q    Type
REMARK                         _______ _______ _______ _____ _____    ______ ____
ROOT
ATOM      1  H   UNK    1       -8.491  -5.268   0.000  0.00  0.00    +0.000 HD
ENDROOT
TORSDOF 0
REMARK  Name = molecules/TZIRZGBAFTZREM-MKAGXXMWSA-N.pdb
REMARK                            x       y       z     vdW  Elec       q    Type
REMARK                         _______ _______ _______ _____ _____    ______ ____
ROOT
ATOM      1  H   UNK    1       -9.137  -6.263   0.000  0.00  0.00    +0.000 HD
ENDROOT
TORSDOF 0
REMARK  Name = molecules/TZIRZGBAFTZREM-MKAGXXMWSA-N.pdb
REMARK                            x       y       z     vdW  Elec       q    Type
REMARK                         _______ _______ _______ _____ _____    ______ ____
ROOT
ATOM      1  H   UNK    1       -9.032  -8.268   0.000  0.00  0.00    +0.000 HD
ENDROOT
TORSDOF 0
REMARK  Name = molecules/TZIRZGBAFTZREM-MKAGXXMWSA-N.pdb
REMARK                            x       y       z     vdW  Elec       q    Type
REMARK                         _______ _______ _______ _____ _____    ______ ____
ROOT
ATOM      1  H   UNK    1       -8.376  -9.030   0.000  0.00  0.00    +0.000 HD
ENDROOT
TORSDOF 0
REMARK  Name = molecules/TZIRZGBAFTZREM-MKAGXXMWSA-N.pdb
REMARK                            x       y       z     vdW  Elec       q    Type
REMARK                         _______ _______ _______ _____ _____    ______ ____
ROOT
ATOM      1  H   UNK    1       -1.297  -0.806   0.000  0.00  0.00    +0.000 HD
ENDROOT
TORSDOF 0
REMARK  Name = molecules/TZIRZGBAFTZREM-MKAGXXMWSA-N.pdb
REMARK                            x       y       z     vdW  Elec       q    Type
REMARK                         _______ _______ _______ _____ _____    ______ ____
ROOT
ATOM      1  H   UNK    1       -0.395  -5.315   0.000  0.00  0.00    +0.000 HD
ENDROOT
TORSDOF 0
REMARK  Name = molecules/TZIRZGBAFTZREM-MKAGXXMWSA-N.pdb
REMARK                            x       y       z     vdW  Elec       q    Type
REMARK                         _______ _______ _______ _____ _____    ______ ____
ROOT
ATOM      1  H   UNK    1       -4.524  -5.054   0.000  0.00  0.00    +0.000 HD
ENDROOT
TORSDOF 0
REMARK  Name = molecules/TZIRZGBAFTZREM-MKAGXXMWSA-N.pdb
REMARK                            x       y       z     vdW  Elec       q    Type
REMARK                         _______ _______ _______ _____ _____    ______ ____
ROOT
ATOM      1  H   UNK    1       -9.352  -8.964   0.000  0.00  0.00    +0.000 HD
ENDROOT
TORSDOF 0
REMARK  Name = molecules/TZIRZGBAFTZREM-MKAGXXMWSA-N.pdb
REMARK                            x       y       z     vdW  Elec       q    Type
REMARK                         _______ _______ _______ _____ _____    ______ ____
ROOT
ATOM      1  H   UNK    1       -8.319 -10.112   0.000  0.00  0.00    +0.000 HD
ENDROOT
TORSDOF 0
REMARK  Name = molecules/TZIRZGBAFTZREM-MKAGXXMWSA-N.pdb
REMARK                            x       y       z     vdW  Elec       q    Type
REMARK                         _______ _______ _______ _____ _____    ______ ____
ROOT
ATOM      1  H   UNK    1       -7.933 -10.540   0.000  0.00  0.00    +0.000 HD
ENDROOT
TORSDOF 0
REMARK  Name = molecules/TZIRZGBAFTZREM-MKAGXXMWSA-N.pdb
REMARK                            x       y       z     vdW  Elec       q    Type
REMARK                         _______ _______ _______ _____ _____    ______ ____
ROOT
ATOM      1  H   UNK    1        1.869  -8.069   0.000  0.00  0.00    +0.000 HD
ENDROOT
TORSDOF 0
REMARK  Name = molecules/TZIRZGBAFTZREM-MKAGXXMWSA-N.pdb
REMARK                            x       y       z     vdW  Elec       q    Type
REMARK                         _______ _______ _______ _____ _____    ______ ____
ROOT
ATOM      1  H   UNK    1       -0.338  -3.893   0.000  0.00  0.00    +0.000 HD
ENDROOT
TORSDOF 0
REMARK  Name = molecules/TZIRZGBAFTZREM-MKAGXXMWSA-N.pdb
REMARK                            x       y       z     vdW  Elec       q    Type
REMARK                         _______ _______ _______ _____ _____    ______ ____
ROOT
ATOM      1  H   UNK    1        5.310 -11.232   0.000  0.00  0.00    +0.000 HD
ENDROOT
TORSDOF 0
REMARK  Name = molecules/TZIRZGBAFTZREM-MKAGXXMWSA-N.pdb
REMARK                            x       y       z     vdW  Elec       q    Type
REMARK                         _______ _______ _______ _____ _____    ______ ____
ROOT
ATOM      1  H   UNK    1        4.501  -9.302   0.000  0.00  0.00    +0.000 HD
ENDROOT
TORSDOF 0
REMARK  Name = molecules/TZIRZGBAFTZREM-MKAGXXMWSA-N.pdb
REMARK                            x       y       z     vdW  Elec       q    Type
REMARK                         _______ _______ _______ _____ _____    ______ ____
ROOT
ATOM      1  H   UNK    1        0.528 -15.364   0.000  0.00  0.00    +0.000 HD
ENDROOT
TORSDOF 0
REMARK  Name = molecules/TZIRZGBAFTZREM-MKAGXXMWSA-N.pdb
REMARK                            x       y       z     vdW  Elec       q    Type
REMARK                         _______ _______ _______ _____ _____    ______ ____
ROOT
ATOM      1  H   UNK    1        1.969 -16.539   0.000  0.00  0.00    +0.000 HD
ENDROOT
TORSDOF 0
REMARK  Name = molecules/TZIRZGBAFTZREM-MKAGXXMWSA-N.pdb
REMARK                            x       y       z     vdW  Elec       q    Type
REMARK                         _______ _______ _______ _____ _____    ______ ____
ROOT
ATOM      1  H   UNK    1       -5.300 -19.319   0.000  0.00  0.00    +0.000 HD
ENDROOT
TORSDOF 0
REMARK  Name = molecules/TZIRZGBAFTZREM-MKAGXXMWSA-N.pdb
REMARK                            x       y       z     vdW  Elec       q    Type
REMARK                         _______ _______ _______ _____ _____    ______ ____
ROOT
ATOM      1  H   UNK    1       -6.202 -14.810   0.000  0.00  0.00    +0.000 HD
ENDROOT
TORSDOF 0
REMARK  Name = molecules/TZIRZGBAFTZREM-MKAGXXMWSA-N.pdb
REMARK                            x       y       z     vdW  Elec       q    Type
REMARK                         _______ _______ _______ _____ _____    ______ ____
ROOT
ATOM      1  H   UNK    1       -4.371 -11.514   0.000  0.00  0.00    +0.000 HD
ENDROOT
TORSDOF 0
REMARK  Name = molecules/TZIRZGBAFTZREM-MKAGXXMWSA-N.pdb
REMARK                            x       y       z     vdW  Elec       q    Type
REMARK                         _______ _______ _______ _____ _____    ______ ____
ROOT
ATOM      1  H   UNK    1       -7.303 -10.997   0.000  0.00  0.00    +0.000 HD
ENDROOT
TORSDOF 0
REMARK  Name = molecules/TZIRZGBAFTZREM-MKAGXXMWSA-N.pdb
REMARK                            x       y       z     vdW  Elec       q    Type
REMARK                         _______ _______ _______ _____ _____    ______ ____
ROOT
ATOM      1  H   UNK    1       -8.690  -5.712   0.000  0.00  0.00    +0.000 HD
ENDROOT
TORSDOF 0
REMARK  Name = molecules/TZIRZGBAFTZREM-MKAGXXMWSA-N.pdb
REMARK                            x       y       z     vdW  Elec       q    Type
REMARK                         _______ _______ _______ _____ _____    ______ ____
ROOT
ATOM      1  H   UNK    1      -10.583  -5.769   0.000  0.00  0.00    +0.000 HD
ENDROOT
TORSDOF 0
REMARK  Name = molecules/TZIRZGBAFTZREM-MKAGXXMWSA-N.pdb
REMARK                            x       y       z     vdW  Elec       q    Type
REMARK                         _______ _______ _______ _____ _____    ______ ____
ROOT
ATOM      1  H   UNK    1       -6.217 -12.302   0.000  0.00  0.00    +0.000 HD
ENDROOT
TORSDOF 0
REMARK  Name = molecules/TZIRZGBAFTZREM-MKAGXXMWSA-N.pdb
REMARK                            x       y       z     vdW  Elec       q    Type
REMARK                         _______ _______ _______ _____ _____    ______ ____
ROOT
ATOM      1  H   UNK    1       -1.757  -8.470   0.000  0.00  0.00    +0.000 HD
ENDROOT
TORSDOF 0
REMARK  Name = molecules/TZIRZGBAFTZREM-MKAGXXMWSA-N.pdb
REMARK                            x       y       z     vdW  Elec       q    Type
REMARK                         _______ _______ _______ _____ _____    ______ ____
ROOT
ATOM      1  H   UNK    1       -4.062  -1.293   0.000  0.00  0.00    +0.000 HD
ENDROOT
TORSDOF 0
REMARK  Name = molecules/TZIRZGBAFTZREM-MKAGXXMWSA-N.pdb
REMARK                            x       y       z     vdW  Elec       q    Type
REMARK                         _______ _______ _______ _____ _____    ______ ____
ROOT
ATOM      1  H   UNK    1       -6.832  -2.009   0.000  0.00  0.00    +0.000 HD
ENDROOT
TORSDOF 0
REMARK  Name = molecules/TZIRZGBAFTZREM-MKAGXXMWSA-N.pdb
REMARK                            x       y       z     vdW  Elec       q    Type
REMARK                         _______ _______ _______ _____ _____    ______ ____
ROOT
ATOM      1  H   UNK    1       -6.278   4.721   0.000  0.00  0.00    +0.000 HD
ENDROOT
TORSDOF 0
REMARK  Name = molecules/TZIRZGBAFTZREM-MKAGXXMWSA-N.pdb
REMARK                            x       y       z     vdW  Elec       q    Type
REMARK                         _______ _______ _______ _____ _____    ______ ____
ROOT
ATOM      1  H   UNK    1       -6.909  -3.690   0.000  0.00  0.00    +0.000 HD
ENDROOT
TORSDOF 0
