REMARK  Name = molecules/TZIZWYVVGLXXFV-FLRHRWPCSA-N.pdb
REMARK                            x       y       z     vdW  Elec       q    Type
REMARK                         _______ _______ _______ _____ _____    ______ ____
ROOT
ATOM      1  C   LIG    1       -5.320   1.135  -1.126  0.00  0.00    -0.009 C 
ATOM      2  C   LIG    1       -4.391   1.431  -0.043  0.00  0.00    +0.044 C 
ATOM      3  C   LIG    1       -5.051   1.465   1.262  0.00  0.00    -0.053 C 
ATOM      4  C   LIG    1       -4.204   1.685   2.499  0.00  0.00    +0.032 C 
ATOM      5  C   LIG    1       -3.276   0.469   2.478  0.00  0.00    +0.011 C 
ATOM      6  C   LIG    1       -2.430   0.559   1.255  0.00  0.00    +0.034 C 
ATOM      7  C   LIG    1       -1.469  -0.577   1.127  0.00  0.00    +0.007 C 
ATOM      8  C   LIG    1       -0.759  -1.054   2.317  0.00  0.00    +0.039 C 
ATOM      9  C   LIG    1        0.170  -2.084   1.640  0.00  0.00    +0.162 C 
ATOM     10  O   LIG    1       -0.657  -3.161   1.336  0.00  0.00    -0.343 OA
ATOM     11  C   LIG    1       -0.485  -3.498   0.020  0.00  0.00    +0.166 C 
ATOM     12  C   LIG    1        0.475  -4.676  -0.081  0.00  0.00    +0.074 C 
ATOM     13  C   LIG    1       -1.775  -3.974  -0.654  0.00  0.00    +0.074 C 
ATOM     14  O   LIG    1       -0.028  -2.393  -0.661  0.00  0.00    -0.332 OA
ATOM     15  C   LIG    1        0.481  -1.492   0.275  0.00  0.00    +0.165 C 
ATOM     16  C   LIG    1       -0.354  -0.241   0.162  0.00  0.00    +0.012 C 
ATOM     17  C   LIG    1        0.437   0.950   0.568  0.00  0.00    +0.015 C 
ATOM     18  C   LIG    1       -1.036  -0.100  -1.166  0.00  0.00    +0.044 C 
ATOM     19  C   LIG    1       -2.233   0.783  -1.162  0.00  0.00    +0.154 C 
ATOM     20  C   LIG    1       -6.327   1.264   1.413  0.00  0.00    +0.051 C 
ATOM     21  C   LIG    1       -7.234   0.978   0.307  0.00  0.00    +0.179 C 
ATOM     22  O   LIG    1       -8.463   0.788   0.468  0.00  0.00    -0.288 OA
ATOM     23  C   LIG    1       -3.221   0.504  -0.063  0.00  0.00    +0.153 C 
ATOM     24  F   LIG    1       -3.642  -0.803  -0.210  0.00  0.00    -0.238 F 
ATOM     25  C   LIG    1       -3.941   2.892  -0.289  0.00  0.00    +0.023 C 
ATOM     26  C   LIG    1       -6.627   0.923  -1.014  0.00  0.00    +0.047 C 
ENDROOT
BRANCH  15  27
ATOM     27  C   LIG    1        1.925  -1.306   0.166  0.00  0.00    +0.205 C 
ATOM     28  O   LIG    1        2.495  -0.584   0.964  0.00  0.00    -0.291 OA
BRANCH  27  29
ATOM     29  C   LIG    1        2.799  -1.939  -0.866  0.00  0.00    +0.309 C 
BRANCH  29  30
ATOM     30  O   LIG    1        4.141  -1.572  -0.734  0.00  0.00    -0.457 OA
BRANCH  30  31
ATOM     31  C   LIG    1        4.645  -0.299  -0.806  0.00  0.00    +0.308 C 
ATOM     32  O   LIG    1        3.865   0.640  -1.006  0.00  0.00    -0.251 OA
BRANCH  31  33
ATOM     33  C   LIG    1        6.096  -0.082  -0.644  0.00  0.00    +0.126 C 
BRANCH  33  34
ATOM     34  C   LIG    1        6.490   1.361  -0.749  0.00  0.00    -0.028 C 
ATOM     35  C   LIG    1        5.877   2.239   0.292  0.00  0.00    +0.011 C 
ATOM     36  C   LIG    1        8.012   1.413  -0.560  0.00  0.00    +0.011 C 
ATOM     37  C   LIG    1        6.226   1.932  -2.125  0.00  0.00    +0.011 C 
ENDBRANCH  33  34
ENDBRANCH  31  33
ENDBRANCH  30  31
ENDBRANCH  29  30
ENDBRANCH  27  29
ENDBRANCH  15  27
BRANCH  19  38
ATOM     38  O   LIG    1       -1.768   2.101  -1.122  0.00  0.00    -0.389 OA
ATOM     39  H   LIG    1       -1.528   2.435  -2.022  0.00  0.00    +0.210 HD
ENDBRANCH  19  38
TORSDOF 7
