REMARK  Name = molecules/TZRHLKRLEZJVIJ-UHFFFAOYSA-N.pdb
REMARK                            x       y       z     vdW  Elec       q    Type
REMARK                         _______ _______ _______ _____ _____    ______ ____
ROOT
ATOM      1  C   LIG    1       -1.555   1.540  -0.280  0.00  0.00    -0.012 A 
ATOM      2  C   LIG    1       -1.030   1.066   0.897  0.00  0.00    +0.010 A 
ATOM      3  C   LIG    1        0.349   1.008   1.112  0.00  0.00    +0.029 A 
ATOM      4  C   LIG    1        1.206   1.431   0.134  0.00  0.00    +0.109 A 
ATOM      5  C   LIG    1        0.708   1.906  -1.048  0.00  0.00    +0.029 A 
ATOM      6  C   LIG    1       -0.662   1.956  -1.241  0.00  0.00    +0.010 A 
ENDROOT
BRANCH   1   9
ATOM      7  C   LIG    1       -3.290   4.080  -0.860  0.00  0.00    +0.090 C 
ATOM      8  C   LIG    1       -3.774   2.683  -0.700  0.00  0.00    +0.142 A 
ATOM      9  C   LIG    1       -2.995   1.569  -0.442  0.00  0.00    +0.052 A 
ATOM     10  C   LIG    1       -3.826   0.474  -0.367  0.00  0.00    +0.121 A 
ATOM     11  N   LIG    1       -5.066   0.962  -0.582  0.00  0.00    -0.077 NA
ATOM     12  O   LIG    1       -5.015   2.240  -0.772  0.00  0.00    -0.359 OA
BRANCH  10  13
ATOM     13  C   LIG    1       -3.397  -0.893  -0.106  0.00  0.00    +0.004 A 
ATOM     14  C   LIG    1       -3.890  -1.550   1.001  0.00  0.00    +0.010 A 
ATOM     15  C   LIG    1       -3.529  -2.848   1.316  0.00  0.00    +0.001 A 
ATOM     16  C   LIG    1       -2.644  -3.492   0.480  0.00  0.00    +0.000 A 
ATOM     17  C   LIG    1       -2.142  -2.857  -0.626  0.00  0.00    +0.001 A 
ATOM     18  C   LIG    1       -2.513  -1.556  -0.927  0.00  0.00    +0.010 A 
ENDBRANCH  10  13
ENDBRANCH   1   9
BRANCH   4  19
ATOM     19  S   LIG    1        2.920   1.374   0.359  0.00  0.00    +0.074 S 
ATOM     20  O   LIG    1        3.267   1.497   1.830  0.00  0.00    -0.150 OA
ATOM     21  O   LIG    1        3.642   2.488  -0.342  0.00  0.00    -0.150 OA
BRANCH  19  22
ATOM     22  N   LIG    1        3.591  -0.114  -0.212  0.00  0.00    -0.185 N 
ATOM     23  C   LIG    1        4.632  -0.772   0.480  0.00  0.00    +0.232 C 
ATOM     24  O   LIG    1        5.076  -0.261   1.534  0.00  0.00    -0.274 OA
ATOM     25  H   LIG    1        3.232  -0.565  -1.100  0.00  0.00    +0.177 HD
BRANCH  23  26
ATOM     26  C   LIG    1        5.220  -2.042   0.011  0.00  0.00    +0.094 C 
ATOM     27  C   LIG    1        6.301  -2.517   0.922  0.00  0.00    +0.013 C 
ENDBRANCH  23  26
ENDBRANCH  19  22
ENDBRANCH   4  19
TORSDOF 5
