REMARK  Name = molecules/TZWKUQDQKPYNLL-UHFFFAOYSA-N.pdb
REMARK                            x       y       z     vdW  Elec       q    Type
REMARK                         _______ _______ _______ _____ _____    ______ ____
ROOT
ATOM      1  C   LIG    1       -0.054  -1.148  -0.180  0.00  0.00    +0.036 C 
ATOM      2  C   LIG    1        0.880  -2.365  -0.144  0.00  0.00    +0.032 C 
ATOM      3  C   LIG    1       -0.263  -0.833  -1.654  0.00  0.00    +0.032 C 
ENDROOT
BRANCH   1   4
ATOM      4  N   LIG    1        0.639  -0.092   0.498  0.00  0.00    -0.276 N 
ATOM      5  H   LIG    1        0.183   0.343   1.315  0.00  0.00    +0.153 HD
ATOM      6  C   LIG    1        1.933   0.333   0.038  0.00  0.00    +0.401 C 
ATOM      7  O   LIG    1        2.522  -0.168  -0.946  0.00  0.00    -0.226 OA
BRANCH   6   8
ATOM      8  O   LIG    1        2.569   1.359   0.721  0.00  0.00    -0.451 OA
BRANCH   8   9
ATOM      9  C   LIG    1        3.835   1.803   0.302  0.00  0.00    +0.230 C 
ATOM     10  C   LIG    1        4.887   0.738   0.329  0.00  0.00    +0.048 C 
ENDBRANCH   8   9
ENDBRANCH   6   8
ENDBRANCH   1   4
BRANCH   1  11
ATOM     11  C   LIG    1       -1.378  -1.482   0.419  0.00  0.00    +0.060 C 
BRANCH  11  12
ATOM     12  C   LIG    1       -2.353  -0.377   0.446  0.00  0.00    -0.045 A 
ATOM     13  C   LIG    1       -2.515   0.491   1.507  0.00  0.00    +0.005 A 
ATOM     14  C   LIG    1       -3.448   1.516   1.504  0.00  0.00    +0.020 A 
ATOM     15  C   LIG    1       -4.263   1.689   0.391  0.00  0.00    +0.041 A 
ATOM     16 CL   LIG    1       -5.442   2.961   0.350  0.00  0.00    -0.084 Cl
ATOM     17  C   LIG    1       -4.117   0.830  -0.683  0.00  0.00    +0.020 A 
ATOM     18  C   LIG    1       -3.170  -0.185  -0.642  0.00  0.00    +0.005 A 
ENDBRANCH  11  12
ENDBRANCH   1  11
TORSDOF 5
