REMARK  Name = molecules/UACOQEQOBAQRDQ-UHFFFAOYSA-N.pdb
REMARK                            x       y       z     vdW  Elec       q    Type
REMARK                         _______ _______ _______ _____ _____    ______ ____
ROOT
ATOM      1  C   LIG    1        0.986   0.330   0.233  0.00  0.00    +0.106 A 
ATOM      2  C   LIG    1        1.752  -0.709   0.710  0.00  0.00    +0.029 A 
ATOM      3  C   LIG    1        2.997  -1.014   0.202  0.00  0.00    +0.017 A 
ATOM      4  C   LIG    1        3.532  -0.271  -0.828  0.00  0.00    +0.059 A 
ATOM      5  C   LIG    1        2.751   0.782  -1.307  0.00  0.00    +0.017 A 
ATOM      6  C   LIG    1        1.508   1.078  -0.792  0.00  0.00    +0.029 A 
ENDROOT
BRANCH   1   7
ATOM      7  S   LIG    1       -0.560   0.610   0.955  0.00  0.00    +0.061 S 
ATOM      8  O   LIG    1       -0.561   0.298   2.432  0.00  0.00    -0.153 OA
ATOM      9  O   LIG    1       -0.874   2.074   0.827  0.00  0.00    -0.153 OA
BRANCH   7  10
ATOM     10  N   LIG    1       -1.819  -0.269   0.181  0.00  0.00    -0.177 NA
BRANCH  10  11
ATOM     11  C   LIG    1       -3.070  -0.178   0.859  0.00  0.00    +0.106 C 
ATOM     12  C   LIG    1       -3.266  -1.266   1.891  0.00  0.00    +0.022 C 
ENDBRANCH  10  11
BRANCH  10  13
ATOM     13  C   LIG    1       -1.909   0.159  -1.178  0.00  0.00    +0.106 C 
ATOM     14  C   LIG    1       -2.848   1.310  -1.404  0.00  0.00    +0.022 C 
ENDBRANCH  10  13
ENDBRANCH   7  10
ENDBRANCH   1   7
BRANCH   4  15
ATOM     15  C   LIG    1        4.844  -0.558  -1.394  0.00  0.00    +0.337 C 
ATOM     16  O   LIG    1        5.364   0.093  -2.328  0.00  0.00    -0.245 OA
BRANCH  15  17
ATOM     17  O   LIG    1        5.558  -1.619  -0.865  0.00  0.00    -0.477 OA
ATOM     18  H   LIG    1        6.064  -1.476   0.000  0.00  0.00    +0.295 HD
ENDBRANCH  15  17
ENDBRANCH   4  15
TORSDOF 6
