REMARK  Name = molecules/UAUIUKWPKRJZJV-QPLHLKROSA-N.pdb
REMARK                            x       y       z     vdW  Elec       q    Type
REMARK                         _______ _______ _______ _____ _____    ______ ____
ROOT
ATOM      1  C   LIG    1        0.792  -0.685  -1.156  0.00  0.00    +0.234 C 
ATOM      2  C   LIG    1       -0.142  -0.354  -0.103  0.00  0.00    +0.166 C 
ATOM      3  C   LIG    1       -1.249  -1.447  -0.217  0.00  0.00    +0.078 C 
ATOM      4  C   LIG    1       -2.519  -0.768   0.182  0.00  0.00    +0.195 C 
ATOM      5  C   LIG    1       -2.019   0.597   0.659  0.00  0.00    +0.153 C 
ATOM      6  N   LIG    1       -0.935   0.847  -0.336  0.00  0.00    -0.285 N 
ATOM      7  C   LIG    1       -0.748   1.895  -1.229  0.00  0.00    +0.237 C 
ATOM      8  C   LIG    1        0.270   2.897  -1.443  0.00  0.00    +0.159 C 
ATOM      9  C   LIG    1        1.671   2.687  -1.040  0.00  0.00    +0.032 C 
ATOM     10  C   LIG    1        2.536   2.647  -2.303  0.00  0.00    +0.002 C 
ATOM     11  C   LIG    1        3.911   3.198  -2.100  0.00  0.00    +0.000 C 
ATOM     12  C   LIG    1        4.778   2.493  -1.133  0.00  0.00    +0.004 C 
ATOM     13  C   LIG    1        5.472   1.247  -1.687  0.00  0.00    +0.027 C 
ATOM     14  C   LIG    1        5.987   0.406  -0.568  0.00  0.00    -0.031 C 
ATOM     15  C   LIG    1        5.188  -0.445   0.127  0.00  0.00    -0.025 C 
ATOM     16  C   LIG    1        3.796  -0.529  -0.248  0.00  0.00    +0.046 C 
ATOM     17  C   LIG    1        2.897  -0.693   0.999  0.00  0.00    +0.046 C 
ATOM     18  C   LIG    1        2.932  -1.655  -0.117  0.00  0.00    +0.119 C 
ATOM     19  O   LIG    1       -1.738   2.005  -2.088  0.00  0.00    -0.274 OA
ATOM     20  N   LIG    1        1.829  -1.569  -1.067  0.00  0.00    -0.299 N 
ATOM     21  H   LIG    1        1.895  -2.353  -1.818  0.00  0.00    +0.150 HD
ATOM     22  O   LIG    1        0.575  -0.052  -2.281  0.00  0.00    -0.274 OA
ENDROOT
BRANCH   8  23
ATOM     23  N   LIG    1       -0.202   4.087  -0.687  0.00  0.00    -0.299 N 
ATOM     24  H   LIG    1       -0.212   3.912   0.347  0.00  0.00    +0.150 HD
ATOM     25  C   LIG    1       -0.583   5.285  -1.278  0.00  0.00    +0.264 C 
ATOM     26  O   LIG    1       -0.539   5.397  -2.528  0.00  0.00    -0.268 OA
BRANCH  25  27
ATOM     27  C   LIG    1       -1.028   6.400  -0.475  0.00  0.00    +0.143 A 
ATOM     28  C   LIG    1       -1.082   6.336   0.896  0.00  0.00    +0.144 A 
ATOM     29  N   LIG    1       -1.501   7.392   1.639  0.00  0.00    -0.256 NA
ATOM     30  C   LIG    1       -1.872   8.525   1.042  0.00  0.00    +0.056 A 
ATOM     31  C   LIG    1       -2.327   9.668   1.875  0.00  0.00    +0.067 C 
ATOM     32  C   LIG    1       -1.828   8.620  -0.331  0.00  0.00    +0.134 A 
ATOM     33  N   LIG    1       -1.414   7.572  -1.047  0.00  0.00    -0.247 NA
ENDBRANCH  25  27
ENDBRANCH   8  23
BRANCH  18  34
ATOM     34  C   LIG    1        3.244  -3.044   0.325  0.00  0.00    +0.256 C 
ATOM     35  O   LIG    1        2.262  -3.821   0.646  0.00  0.00    -0.272 OA
ATOM     36  N   LIG    1        4.533  -3.539   0.403  0.00  0.00    -0.188 N 
ATOM     37  H   LIG    1        5.360  -2.993   0.125  0.00  0.00    +0.176 HD
BRANCH  36  38
ATOM     38  S   LIG    1        4.793  -5.168   0.945  0.00  0.00    +0.048 S 
ATOM     39  O   LIG    1        5.269  -5.186   2.360  0.00  0.00    -0.155 OA
ATOM     40  O   LIG    1        3.502  -5.899   0.829  0.00  0.00    -0.155 OA
BRANCH  38  41
ATOM     41  C   LIG    1        6.058  -5.875  -0.077  0.00  0.00    +0.151 C 
ATOM     42  C   LIG    1        6.871  -7.006   0.599  0.00  0.00    +0.030 C 
ATOM     43  C   LIG    1        7.466  -5.661   0.367  0.00  0.00    +0.030 C 
ENDBRANCH  38  41
ENDBRANCH  36  38
ENDBRANCH  18  34
BRANCH   4  44
ATOM     44  O   LIG    1       -3.173  -1.497   1.190  0.00  0.00    -0.471 OA
BRANCH  44  45
ATOM     45  C   LIG    1       -4.406  -2.070   0.887  0.00  0.00    +0.224 A 
ATOM     46  C   LIG    1       -5.085  -2.770   1.860  0.00  0.00    +0.044 A 
ATOM     47  C   LIG    1       -4.521  -2.883   3.115  0.00  0.00    +0.014 A 
ATOM     48  C   LIG    1       -5.197  -3.580   4.088  0.00  0.00    +0.001 A 
ATOM     49  C   LIG    1       -6.411  -4.157   3.828  0.00  0.00    +0.001 A 
ATOM     50  C   LIG    1       -6.987  -4.049   2.566  0.00  0.00    +0.009 A 
ATOM     51  C   LIG    1       -6.329  -3.361   1.591  0.00  0.00    -0.004 A 
ATOM     52  C   LIG    1       -6.887  -3.242   0.334  0.00  0.00    +0.008 A 
ATOM     53  C   LIG    1       -8.099  -3.802   0.010  0.00  0.00    +0.010 A 
ATOM     54  C   LIG    1       -8.578  -3.635  -1.274  0.00  0.00    +0.001 A 
ATOM     55  C   LIG    1       -7.897  -2.932  -2.252  0.00  0.00    +0.002 A 
ATOM     56  C   LIG    1       -6.685  -2.388  -1.883  0.00  0.00    +0.028 A 
ATOM     57  C   LIG    1       -6.157  -2.522  -0.616  0.00  0.00    +0.075 A 
ATOM     58  N   LIG    1       -4.968  -1.968  -0.325  0.00  0.00    -0.212 NA
ENDBRANCH  44  45
ENDBRANCH   4  44
TORSDOF 7
