REMARK  Name = molecules/UAXYBJSAPFTPNB-AWEZNQCLSA-N.pdb
REMARK                            x       y       z     vdW  Elec       q    Type
REMARK                         _______ _______ _______ _____ _____    ______ ____
ROOT
ATOM      1  O   LIG    1        0.834   0.194   2.494  0.00  0.00    -0.273 OA
ATOM      2  C   LIG    1        0.537   0.252   1.267  0.00  0.00    +0.248 C 
ATOM      3  N   LIG    1       -0.640  -0.293   0.697  0.00  0.00    -0.264 N 
ATOM      4  C   LIG    1       -1.082   0.425  -0.420  0.00  0.00    +0.079 C 
ATOM      5  C   LIG    1       -2.165   0.885  -0.917  0.00  0.00    +0.122 C 
ATOM      6  S   LIG    1        0.527   0.835  -1.263  0.00  0.00    -0.081 S 
ATOM      7  C   LIG    1        1.422   0.909   0.315  0.00  0.00    +0.208 C 
ENDROOT
BRANCH   7   8
ATOM      8  N   LIG    1        2.718   0.364   0.149  0.00  0.00    -0.283 NA
ATOM      9  C   LIG    1        3.576   0.371   1.284  0.00  0.00    +0.086 C 
ATOM     10  C   LIG    1        5.020   0.345   0.820  0.00  0.00    +0.015 C 
ATOM     11  C   LIG    1        5.257  -0.676  -0.245  0.00  0.00    +0.002 C 
ATOM     12  C   LIG    1        4.220  -0.703  -1.328  0.00  0.00    +0.015 C 
ATOM     13  C   LIG    1        2.840  -0.800  -0.662  0.00  0.00    +0.086 C 
ENDBRANCH   7   8
BRANCH   3  14
ATOM     14  C   LIG    1       -1.271  -1.463   1.243  0.00  0.00    +0.111 C 
ATOM     15  C   LIG    1       -0.737  -2.780   0.686  0.00  0.00    +0.025 C 
ENDBRANCH   3  14
BRANCH   5  16
ATOM     16  C   LIG    1       -3.521   0.842  -0.454  0.00  0.00    +0.334 C 
ATOM     17  O   LIG    1       -3.868   0.319   0.618  0.00  0.00    -0.246 OA
BRANCH  16  18
ATOM     18  O   LIG    1       -4.572   1.407  -1.202  0.00  0.00    -0.462 OA
BRANCH  18  19
ATOM     19  C   LIG    1       -5.891   1.343  -0.700  0.00  0.00    +0.229 C 
ATOM     20  C   LIG    1       -6.844   2.021  -1.676  0.00  0.00    +0.048 C 
ENDBRANCH  18  19
ENDBRANCH  16  18
ENDBRANCH   5  16
TORSDOF 5
