REMARK  Name = molecules/UBCHPRBFMUDMNC-RMPHRYRLSA-N.pdb
REMARK                            x       y       z     vdW  Elec       q    Type
REMARK                         _______ _______ _______ _____ _____    ______ ____
ROOT
ATOM      1  C   LIG    1        0.205   0.222   1.368  0.00  0.00    +0.012 C 
ATOM      2  C   LIG    1       -1.286  -0.037   1.503  0.00  0.00    -0.010 C 
ATOM      3  C   LIG    1       -1.570  -1.374   0.890  0.00  0.00    +0.007 C 
ATOM      4  C   LIG    1       -1.272  -1.312  -0.581  0.00  0.00    -0.010 C 
ATOM      5  C   LIG    1        0.201  -1.080  -0.782  0.00  0.00    +0.012 C 
ATOM      6  C   LIG    1       -2.025  -0.204  -1.262  0.00  0.00    +0.007 C 
ATOM      7  C   LIG    1       -1.589   1.112  -0.671  0.00  0.00    -0.010 C 
ATOM      8  C   LIG    1       -0.102   1.332  -0.773  0.00  0.00    +0.012 C 
ATOM      9  C   LIG    1       -2.001   1.087   0.789  0.00  0.00    +0.007 C 
ATOM     10  C   LIG    1        0.602   0.170  -0.074  0.00  0.00    -0.014 C 
ENDROOT
BRANCH  10  11
ATOM     11  C   LIG    1        2.092   0.434  -0.152  0.00  0.00    +0.054 C 
ATOM     12  C   LIG    1        2.796  -0.530   0.750  0.00  0.00    +0.024 C 
BRANCH  11  13
ATOM     13  N   LIG    1        2.540   0.398  -1.518  0.00  0.00    -0.327 NA
ATOM     14  H   LIG    1        3.331  -0.284  -1.627  0.00  0.00    +0.118 HD
ATOM     15  H   LIG    1        2.793   1.354  -1.881  0.00  0.00    +0.118 HD
ENDBRANCH  11  13
ENDBRANCH  10  11
TORSDOF 2
