REMARK  Name = molecules/UBDWKOZBPSKHMO-RNPORBBMSA-N.pdb
REMARK                            x       y       z     vdW  Elec       q    Type
REMARK                         _______ _______ _______ _____ _____    ______ ____
ROOT
ATOM      1  C   LIG    1        0.032   3.168   0.099  0.00  0.00    +0.026 C 
ENDROOT
BRANCH   1   2
ATOM      2  C   LIG    1       -1.067   2.413  -0.513  0.00  0.00    -0.043 A 
ATOM      3  C   LIG    1       -2.375   2.553  -0.125  0.00  0.00    +0.007 A 
ATOM      4  C   LIG    1       -3.406   1.840  -0.714  0.00  0.00    +0.046 A 
ATOM      5  C   LIG    1       -3.171   0.944  -1.730  0.00  0.00    +0.121 A 
ATOM      6  C   LIG    1       -1.831   0.796  -2.131  0.00  0.00    +0.046 A 
ATOM      7  C   LIG    1       -0.833   1.513  -1.532  0.00  0.00    +0.007 A 
BRANCH   5   8
ATOM      8  O   LIG    1       -4.133   0.208  -2.356  0.00  0.00    -0.491 OA
BRANCH   8   9
ATOM      9  C   LIG    1       -5.487   0.115  -2.197  0.00  0.00    +0.244 C 
BRANCH   9  10
ATOM     10  C   LIG    1       -6.022  -0.386  -0.902  0.00  0.00    +0.125 C 
BRANCH  10  11
ATOM     11  N   LIG    1       -5.587  -1.730  -0.568  0.00  0.00    -0.300 NA
BRANCH  11  12
ATOM     12  C   LIG    1       -5.912  -2.647  -1.628  0.00  0.00    +0.081 C 
ATOM     13  C   LIG    1       -5.485  -4.054  -1.269  0.00  0.00    +0.020 C 
ENDBRANCH  11  12
BRANCH  11  14
ATOM     14  C   LIG    1       -6.157  -2.113   0.698  0.00  0.00    +0.081 C 
ATOM     15  C   LIG    1       -5.613  -1.348   1.857  0.00  0.00    +0.020 C 
ENDBRANCH  11  14
ENDBRANCH  10  11
ENDBRANCH   9  10
ENDBRANCH   8   9
ENDBRANCH   5   8
ENDBRANCH   1   2
BRANCH   1  16
ATOM     16  C   LIG    1       -0.332   4.631   0.238  0.00  0.00    +0.005 C 
ATOM     17  C   LIG    1       -0.829   5.150  -1.090  0.00  0.00    +0.004 C 
ENDBRANCH   1  16
BRANCH   1  18
ATOM     18  C   LIG    1        0.534   2.614   1.412  0.00  0.00    +0.026 C 
BRANCH  18  19
ATOM     19  C   LIG    1        1.145   1.283   1.196  0.00  0.00    -0.043 A 
ATOM     20  C   LIG    1        2.515   1.182   1.137  0.00  0.00    +0.007 A 
ATOM     21  C   LIG    1        3.124  -0.040   0.928  0.00  0.00    +0.046 A 
ATOM     22  C   LIG    1        2.410  -1.227   0.767  0.00  0.00    +0.121 A 
ATOM     23  C   LIG    1        1.001  -1.080   0.834  0.00  0.00    +0.046 A 
ATOM     24  C   LIG    1        0.425   0.138   1.041  0.00  0.00    +0.007 A 
BRANCH  22  25
ATOM     25  O   LIG    1        2.971  -2.391   0.570  0.00  0.00    -0.491 OA
BRANCH  25  26
ATOM     26  C   LIG    1        4.018  -3.181   0.408  0.00  0.00    +0.244 C 
BRANCH  26  27
ATOM     27  C   LIG    1        4.950  -2.986  -0.745  0.00  0.00    +0.125 C 
BRANCH  27  28
ATOM     28  N   LIG    1        5.585  -1.711  -0.750  0.00  0.00    -0.300 NA
BRANCH  28  29
ATOM     29  C   LIG    1        6.342  -1.514  -1.999  0.00  0.00    +0.081 C 
ATOM     30  C   LIG    1        7.523  -2.412  -2.122  0.00  0.00    +0.020 C 
ENDBRANCH  28  29
BRANCH  28  31
ATOM     31  C   LIG    1        6.512  -1.555   0.375  0.00  0.00    +0.081 C 
ATOM     32  C   LIG    1        7.072  -0.143   0.271  0.00  0.00    +0.020 C 
ENDBRANCH  28  31
ENDBRANCH  27  28
ENDBRANCH  26  27
ENDBRANCH  25  26
ENDBRANCH  22  25
ENDBRANCH  18  19
BRANCH  18  33
ATOM     33  C   LIG    1       -0.437   2.680   2.538  0.00  0.00    +0.005 C 
ATOM     34  C   LIG    1        0.234   2.089   3.778  0.00  0.00    +0.004 C 
ENDBRANCH  18  33
ENDBRANCH   1  18
TORSDOF 17
