REMARK  Name = molecules/UBPYILGKFZZVDX-UHFFFAOYSA-N.pdb
REMARK                            x       y       z     vdW  Elec       q    Type
REMARK                         _______ _______ _______ _____ _____    ______ ____
ROOT
ATOM      1  C   LIG    1       -3.233  -1.514  -2.268  0.00  0.00    +0.060 A 
ATOM      2  C   LIG    1       -2.283  -1.516  -1.272  0.00  0.00    +0.026 A 
ATOM      3  C   LIG    1       -2.680  -1.459   0.053  0.00  0.00    +0.061 A 
ATOM      4  C   LIG    1       -1.738  -1.445   1.063  0.00  0.00    +0.162 A 
ATOM      5  C   LIG    1       -0.408  -1.490   0.720  0.00  0.00    +0.164 A 
ATOM      6  C   LIG    1        0.029  -1.549  -0.583  0.00  0.00    +0.077 A 
ATOM      7  C   LIG    1       -0.916  -1.561  -1.569  0.00  0.00    +0.077 A 
ATOM      8  N   LIG    1       -0.538  -1.605  -2.850  0.00  0.00    -0.253 NA
ATOM      9  C   LIG    1       -1.436  -1.606  -3.835  0.00  0.00    +0.132 A 
ATOM     10  C   LIG    1       -2.808  -1.560  -3.565  0.00  0.00    +0.091 A 
ENDROOT
BRANCH   1  11
ATOM     11  N   LIG    1       -4.615  -1.438  -1.969  0.00  0.00    -0.312 N 
ATOM     12  H   LIG    1       -5.155  -2.304  -1.868  0.00  0.00    +0.152 HD
BRANCH  11  13
ATOM     13  C   LIG    1       -5.280  -0.182  -1.796  0.00  0.00    +0.053 A 
ATOM     14  C   LIG    1       -6.631  -0.056  -1.624  0.00  0.00    +0.064 A 
ATOM     15  C   LIG    1       -7.189   1.193  -1.432  0.00  0.00    +0.045 A 
ATOM     16  C   LIG    1       -6.407   2.302  -1.411  0.00  0.00    +0.084 A 
ATOM     17 CL   LIG    1       -7.078   3.915  -1.164  0.00  0.00    -0.080 Cl
ATOM     18  C   LIG    1       -5.014   2.217  -1.582  0.00  0.00    +0.140 A 
ATOM     19 CL   LIG    1       -7.626  -1.465  -1.642  0.00  0.00    -0.082 Cl
ATOM     20  C   LIG    1       -4.489   0.924  -1.776  0.00  0.00    +0.071 A 
BRANCH  18  21
ATOM     21  O   LIG    1       -4.274   3.287  -1.555  0.00  0.00    -0.494 OA
ATOM     22  C   LIG    1       -3.516   4.331  -1.534  0.00  0.00    +0.277 C 
ENDBRANCH  18  21
ENDBRANCH  11  13
ENDBRANCH   1  11
BRANCH   4  23
ATOM     23  O   LIG    1       -2.134  -1.390   2.381  0.00  0.00    -0.491 OA
ATOM     24  C   LIG    1       -3.471  -1.362   2.736  0.00  0.00    +0.277 C 
ENDBRANCH   4  23
BRANCH  10  25
ATOM     25  C   LIG    1       -3.685  -1.557  -4.688  0.00  0.00    +0.103 C 
ATOM     26  N   LIG    1       -4.385  -1.538  -5.597  0.00  0.00    -0.191 NA
ENDBRANCH  10  25
BRANCH   5  27
ATOM     27  O   LIG    1        0.539  -1.473   1.772  0.00  0.00    -0.488 OA
BRANCH  27  28
ATOM     28  C   LIG    1        1.925  -1.523   1.407  0.00  0.00    +0.230 C 
BRANCH  28  29
ATOM     29  C   LIG    1        2.838  -1.505   2.597  0.00  0.00    +0.056 C 
BRANCH  29  30
ATOM     30  C   LIG    1        4.252  -1.571   2.023  0.00  0.00    +0.088 C 
BRANCH  30  31
ATOM     31  N   LIG    1        4.423  -0.396   1.175  0.00  0.00    -0.300 NA
ATOM     32  C   LIG    1        4.330   0.804   2.007  0.00  0.00    +0.100 C 
ATOM     33  C   LIG    1        5.082   1.906   1.297  0.00  0.00    +0.099 C 
ATOM     34  N   LIG    1        6.521   1.673   1.312  0.00  0.00    -0.303 NA
ATOM     35  C   LIG    1        6.737   0.236   1.462  0.00  0.00    +0.099 C 
ATOM     36  C   LIG    1        7.064   2.046   0.001  0.00  0.00    +0.105 C 
ATOM     37  C   LIG    1        5.745  -0.515   0.590  0.00  0.00    +0.100 C 
ENDBRANCH  30  31
ENDBRANCH  29  30
ENDBRANCH  28  29
ENDBRANCH  27  28
ENDBRANCH   5  27
TORSDOF 10
