REMARK  Name = molecules/UBQNRHZMVUUOMG-UHFFFAOYSA-N.pdb
REMARK                            x       y       z     vdW  Elec       q    Type
REMARK                         _______ _______ _______ _____ _____    ______ ____
ROOT
ATOM      1  C   LIG    1        0.440  -0.086   0.237  0.00  0.00    +0.114 A 
ATOM      2  N   LIG    1        0.541  -1.339   0.687  0.00  0.00    -0.080 NA
ATOM      3  O   LIG    1       -0.627  -1.912   0.647  0.00  0.00    -0.354 OA
ATOM      4  C   LIG    1       -1.534  -1.090   0.182  0.00  0.00    +0.168 A 
ATOM      5  C   LIG    1       -2.888  -1.270  -0.031  0.00  0.00    +0.049 A 
ATOM      6  C   LIG    1       -3.610  -0.204  -0.542  0.00  0.00    +0.004 A 
ATOM      7  C   LIG    1       -2.975   0.991  -0.824  0.00  0.00    +0.001 A 
ATOM      8  C   LIG    1       -1.627   1.146  -0.604  0.00  0.00    +0.013 A 
ATOM      9  C   LIG    1       -0.886   0.097  -0.095  0.00  0.00    +0.046 A 
ENDROOT
BRANCH   1  10
ATOM     10  C   LIG    1        1.489   0.961   0.090  0.00  0.00    +0.244 C 
BRANCH  10  11
ATOM     11  S   LIG    1        3.063   0.352   0.618  0.00  0.00    +0.033 S 
ATOM     12  O   LIG    1        2.943  -0.009   2.080  0.00  0.00    -0.158 OA
ATOM     13  O   LIG    1        4.061   1.464   0.496  0.00  0.00    -0.158 OA
BRANCH  11  14
ATOM     14  N   LIG    1        3.511  -1.015  -0.337  0.00  0.00    -0.208 NA
ATOM     15  H   LIG    1        3.682  -1.856   0.288  0.00  0.00    +0.144 HD
ATOM     16  H   LIG    1        4.407  -0.780  -0.828  0.00  0.00    +0.144 HD
ENDBRANCH  11  14
ENDBRANCH  10  11
ENDBRANCH   1  10
TORSDOF 3
