REMARK  Name = molecules/UCHDWCPVSPXUMX-TZIWLTJVSA-N.pdb
REMARK                            x       y       z     vdW  Elec       q    Type
REMARK                         _______ _______ _______ _____ _____    ______ ____
ROOT
ATOM      1  C   LIG    1       -2.603  -0.290   0.512  0.00  0.00    +0.077 C 
ENDROOT
BRANCH   1   2
ATOM      2  C   LIG    1       -1.500  -0.201   1.542  0.00  0.00    -0.034 A 
ATOM      3  C   LIG    1       -1.859  -0.164   2.892  0.00  0.00    +0.005 A 
ATOM      4  C   LIG    1       -0.904  -0.093   3.895  0.00  0.00    +0.001 A 
ATOM      5  C   LIG    1        0.415  -0.059   3.504  0.00  0.00    +0.008 A 
ATOM      6  C   LIG    1        0.824  -0.091   2.182  0.00  0.00    -0.025 A 
ATOM      7  C   LIG    1       -0.170  -0.164   1.228  0.00  0.00    +0.012 A 
BRANCH   6   8
ATOM      8  C   LIG    1        2.252   0.011   1.845  0.00  0.00    +0.010 C 
ATOM      9  C   LIG    1        2.748   0.064   0.653  0.00  0.00    +0.028 C 
BRANCH   9  10
ATOM     10  C   LIG    1        4.155   0.168   0.280  0.00  0.00    +0.065 A 
ATOM     11  C   LIG    1        5.181   0.260   1.186  0.00  0.00    +0.028 A 
ATOM     12  C   LIG    1        6.501   0.395   0.856  0.00  0.00    +0.012 A 
ATOM     13  C   LIG    1        6.832   0.443  -0.505  0.00  0.00    +0.001 A 
ATOM     14  C   LIG    1        8.123   0.586  -0.919  0.00  0.00    +0.011 A 
ATOM     15  C   LIG    1        8.403   0.639  -2.264  0.00  0.00    +0.021 A 
ATOM     16  C   LIG    1        7.405   0.549  -3.219  0.00  0.00    +0.043 A 
ATOM     17  C   LIG    1        6.118   0.405  -2.766  0.00  0.00    +0.048 A 
ATOM     18 CL   LIG    1        7.763   0.624  -4.951  0.00  0.00    -0.083 Cl
ATOM     19  C   LIG    1        5.800   0.349  -1.406  0.00  0.00    +0.073 A 
ATOM     20  N   LIG    1        4.512   0.216  -1.020  0.00  0.00    -0.247 NA
ENDBRANCH   9  10
ENDBRANCH   6   8
ENDBRANCH   1   2
BRANCH   1  21
ATOM     21  S   LIG    1       -3.079  -2.118   0.684  0.00  0.00    -0.152 S 
BRANCH  21  22
ATOM     22  C   LIG    1       -1.567  -3.043   0.471  0.00  0.00    +0.077 C 
BRANCH  22  23
ATOM     23  C   LIG    1       -1.759  -4.537   0.595  0.00  0.00    -0.010 C 
ATOM     24  C   LIG    1       -1.396  -5.224   1.862  0.00  0.00    +0.009 C 
ATOM     25  C   LIG    1       -0.415  -5.336   0.717  0.00  0.00    +0.009 C 
BRANCH  23  26
ATOM     26  C   LIG    1       -2.714  -5.178  -0.379  0.00  0.00    +0.128 C 
BRANCH  26  27
ATOM     27  C   LIG    1       -2.241  -4.973  -1.752  0.00  0.00    +0.305 C 
ATOM     28  O   LIG    1       -1.878  -3.900  -2.256  0.00  0.00    -0.251 OA
BRANCH  27  29
ATOM     29  O   LIG    1       -2.197  -6.121  -2.567  0.00  0.00    -0.481 OA
ATOM     30  H   LIG    1       -1.800  -6.944  -2.141  0.00  0.00    +0.295 HD
ENDBRANCH  27  29
ENDBRANCH  26  27
ENDBRANCH  23  26
ENDBRANCH  22  23
ENDBRANCH  21  22
ENDBRANCH   1  21
BRANCH   1  31
ATOM     31  C   LIG    1       -2.162  -0.091  -0.862  0.00  0.00    +0.023 C 
BRANCH  31  32
ATOM     32  C   LIG    1       -1.788   1.228  -1.399  0.00  0.00    +0.037 C 
BRANCH  32  33
ATOM     33  C   LIG    1       -2.913   2.174  -1.394  0.00  0.00    -0.041 A 
ATOM     34  C   LIG    1       -3.107   3.227  -0.528  0.00  0.00    -0.013 A 
ATOM     35  C   LIG    1       -4.281   3.952  -0.530  0.00  0.00    +0.007 A 
ATOM     36  C   LIG    1       -5.281   3.622  -1.417  0.00  0.00    +0.000 A 
ATOM     37  C   LIG    1       -5.093   2.582  -2.282  0.00  0.00    +0.000 A 
ATOM     38  C   LIG    1       -3.939   1.840  -2.304  0.00  0.00    +0.004 A 
BRANCH  34  39
ATOM     39  C   LIG    1       -2.009   3.676   0.330  0.00  0.00    +0.086 C 
ATOM     40  C   LIG    1       -2.473   4.880   1.162  0.00  0.00    +0.046 C 
ATOM     41  C   LIG    1       -0.944   4.256  -0.605  0.00  0.00    +0.046 C 
BRANCH  39  42
ATOM     42  O   LIG    1       -1.486   2.788   1.208  0.00  0.00    -0.384 OA
ATOM     43  H   LIG    1       -1.763   2.955   2.128  0.00  0.00    +0.211 HD
ENDBRANCH  39  42
ENDBRANCH  34  39
ENDBRANCH  32  33
ENDBRANCH  31  32
ENDBRANCH   1  31
TORSDOF 14
