REMARK  Name = molecules/UCJGJABZCDBEDK-UHFFFAOYSA-N.pdb
REMARK                            x       y       z     vdW  Elec       q    Type
REMARK                         _______ _______ _______ _____ _____    ______ ____
ROOT
ATOM      1  N   LIG    1       -3.604  -1.172   0.520  0.00  0.00    -0.335 N 
ATOM      2  C   LIG    1       -4.169  -0.941   1.756  0.00  0.00    +0.050 A 
ATOM      3  C   LIG    1       -3.976  -1.520   2.997  0.00  0.00    +0.030 A 
ATOM      4  C   LIG    1       -4.706  -1.095   4.095  0.00  0.00    +0.047 A 
ATOM      5  C   LIG    1       -5.627  -0.098   3.957  0.00  0.00    +0.118 A 
ATOM      6  C   LIG    1       -5.839   0.489   2.743  0.00  0.00    +0.055 A 
ATOM      7  C   LIG    1       -5.104   0.056   1.654  0.00  0.00    +0.007 A 
ATOM      8  C   LIG    1       -5.085   0.416   0.316  0.00  0.00    -0.017 A 
ATOM      9  C   LIG    1       -6.007   1.441  -0.220  0.00  0.00    +0.046 C 
ATOM     10  C   LIG    1       -4.149  -0.354  -0.385  0.00  0.00    +0.053 A 
ENDROOT
BRANCH  10  11
ATOM     11  C   LIG    1       -3.835  -0.144  -1.800  0.00  0.00    -0.001 A 
ATOM     12  C   LIG    1       -3.861   1.161  -2.317  0.00  0.00    +0.013 A 
ATOM     13  C   LIG    1       -3.484   1.458  -3.619  0.00  0.00    +0.046 A 
ATOM     14  C   LIG    1       -3.061   0.478  -4.477  0.00  0.00    +0.117 A 
ATOM     15  C   LIG    1       -3.030  -0.802  -3.990  0.00  0.00    +0.046 A 
ATOM     16  C   LIG    1       -3.412  -1.099  -2.675  0.00  0.00    +0.013 A 
BRANCH  14  17
ATOM     17  O   LIG    1       -2.675   0.723  -5.785  0.00  0.00    -0.507 OA
ATOM     18  H   LIG    1       -3.383   0.686  -6.528  0.00  0.00    +0.292 HD
ENDBRANCH  14  17
ENDBRANCH  10  11
BRANCH   5  19
ATOM     19  O   LIG    1       -6.363   0.338   5.043  0.00  0.00    -0.507 OA
ATOM     20  H   LIG    1       -7.254  -0.049   5.318  0.00  0.00    +0.292 HD
ENDBRANCH   5  19
BRANCH   1  21
ATOM     21  C   LIG    1       -2.567  -2.145   0.368  0.00  0.00    +0.157 C 
BRANCH  21  22
ATOM     22  C   LIG    1       -1.214  -1.518   0.529  0.00  0.00    -0.028 A 
ATOM     23  C   LIG    1       -0.636  -1.225   1.742  0.00  0.00    +0.009 A 
ATOM     24  C   LIG    1        0.635  -0.656   1.778  0.00  0.00    +0.046 A 
ATOM     25  C   LIG    1        1.355  -0.366   0.655  0.00  0.00    +0.121 A 
ATOM     26  C   LIG    1        0.789  -0.654  -0.559  0.00  0.00    +0.046 A 
ATOM     27  C   LIG    1       -0.487  -1.226  -0.615  0.00  0.00    +0.009 A 
BRANCH  25  28
ATOM     28  O   LIG    1        2.620   0.203   0.774  0.00  0.00    -0.491 OA
BRANCH  28  29
ATOM     29  C   LIG    1        3.187   0.495   2.026  0.00  0.00    +0.244 C 
BRANCH  29  30
ATOM     30  C   LIG    1        4.557   1.099   1.860  0.00  0.00    +0.125 C 
BRANCH  30  31
ATOM     31  N   LIG    1        5.409   0.152   1.167  0.00  0.00    -0.299 NA
ATOM     32  C   LIG    1        6.785   0.746   1.007  0.00  0.00    +0.084 C 
ATOM     33  C   LIG    1        7.125   0.991  -0.446  0.00  0.00    +0.015 C 
ATOM     34  C   LIG    1        7.065   0.022  -1.496  0.00  0.00    +0.001 C 
ATOM     35  C   LIG    1        5.788  -0.269  -2.299  0.00  0.00    +0.001 C 
ATOM     36  C   LIG    1        4.620  -0.668  -1.322  0.00  0.00    +0.015 C 
ATOM     37  C   LIG    1        5.058  -0.230  -0.072  0.00  0.00    +0.084 C 
ENDBRANCH  30  31
ENDBRANCH  29  30
ENDBRANCH  28  29
ENDBRANCH  25  28
ENDBRANCH  21  22
ENDBRANCH   1  21
TORSDOF 9
