REMARK  Name = molecules/UCRHFBCYFMIWHC-UHFFFAOYSA-N.pdb
REMARK                            x       y       z     vdW  Elec       q    Type
REMARK                         _______ _______ _______ _____ _____    ______ ____
ROOT
ATOM      1  C   LIG    1       -0.099   1.048  -0.219  0.00  0.00    +0.031 C 
ENDROOT
BRANCH   1   2
ATOM      2  C   LIG    1       -1.246   0.376  -0.938  0.00  0.00    +0.086 C 
BRANCH   2   6
ATOM      3  N   LIG    1       -4.542  -0.201  -0.265  0.00  0.00    -0.327 N 
ATOM      4  C   LIG    1       -4.017  -0.407   1.067  0.00  0.00    +0.120 C 
ATOM      5  C   LIG    1       -2.540   0.047   1.039  0.00  0.00    +0.103 C 
ATOM      6  N   LIG    1       -1.847  -0.583  -0.047  0.00  0.00    -0.299 NA
ATOM      7  C   LIG    1       -2.639  -1.541  -0.784  0.00  0.00    +0.103 C 
ATOM      8  C   LIG    1       -3.830  -0.846  -1.358  0.00  0.00    +0.120 C 
BRANCH   3  18
ATOM      9 CL   LIG    1      -11.132  -0.804   1.461  0.00  0.00    -0.083 Cl
ATOM     10  C   LIG    1       -9.513  -0.417   0.897  0.00  0.00    +0.043 A 
ATOM     11  C   LIG    1       -8.425  -1.229   1.137  0.00  0.00    +0.021 A 
ATOM     12  C   LIG    1       -7.146  -0.933   0.698  0.00  0.00    +0.013 A 
ATOM     13  C   LIG    1       -6.916   0.219  -0.014  0.00  0.00    +0.021 A 
ATOM     14  C   LIG    1       -8.005   1.058  -0.269  0.00  0.00    +0.074 A 
ATOM     15  N   LIG    1       -7.849   2.200  -0.964  0.00  0.00    -0.255 NA
ATOM     16  C   LIG    1       -6.652   2.607  -1.454  0.00  0.00    +0.113 A 
ATOM     17  C   LIG    1       -5.582   1.773  -1.198  0.00  0.00    +0.043 A 
ATOM     18  C   LIG    1       -5.686   0.593  -0.492  0.00  0.00    +0.040 A 
ATOM     19  C   LIG    1       -9.271   0.746   0.176  0.00  0.00    +0.048 A 
ENDBRANCH   3  18
ENDBRANCH   2   6
ENDBRANCH   1   2
BRANCH   1  20
ATOM     20  C   LIG    1        0.879  -0.025   0.144  0.00  0.00    +0.086 C 
BRANCH  20  21
ATOM     21  N   LIG    1        2.064   0.428   0.830  0.00  0.00    -0.299 NA
ATOM     22  C   LIG    1        2.634  -0.618   1.585  0.00  0.00    +0.103 C 
ATOM     23  C   LIG    1        3.811  -1.329   1.031  0.00  0.00    +0.120 C 
ATOM     24  N   LIG    1        4.547  -0.624   0.009  0.00  0.00    -0.327 N 
ATOM     25  C   LIG    1        3.956   0.435  -0.749  0.00  0.00    +0.120 C 
ATOM     26  C   LIG    1        2.892   1.187  -0.020  0.00  0.00    +0.103 C 
BRANCH  24  27
ATOM     27  C   LIG    1        5.893  -0.986  -0.250  0.00  0.00    +0.040 A 
ATOM     28  C   LIG    1        6.887  -0.101   0.086  0.00  0.00    +0.021 A 
ATOM     29  C   LIG    1        6.674   1.115   0.697  0.00  0.00    +0.013 A 
ATOM     30  C   LIG    1        7.713   1.950   1.011  0.00  0.00    +0.021 A 
ATOM     31  C   LIG    1        9.018   1.607   0.727  0.00  0.00    +0.043 A 
ATOM     32 CL   LIG    1       10.359   2.683   1.129  0.00  0.00    -0.083 Cl
ATOM     33  C   LIG    1        9.219   0.388   0.117  0.00  0.00    +0.048 A 
ATOM     34  C   LIG    1        8.191  -0.480  -0.213  0.00  0.00    +0.074 A 
ATOM     35  N   LIG    1        8.466  -1.656  -0.803  0.00  0.00    -0.255 NA
ATOM     36  C   LIG    1        7.505  -2.541  -1.141  0.00  0.00    +0.113 A 
ATOM     37  C   LIG    1        6.208  -2.198  -0.859  0.00  0.00    +0.043 A 
ENDBRANCH  24  27
ENDBRANCH  20  21
ENDBRANCH   1  20
TORSDOF 6
