REMARK  Name = molecules/UCTRAOBQFUDCSR-SECBINFHSA-N.pdb
REMARK                            x       y       z     vdW  Elec       q    Type
REMARK                         _______ _______ _______ _____ _____    ______ ____
ROOT
ATOM      1  C   LIG    1        0.734  -0.926   0.331  0.00  0.00    +0.093 C 
ENDROOT
BRANCH   1   2
ATOM      2  N   LIG    1       -0.002  -2.051   0.896  0.00  0.00    -0.324 NA
ATOM      3  H   LIG    1        0.146  -2.152   1.911  0.00  0.00    +0.119 HD
ATOM      4  H   LIG    1        0.146  -2.924   0.355  0.00  0.00    +0.119 HD
ENDBRANCH   1   2
BRANCH   1   5
ATOM      5  C   LIG    1       -0.086  -0.268  -0.757  0.00  0.00    +0.057 C 
BRANCH   5  11
ATOM      6  C   LIG    1       -2.461  -0.515  -0.206  0.00  0.00    +0.004 A 
ATOM      7  C   LIG    1       -3.684  -0.069   0.274  0.00  0.00    +0.000 A 
ATOM      8  C   LIG    1       -3.800   1.231   0.751  0.00  0.00    +0.000 A 
ATOM      9  C   LIG    1       -2.699   2.037   0.732  0.00  0.00    +0.000 A 
ATOM     10  C   LIG    1       -1.494   1.573   0.251  0.00  0.00    +0.004 A 
ATOM     11  C   LIG    1       -1.349   0.297  -0.225  0.00  0.00    -0.046 A 
ENDBRANCH   5  11
ENDBRANCH   1   5
BRANCH   1  12
ATOM     12  C   LIG    1        1.980  -1.465  -0.283  0.00  0.00    +0.252 C 
BRANCH  12  13
ATOM     13  O   LIG    1        2.816  -0.531  -0.877  0.00  0.00    -0.449 OA
BRANCH  13  14
ATOM     14  C   LIG    1        3.368   0.507  -0.154  0.00  0.00    +0.398 C 
ATOM     15  O   LIG    1        3.074   0.559   1.067  0.00  0.00    -0.227 OA
ATOM     16  N   LIG    1        4.238   1.481  -0.767  0.00  0.00    -0.295 N 
ATOM     17  H   LIG    1        4.975   1.879  -0.169  0.00  0.00    +0.148 HD
ATOM     18  H   LIG    1        4.115   1.758  -1.763  0.00  0.00    +0.148 HD
ENDBRANCH  13  14
ENDBRANCH  12  13
ENDBRANCH   1  12
TORSDOF 6
