REMARK  Name = molecules/UDIIBEDMEYAVNG-ZKFPOVNWSA-N.pdb
REMARK                            x       y       z     vdW  Elec       q    Type
REMARK                         _______ _______ _______ _____ _____    ______ ____
ROOT
ATOM      1  C   LIG    1       -0.588   0.392   0.554  0.00  0.00    +0.173 C 
ATOM      2  C   LIG    1        0.529  -0.256   1.345  0.00  0.00    +0.175 C 
ATOM      3  C   LIG    1        1.824   0.055   0.624  0.00  0.00    +0.169 C 
ATOM      4  C   LIG    1        2.047   1.550   0.801  0.00  0.00    +0.084 C 
ATOM      5  C   LIG    1        0.893   2.272   0.130  0.00  0.00    +0.046 C 
ATOM      6  C   LIG    1       -0.451   1.873   0.689  0.00  0.00    +0.106 C 
ENDROOT
BRANCH   6   7
ATOM      7  N   LIG    1       -1.447   2.578  -0.084  0.00  0.00    -0.308 N 
ATOM      8  C   LIG    1       -2.283   3.565   0.511  0.00  0.00    +0.243 C 
ATOM      9  O   LIG    1       -2.190   3.865   1.730  0.00  0.00    -0.273 OA
ATOM     10  H   LIG    1       -1.548   2.358  -1.078  0.00  0.00    +0.149 HD
BRANCH   8  11
ATOM     11  C   LIG    1       -3.295   4.270  -0.307  0.00  0.00    +0.213 C 
BRANCH  11  12
ATOM     12  O   LIG    1       -3.985   5.178   0.476  0.00  0.00    -0.381 OA
ATOM     13  H   LIG    1       -4.900   5.262   0.080  0.00  0.00    +0.210 HD
ENDBRANCH  11  12
BRANCH  11  14
ATOM     14  C   LIG    1       -2.679   4.977  -1.501  0.00  0.00    +0.118 C 
BRANCH  14  15
ATOM     15  N   LIG    1       -1.769   5.995  -0.995  0.00  0.00    -0.327 NA
ATOM     16  H   LIG    1       -2.343   6.659  -0.414  0.00  0.00    +0.118 HD
ATOM     17  H   LIG    1       -1.286   6.494  -1.776  0.00  0.00    +0.118 HD
ENDBRANCH  14  15
ENDBRANCH  11  14
ENDBRANCH   8  11
ENDBRANCH   6   7
BRANCH   4  18
ATOM     18  N   LIG    1        3.251   1.988   0.118  0.00  0.00    -0.325 NA
ATOM     19  H   LIG    1        4.097   1.943   0.729  0.00  0.00    +0.119 HD
ATOM     20  H   LIG    1        3.128   2.920  -0.332  0.00  0.00    +0.119 HD
ENDBRANCH   4  18
BRANCH   2  21
ATOM     21  O   LIG    1        0.325  -1.608   1.533  0.00  0.00    -0.387 OA
ATOM     22  H   LIG    1        0.676  -1.924   2.410  0.00  0.00    +0.210 HD
ENDBRANCH   2  21
BRANCH   1  23
ATOM     23  O   LIG    1       -1.831  -0.116   0.888  0.00  0.00    -0.341 OA
BRANCH  23  24
ATOM     24  C   LIG    1       -2.464  -0.797  -0.155  0.00  0.00    +0.281 C 
ATOM     25  O   LIG    1       -2.635  -2.100   0.268  0.00  0.00    -0.346 OA
ATOM     26  C   LIG    1       -3.729  -2.725  -0.289  0.00  0.00    +0.199 C 
ATOM     27  C   LIG    1       -4.121  -2.171  -1.650  0.00  0.00    +0.104 C 
ATOM     28  C   LIG    1       -4.609  -0.770  -1.412  0.00  0.00    +0.121 C 
ATOM     29  C   LIG    1       -5.270  -2.963  -2.241  0.00  0.00    +0.045 C 
ATOM     30  C   LIG    1       -3.813  -0.135  -0.323  0.00  0.00    +0.190 C 
BRANCH  28  31
ATOM     31  N   LIG    1       -4.740   0.042  -2.573  0.00  0.00    -0.311 NA
ATOM     32  H   LIG    1       -5.272   0.890  -2.325  0.00  0.00    +0.122 HD
ATOM     33  C   LIG    1       -3.551   0.390  -3.268  0.00  0.00    +0.101 C 
ENDBRANCH  28  31
BRANCH  27  34
ATOM     34  O   LIG    1       -3.041  -2.167  -2.507  0.00  0.00    -0.385 OA
ATOM     35  H   LIG    1       -2.923  -3.052  -2.922  0.00  0.00    +0.210 HD
ENDBRANCH  27  34
BRANCH  30  36
ATOM     36  O   LIG    1       -4.538  -0.241   0.884  0.00  0.00    -0.385 OA
ATOM     37  H   LIG    1       -5.226   0.472   0.936  0.00  0.00    +0.210 HD
ENDBRANCH  30  36
ENDBRANCH  23  24
ENDBRANCH   1  23
BRANCH   3  38
ATOM     38  O   LIG    1        2.812  -0.713   1.165  0.00  0.00    -0.341 OA
BRANCH  38  39
ATOM     39  C   LIG    1        3.456  -1.565   0.322  0.00  0.00    +0.282 C 
ATOM     40  C   LIG    1        3.495  -3.000   0.729  0.00  0.00    +0.201 C 
ATOM     41  C   LIG    1        3.983  -3.074   2.157  0.00  0.00    +0.179 C 
ATOM     42  C   LIG    1        5.424  -2.544   2.114  0.00  0.00    +0.176 C 
ATOM     43  C   LIG    1        5.396  -1.162   1.512  0.00  0.00    +0.166 C 
ATOM     44  O   LIG    1        4.804  -1.137   0.256  0.00  0.00    -0.342 OA
BRANCH  40  45
ATOM     45  O   LIG    1        2.351  -3.709   0.500  0.00  0.00    -0.384 OA
ATOM     46  H   LIG    1        1.861  -3.301  -0.246  0.00  0.00    +0.210 HD
ENDBRANCH  40  45
BRANCH  42  47
ATOM     47  O   LIG    1        5.993  -2.483   3.361  0.00  0.00    -0.387 OA
ATOM     48  H   LIG    1        5.915  -3.285   3.907  0.00  0.00    +0.210 HD
ENDBRANCH  42  47
BRANCH  41  49
ATOM     49  O   LIG    1        3.962  -4.380   2.639  0.00  0.00    -0.386 OA
ATOM     50  H   LIG    1        3.333  -4.934   2.096  0.00  0.00    +0.210 HD
ENDBRANCH  41  49
BRANCH  43  51
ATOM     51  C   LIG    1        6.833  -0.721   1.331  0.00  0.00    +0.112 C 
BRANCH  51  52
ATOM     52  N   LIG    1        7.559  -1.605   0.429  0.00  0.00    -0.328 NA
ATOM     53  H   LIG    1        8.034  -2.379   0.957  0.00  0.00    +0.118 HD
ATOM     54  H   LIG    1        8.330  -1.100  -0.064  0.00  0.00    +0.118 HD
ENDBRANCH  51  52
ENDBRANCH  43  51
ENDBRANCH  38  39
ENDBRANCH   3  38
TORSDOF 19
