REMARK  Name = molecules/UDMBCSSLTHHNCD-KQYNXXCUSA-N.pdb
REMARK                            x       y       z     vdW  Elec       q    Type
REMARK                         _______ _______ _______ _____ _____    ______ ____
ROOT
ATOM      1  C   LIG    1        0.409  -1.194  -0.943  0.00  0.00    +0.195 C 
ATOM      2  C   LIG    1       -0.369  -0.455   0.096  0.00  0.00    +0.253 C 
ATOM      3  O   LIG    1        0.548   0.540   0.578  0.00  0.00    -0.346 OA
ATOM      4  C   LIG    1        1.745   0.009   0.425  0.00  0.00    +0.178 C 
ATOM      5  C   LIG    1        1.690  -1.414  -0.096  0.00  0.00    +0.178 C 
ENDROOT
BRANCH   2   6
ATOM      6  N   LIG    1       -1.579   0.196  -0.285  0.00  0.00    -0.286 N 
ATOM      7  C   LIG    1       -2.798  -0.249   0.018  0.00  0.00    +0.167 A 
ATOM      8  N   LIG    1       -3.225  -1.322   0.661  0.00  0.00    -0.216 NA
ATOM      9  C   LIG    1       -4.449  -1.595   0.962  0.00  0.00    +0.225 A 
ATOM     10  N   LIG    1       -5.397  -0.672   0.553  0.00  0.00    -0.219 NA
ATOM     11  C   LIG    1       -5.030   0.441  -0.126  0.00  0.00    +0.147 A 
ATOM     12  C   LIG    1       -3.724   0.688  -0.412  0.00  0.00    +0.147 A 
ATOM     13  N   LIG    1       -3.018   1.686  -0.975  0.00  0.00    -0.231 NA
ATOM     14  C   LIG    1       -1.692   1.379  -0.889  0.00  0.00    +0.203 A 
BRANCH  11  15
ATOM     15  N   LIG    1       -5.981   1.415  -0.573  0.00  0.00    -0.341 N 
ATOM     16  H   LIG    1       -6.795   1.544   0.080  0.00  0.00    +0.144 HD
ATOM     17  H   LIG    1       -5.816   1.920  -1.450  0.00  0.00    +0.144 HD
ENDBRANCH  11  15
ENDBRANCH   2   6
BRANCH   1  18
ATOM     18  O   LIG    1       -0.114  -2.418  -1.297  0.00  0.00    -0.385 OA
ATOM     19  H   LIG    1       -0.064  -3.017  -0.498  0.00  0.00    +0.210 HD
ENDBRANCH   1  18
BRANCH   5  20
ATOM     20  O   LIG    1        1.489  -2.261   0.960  0.00  0.00    -0.386 OA
ATOM     21  H   LIG    1        1.521  -1.741   1.821  0.00  0.00    +0.210 HD
ENDBRANCH   5  20
BRANCH   4  22
ATOM     22  C   LIG    1        2.735   0.735  -0.406  0.00  0.00    +0.206 C 
BRANCH  22  23
ATOM     23  O   LIG    1        3.125   1.864   0.369  0.00  0.00    -0.284 OA
BRANCH  23  24
ATOM     24  P   LIG    1        4.847   1.747   0.226  0.00  0.00    +0.472 P 
ATOM     25  O   LIG    1        5.505   3.013   0.372  0.00  0.00    -0.228 OA
BRANCH  24  26
ATOM     26  O   LIG    1        5.237   0.779   1.663  0.00  0.00    -0.303 OA
ATOM     27  H   LIG    1        4.908  -0.144   1.427  0.00  0.00    +0.222 HD
ENDBRANCH  24  26
BRANCH  24  28
ATOM     28  O   LIG    1        5.304   0.812  -1.056  0.00  0.00    -0.303 OA
ATOM     29  H   LIG    1        5.960   0.106  -0.718  0.00  0.00    +0.222 HD
ENDBRANCH  24  28
ENDBRANCH  23  24
ENDBRANCH  22  23
ENDBRANCH   4  22
TORSDOF 9
