REMARK  Name = molecules/UDUSOMRJOPCWHT-UHFFFAOYSA-N.pdb
REMARK                            x       y       z     vdW  Elec       q    Type
REMARK                         _______ _______ _______ _____ _____    ______ ____
ROOT
ATOM      1  N   LIG    1       -0.582  -0.176   0.306  0.00  0.00    -0.284 N 
ATOM      2  H   LIG    1       -1.236  -0.059   1.520  0.00  0.00    +0.155 HD
ATOM      3  C   LIG    1        0.552  -0.425   0.938  0.00  0.00    +0.231 C 
ATOM      4  O   LIG    1        0.798  -0.609   2.193  0.00  0.00    -0.274 OA
ENDROOT
BRANCH   1   5
ATOM      5  C   LIG    1       -1.754   0.080  -0.338  0.00  0.00    +0.040 A 
ATOM      6  C   LIG    1       -2.372   1.307  -0.341  0.00  0.00    -0.023 A 
ATOM      7  C   LIG    1       -3.463   1.555  -1.194  0.00  0.00    +0.006 A 
ATOM      8  C   LIG    1       -3.885   0.518  -1.996  0.00  0.00    +0.001 A 
ATOM      9  C   LIG    1       -3.248  -0.735  -1.946  0.00  0.00    +0.006 A 
ATOM     10  C   LIG    1       -2.202  -0.995  -1.157  0.00  0.00    -0.023 A 
BRANCH   6  11
ATOM     11  C   LIG    1       -1.906   2.332   0.627  0.00  0.00    +0.015 C 
ATOM     12  C   LIG    1       -3.268   2.952   1.132  0.00  0.00    +0.012 C 
ATOM     13  C   LIG    1       -1.316   3.547  -0.110  0.00  0.00    +0.012 C 
ENDBRANCH   6  11
BRANCH  10  14
ATOM     14  C   LIG    1       -1.623  -2.291  -0.988  0.00  0.00    +0.015 C 
ATOM     15  C   LIG    1       -1.598  -2.758   0.464  0.00  0.00    +0.012 C 
ATOM     16  C   LIG    1       -2.511  -3.318  -1.705  0.00  0.00    +0.012 C 
ENDBRANCH  10  14
ENDBRANCH   1   5
BRANCH   3  17
ATOM     17  C   LIG    1        1.792  -0.510   0.094  0.00  0.00    +0.181 C 
BRANCH  17  18
ATOM     18  N   LIG    1        3.053  -0.753   0.608  0.00  0.00    -0.274 NA
BRANCH  18  19
ATOM     19  C   LIG    1        3.575   0.115   1.603  0.00  0.00    +0.206 C 
BRANCH  19  20
ATOM     20  C   LIG    1        3.910   1.474   1.252  0.00  0.00    +0.319 C 
ATOM     21  O   LIG    1        3.658   2.449   2.052  0.00  0.00    -0.250 OA
BRANCH  20  22
ATOM     22  O   LIG    1        4.487   1.844   0.067  0.00  0.00    -0.480 OA
ATOM     23  H   LIG    1        5.420   2.303   0.111  0.00  0.00    +0.295 HD
ENDBRANCH  20  22
ENDBRANCH  19  20
ENDBRANCH  18  19
BRANCH  18  24
ATOM     24  C   LIG    1        3.945  -0.826  -0.564  0.00  0.00    +0.206 C 
BRANCH  24  25
ATOM     25  C   LIG    1        5.311  -1.270  -0.280  0.00  0.00    +0.319 C 
ATOM     26  O   LIG    1        6.339  -0.545  -0.223  0.00  0.00    -0.250 OA
BRANCH  25  27
ATOM     27  O   LIG    1        5.497  -2.649  -0.052  0.00  0.00    -0.480 OA
ATOM     28  H   LIG    1        5.895  -3.038   0.762  0.00  0.00    +0.295 HD
ENDBRANCH  25  27
ENDBRANCH  24  25
ENDBRANCH  18  24
ENDBRANCH  17  18
ENDBRANCH   3  17
TORSDOF 11
