REMARK  Name = molecules/UEQUQVLFIPOEMF-GOSISDBHSA-N.pdb
REMARK                            x       y       z     vdW  Elec       q    Type
REMARK                         _______ _______ _______ _____ _____    ______ ____
ROOT
ATOM      1  C   LIG    1        4.155  -0.033   0.314  0.00  0.00    +0.105 C 
ATOM      2  N   LIG    1        3.095  -0.092  -0.662  0.00  0.00    -0.302 NA
ATOM      3  C   LIG    1        2.116   0.946  -0.456  0.00  0.00    +0.111 C 
ATOM      4  C   LIG    1        0.744   0.470  -0.772  0.00  0.00    +0.118 C 
ATOM      5  N   LIG    1        0.446  -0.825  -0.148  0.00  0.00    -0.320 N 
ATOM      6  C   LIG    1       -0.823  -1.282   0.284  0.00  0.00    +0.034 A 
ATOM      7  C   LIG    1       -0.700  -2.272   1.253  0.00  0.00    +0.023 A 
ATOM      8  C   LIG    1       -1.801  -2.872   1.826  0.00  0.00    +0.002 A 
ATOM      9  C   LIG    1       -3.077  -2.508   1.454  0.00  0.00    +0.000 A 
ATOM     10  C   LIG    1       -3.207  -1.527   0.495  0.00  0.00    +0.006 A 
ATOM     11  C   LIG    1       -2.108  -0.939  -0.066  0.00  0.00    -0.022 A 
ATOM     12  C   LIG    1       -2.466   0.103  -1.085  0.00  0.00    +0.072 C 
ATOM     13  C   LIG    1       -1.673   1.306  -0.695  0.00  0.00    -0.038 A 
ATOM     14  C   LIG    1       -2.560   2.349  -0.459  0.00  0.00    +0.004 A 
ATOM     15  C   LIG    1       -2.077   3.572  -0.081  0.00  0.00    +0.000 A 
ATOM     16  C   LIG    1       -0.725   3.739   0.056  0.00  0.00    +0.000 A 
ATOM     17  C   LIG    1        0.145   2.674  -0.187  0.00  0.00    +0.006 A 
ATOM     18  C   LIG    1        1.490  -1.791   0.085  0.00  0.00    +0.121 C 
ATOM     19  C   LIG    1       -0.322   1.438  -0.568  0.00  0.00    -0.022 A 
ATOM     20  C   LIG    1        2.593  -1.385  -0.923  0.00  0.00    +0.103 C 
ENDROOT
TORSDOF 0
