REMARK  Name = molecules/UFAHZIUFPNSHSL-MRVPVSSYSA-O.pdb
REMARK                            x       y       z     vdW  Elec       q    Type
REMARK                         _______ _______ _______ _____ _____    ______ ____
ROOT
ATOM      1  C   LIG    1       -0.092   1.136  -0.165  0.00  0.00    +0.171 C 
ENDROOT
BRANCH   1   2
ATOM      2  O   LIG    1        0.751   0.275   0.524  0.00  0.00    -0.463 OA
BRANCH   2   3
ATOM      3  C   LIG    1        1.667  -0.584   0.005  0.00  0.00    +0.307 C 
ATOM      4  O   LIG    1        1.804  -0.644  -1.221  0.00  0.00    -0.251 OA
BRANCH   3   6
ATOM      5  C   LIG    1        3.443  -2.311   0.044  0.00  0.00    +0.015 C 
ATOM      6  C   LIG    1        2.515  -1.458   0.861  0.00  0.00    +0.117 C 
ENDBRANCH   3   6
ENDBRANCH   2   3
ENDBRANCH   1   2
BRANCH   1   7
ATOM      7  C   LIG    1       -1.517   0.829   0.157  0.00  0.00    -0.030 C 
BRANCH   7   8
ATOM      8  N   LIG    1       -1.982  -0.475  -0.156  0.00  0.00    +0.377 N 
ATOM      9  C   LIG    1       -1.608  -1.360   0.955  0.00  0.00    -0.093 C 
ATOM     10  C   LIG    1       -3.453  -0.521  -0.209  0.00  0.00    -0.093 C 
ATOM     11  C   LIG    1       -1.482  -1.054  -1.353  0.00  0.00    -0.093 C 
ENDBRANCH   7   8
ENDBRANCH   1   7
BRANCH   1  12
ATOM     12  C   LIG    1        0.121   2.599   0.122  0.00  0.00    +0.163 C 
BRANCH  12  13
ATOM     13  C   LIG    1        1.479   3.085  -0.209  0.00  0.00    +0.308 C 
ATOM     14  O   LIG    1        2.345   2.341  -0.678  0.00  0.00    -0.251 OA
BRANCH  13  15
ATOM     15  O   LIG    1        1.760   4.410   0.021  0.00  0.00    -0.481 OA
ATOM     16  H   LIG    1        2.669   4.632   0.442  0.00  0.00    +0.295 HD
ENDBRANCH  13  15
ENDBRANCH  12  13
ENDBRANCH   1  12
TORSDOF 8
