REMARK  Name = molecules/UFIVBRCCIRTJTN-UHFFFAOYSA-N.pdb
REMARK                            x       y       z     vdW  Elec       q    Type
REMARK                         _______ _______ _______ _____ _____    ______ ____
ROOT
ATOM      1  C   LIG    1       -0.710  -0.281  -1.215  0.00  0.00    +0.086 C 
ENDROOT
BRANCH   1   2
ATOM      2  N   LIG    1        0.634  -0.709  -0.907  0.00  0.00    -0.302 NA
ATOM      3  C   LIG    1        0.919  -0.784   0.469  0.00  0.00    +0.086 C 
ATOM      4  C   LIG    1        2.336  -0.917   0.875  0.00  0.00    +0.038 C 
ATOM      5  C   LIG    1        3.341  -0.469  -0.143  0.00  0.00    +0.095 C 
ATOM      6  C   LIG    1        2.698   0.561  -1.064  0.00  0.00    +0.038 C 
ATOM      7  C   LIG    1        1.604  -0.195  -1.787  0.00  0.00    +0.086 C 
BRANCH   5   8
ATOM      8  C   LIG    1        4.590   0.047   0.449  0.00  0.00    -0.031 A 
ATOM      9  C   LIG    1        5.553  -0.760   1.008  0.00  0.00    +0.005 A 
ATOM     10  C   LIG    1        6.716  -0.227   1.553  0.00  0.00    +0.000 A 
ATOM     11  C   LIG    1        6.928   1.155   1.541  0.00  0.00    +0.000 A 
ATOM     12  C   LIG    1        5.953   1.952   0.977  0.00  0.00    +0.000 A 
ATOM     13  C   LIG    1        4.798   1.429   0.436  0.00  0.00    +0.005 A 
ENDBRANCH   5   8
BRANCH   5  14
ATOM     14  C   LIG    1        3.676  -1.649  -0.997  0.00  0.00    +0.315 C 
ATOM     15  O   LIG    1        3.216  -2.786  -0.804  0.00  0.00    -0.250 OA
BRANCH  14  16
ATOM     16  O   LIG    1        4.552  -1.418  -2.051  0.00  0.00    -0.480 OA
ATOM     17  H   LIG    1        5.242  -2.167  -2.217  0.00  0.00    +0.295 HD
ENDBRANCH  14  16
ENDBRANCH   5  14
ENDBRANCH   1   2
BRANCH   1  18
ATOM     18  C   LIG    1       -1.701  -0.874  -0.225  0.00  0.00    +0.046 C 
BRANCH  18  19
ATOM     19  C   LIG    1       -3.107  -0.415  -0.564  0.00  0.00    +0.108 C 
BRANCH  19  20
ATOM     20  C   LIG    1       -4.035  -1.013   0.418  0.00  0.00    -0.023 A 
ATOM     21  C   LIG    1       -3.879  -0.853   1.768  0.00  0.00    +0.005 A 
ATOM     22  C   LIG    1       -4.779  -1.432   2.631  0.00  0.00    +0.000 A 
ATOM     23  C   LIG    1       -5.832  -2.171   2.147  0.00  0.00    +0.000 A 
ATOM     24  C   LIG    1       -5.997  -2.339   0.776  0.00  0.00    +0.000 A 
ATOM     25  C   LIG    1       -5.085  -1.751  -0.076  0.00  0.00    +0.005 A 
ENDBRANCH  19  20
BRANCH  19  26
ATOM     26  C   LIG    1       -3.139   1.071  -0.579  0.00  0.00    -0.023 A 
ATOM     27  C   LIG    1       -2.393   1.812   0.306  0.00  0.00    +0.005 A 
ATOM     28  C   LIG    1       -2.419   3.188   0.303  0.00  0.00    +0.000 A 
ATOM     29  C   LIG    1       -3.217   3.834  -0.614  0.00  0.00    +0.000 A 
ATOM     30  C   LIG    1       -3.976   3.117  -1.513  0.00  0.00    +0.000 A 
ATOM     31  C   LIG    1       -3.930   1.744  -1.487  0.00  0.00    +0.005 A 
ENDBRANCH  19  26
BRANCH  19  32
ATOM     32  C   LIG    1       -3.385  -0.888  -1.918  0.00  0.00    +0.079 C 
ATOM     33  N   LIG    1       -3.607  -1.278  -2.998  0.00  0.00    -0.195 NA
ENDBRANCH  19  32
ENDBRANCH  18  19
ENDBRANCH   1  18
TORSDOF 9
