REMARK  Name = molecules/UFLGIAIHIAPJJC-UHFFFAOYSA-N.pdb
REMARK                            x       y       z     vdW  Elec       q    Type
REMARK                         _______ _______ _______ _____ _____    ______ ____
ROOT
ATOM      1  N   LIG    1       -0.391   0.366  -0.462  0.00  0.00    -0.310 N 
ENDROOT
BRANCH   1   2
ATOM      2  C   LIG    1       -0.253   1.765  -0.168  0.00  0.00    +0.122 A 
ATOM      3  C   LIG    1       -0.107   2.279   1.095  0.00  0.00    +0.043 A 
ATOM      4  C   LIG    1       -0.040   3.670   1.234  0.00  0.00    +0.005 A 
ATOM      5  C   LIG    1       -0.119   4.490   0.116  0.00  0.00    +0.020 A 
ATOM      6  C   LIG    1       -0.265   3.929  -1.152  0.00  0.00    +0.113 A 
ATOM      7  N   LIG    1       -0.325   2.611  -1.242  0.00  0.00    -0.240 NA
ENDBRANCH   1   2
BRANCH   1   8
ATOM      8  C   LIG    1        0.738  -0.494  -0.229  0.00  0.00    +0.122 C 
BRANCH   8   9
ATOM      9  C   LIG    1        2.016   0.287   0.011  0.00  0.00    +0.102 C 
BRANCH   9  10
ATOM     10  N   LIG    1        3.078  -0.643   0.282  0.00  0.00    -0.307 NA
ATOM     11  C   LIG    1        4.348   0.031   0.505  0.00  0.00    +0.104 C 
ATOM     12  C   LIG    1        3.163  -1.659  -0.708  0.00  0.00    +0.104 C 
ENDBRANCH   9  10
ENDBRANCH   8   9
ENDBRANCH   1   8
BRANCH   1  13
ATOM     13  C   LIG    1       -1.650  -0.047  -0.960  0.00  0.00    +0.141 C 
BRANCH  13  14
ATOM     14  C   LIG    1       -2.345  -1.171  -0.377  0.00  0.00    -0.030 A 
ATOM     15  C   LIG    1       -2.232  -1.647   0.898  0.00  0.00    +0.005 A 
ATOM     16  C   LIG    1       -2.958  -2.746   1.301  0.00  0.00    +0.000 A 
ATOM     17  C   LIG    1       -3.821  -3.419   0.468  0.00  0.00    +0.000 A 
ATOM     18  C   LIG    1       -3.951  -2.948  -0.840  0.00  0.00    +0.000 A 
ATOM     19  C   LIG    1       -3.226  -1.853  -1.236  0.00  0.00    +0.005 A 
ENDBRANCH  13  14
ENDBRANCH   1  13
TORSDOF 6
