REMARK  Name = molecules/UFNVPOGXISZXJD-JBQZKEIOSA-N.pdb
REMARK                            x       y       z     vdW  Elec       q    Type
REMARK                         _______ _______ _______ _____ _____    ______ ____
ROOT
ATOM      1  C   LIG    1       -3.946   5.836   1.344  0.00  0.00    +0.010 C 
ATOM      2  C   LIG    1       -3.715   4.679   0.776  0.00  0.00    -0.046 C 
ATOM      3  C   LIG    1       -2.464   3.889   0.875  0.00  0.00    +0.144 C 
ATOM      4  C   LIG    1       -1.311   4.854   1.048  0.00  0.00    +0.038 C 
ATOM      5  C   LIG    1        0.024   4.144   0.975  0.00  0.00    +0.034 C 
ATOM      6  C   LIG    1        0.553   4.068  -0.448  0.00  0.00    +0.120 C 
ATOM      7  C   LIG    1        1.669   5.060  -0.675  0.00  0.00    +0.039 C 
ATOM      8  C   LIG    1        2.989   4.614  -0.141  0.00  0.00    +0.016 C 
ATOM      9  C   LIG    1        3.554   5.591   0.843  0.00  0.00    +0.012 C 
ATOM     10  C   LIG    1        2.795   3.253   0.456  0.00  0.00    -0.045 C 
ATOM     11  C   LIG    1        3.330   3.035   1.644  0.00  0.00    +0.010 C 
ATOM     12  C   LIG    1        2.031   2.287  -0.329  0.00  0.00    +0.147 C 
ATOM     13  C   LIG    1        1.716   1.005   0.365  0.00  0.00    +0.068 C 
ATOM     14  C   LIG    1        2.825   0.028   0.438  0.00  0.00    +0.128 C 
ATOM     15  O   LIG    1        4.003   0.468  -0.201  0.00  0.00    -0.370 OA
ATOM     16  C   LIG    1        4.839  -0.689   0.166  0.00  0.00    +0.150 C 
ATOM     17  C   LIG    1        4.040  -1.782  -0.443  0.00  0.00    +0.153 C 
ATOM     18  C   LIG    1        2.590  -1.231  -0.314  0.00  0.00    +0.056 C 
ATOM     19  C   LIG    1        1.661  -2.201   0.320  0.00  0.00    +0.083 C 
ATOM     20  C   LIG    1        0.569  -2.654  -0.601  0.00  0.00    +0.136 C 
ATOM     21  C   LIG    1        0.209  -4.114  -0.705  0.00  0.00    +0.106 C 
ATOM     22  C   LIG    1       -1.225  -4.321  -0.269  0.00  0.00    +0.126 C 
ATOM     23  C   LIG    1       -1.246  -4.417   1.220  0.00  0.00    +0.034 C 
ATOM     24  C   LIG    1       -2.601  -4.297   1.836  0.00  0.00    +0.037 C 
ATOM     25  C   LIG    1       -3.489  -3.309   1.061  0.00  0.00    +0.150 C 
ATOM     26  O   LIG    1       -4.738  -3.403   1.591  0.00  0.00    -0.365 OA
ATOM     27  C   LIG    1       -5.776  -2.957   0.864  0.00  0.00    +0.181 C 
ATOM     28  C   LIG    1       -5.922  -1.448   0.798  0.00  0.00    +0.182 C 
ATOM     29  O   LIG    1       -4.704  -0.926   0.453  0.00  0.00    -0.340 OA
ATOM     30  C   LIG    1       -4.629  -0.751  -0.893  0.00  0.00    +0.174 C 
ATOM     31  C   LIG    1       -3.749   0.476  -1.165  0.00  0.00    +0.067 C 
ATOM     32  C   LIG    1       -3.842   1.488  -0.069  0.00  0.00    +0.037 C 
ATOM     33  C   LIG    1       -3.668   2.869  -0.698  0.00  0.00    +0.123 C 
ATOM     34  C   LIG    1       -6.047  -0.315  -1.263  0.00  0.00    +0.099 C 
ATOM     35  O   LIG    1       -4.168  -1.771  -1.641  0.00  0.00    -0.340 OA
ATOM     36  C   LIG    1       -4.430  -3.042  -1.257  0.00  0.00    +0.184 C 
ATOM     37  C   LIG    1       -6.834  -1.327  -0.419  0.00  0.00    +0.155 C 
ATOM     38  O   LIG    1       -6.784  -2.517  -1.096  0.00  0.00    -0.365 OA
ATOM     39  C   LIG    1       -5.752  -3.281  -0.604  0.00  0.00    +0.181 C 
ATOM     40  C   LIG    1       -3.362  -3.657  -0.380  0.00  0.00    +0.179 C 
ATOM     41  O   LIG    1       -2.082  -3.385  -0.800  0.00  0.00    -0.368 OA
ATOM     42  O   LIG    1       -0.072  -1.900  -1.297  0.00  0.00    -0.297 OA
ATOM     43  O   LIG    1        0.844   2.793  -0.853  0.00  0.00    -0.369 OA
ATOM     44  O   LIG    1       -2.381   3.289  -0.376  0.00  0.00    -0.369 OA
ATOM     45  C   LIG    1       -4.617   3.858  -0.102  0.00  0.00    +0.064 C 
ENDROOT
BRANCH  17  46
ATOM     46  O   LIG    1        4.269  -2.107  -1.745  0.00  0.00    -0.377 OA
ATOM     47  C   LIG    1        4.169  -3.384  -2.162  0.00  0.00    +0.194 C 
ENDBRANCH  17  46
BRANCH  16  48
ATOM     48  C   LIG    1        6.156  -0.464  -0.462  0.00  0.00    +0.066 C 
BRANCH  48  49
ATOM     49  C   LIG    1        7.206  -1.441  -0.134  0.00  0.00    +0.131 C 
BRANCH  49  50
ATOM     50  O   LIG    1        8.399  -1.023  -0.798  0.00  0.00    -0.390 OA
ATOM     51  H   LIG    1        8.199  -1.120  -1.754  0.00  0.00    +0.210 HD
ENDBRANCH  49  50
BRANCH  49  52
ATOM     52  C   LIG    1        7.039  -2.869  -0.456  0.00  0.00    +0.109 C 
BRANCH  52  53
ATOM     53  N   LIG    1        8.263  -3.549   0.035  0.00  0.00    -0.328 NA
ATOM     54  H   LIG    1        8.718  -3.003   0.773  0.00  0.00    +0.118 HD
ATOM     55  H   LIG    1        8.031  -4.527   0.316  0.00  0.00    +0.118 HD
ENDBRANCH  52  53
ENDBRANCH  49  52
ENDBRANCH  48  49
ENDBRANCH  16  48
TORSDOF 6
