REMARK  Name = molecules/UFUVLHLTWXBHGZ-MGZQPHGTSA-N.pdb
REMARK                            x       y       z     vdW  Elec       q    Type
REMARK                         _______ _______ _______ _____ _____    ______ ____
ROOT
ATOM      1  C   LIG    1       -1.880   0.105  -0.616  0.00  0.00    +0.172 C 
ATOM      2  O   LIG    1       -1.989   0.522   0.685  0.00  0.00    -0.356 OA
ATOM      3  C   LIG    1       -3.200   0.425   1.287  0.00  0.00    +0.208 C 
ATOM      4  C   LIG    1       -4.394   0.697   0.425  0.00  0.00    +0.200 C 
ATOM      5  C   LIG    1       -4.016   1.357  -0.890  0.00  0.00    +0.178 C 
ATOM      6  C   LIG    1       -2.903   0.596  -1.570  0.00  0.00    +0.176 C 
ENDROOT
BRANCH   3   7
ATOM      7  S   LIG    1       -3.401  -1.136   2.217  0.00  0.00    -0.130 S 
ATOM      8  C   LIG    1       -3.420  -2.578   1.170  0.00  0.00    +0.087 C 
ENDBRANCH   3   7
BRANCH   5   9
ATOM      9  O   LIG    1       -3.680   2.696  -0.725  0.00  0.00    -0.386 OA
ATOM     10  H   LIG    1       -4.263   3.124  -0.058  0.00  0.00    +0.210 HD
ENDBRANCH   5   9
BRANCH   6  11
ATOM     11  O   LIG    1       -2.410   1.365  -2.622  0.00  0.00    -0.387 OA
ATOM     12  H   LIG    1       -3.177   1.824  -3.042  0.00  0.00    +0.210 HD
ENDBRANCH   6  11
BRANCH   1  13
ATOM     13  C   LIG    1       -0.511   0.552  -1.095  0.00  0.00    +0.122 C 
BRANCH  13  14
ATOM     14  N   LIG    1        0.433  -0.131  -0.200  0.00  0.00    -0.307 N 
ATOM     15  H   LIG    1        0.300   0.058   0.811  0.00  0.00    +0.149 HD
ATOM     16  C   LIG    1        1.443  -0.978  -0.667  0.00  0.00    +0.231 C 
ATOM     17  O   LIG    1        1.527  -1.149  -1.921  0.00  0.00    -0.274 OA
BRANCH  16  18
ATOM     18  C   LIG    1        2.351  -1.628   0.291  0.00  0.00    +0.143 C 
ATOM     19  C   LIG    1        3.165  -0.587   1.030  0.00  0.00    +0.033 C 
ATOM     20  C   LIG    1        4.316  -0.355   0.078  0.00  0.00    +0.005 C 
ATOM     21  C   LIG    1        4.489  -1.675  -0.603  0.00  0.00    +0.088 C 
ATOM     22  N   LIG    1        3.336  -2.472  -0.333  0.00  0.00    -0.294 NA
ATOM     23  C   LIG    1        2.847  -3.227  -1.441  0.00  0.00    +0.105 C 
BRANCH  20  24
ATOM     24  C   LIG    1        5.559   0.035   0.872  0.00  0.00    +0.004 C 
BRANCH  24  25
ATOM     25  C   LIG    1        5.264   1.307   1.644  0.00  0.00    -0.003 C 
ATOM     26  C   LIG    1        6.500   1.692   2.432  0.00  0.00    +0.004 C 
ENDBRANCH  24  25
ENDBRANCH  20  24
ENDBRANCH  16  18
ENDBRANCH  13  14
BRANCH  13  27
ATOM     27  C   LIG    1       -0.317   2.034  -0.786  0.00  0.00    +0.100 C 
ATOM     28 CL   LIG    1       -0.577   2.363   0.941  0.00  0.00    -0.120 Cl
ATOM     29  C   LIG    1        1.132   2.385  -1.084  0.00  0.00    +0.026 C 
ENDBRANCH  13  27
ENDBRANCH   1  13
BRANCH   4  30
ATOM     30  O   LIG    1       -5.115  -0.467   0.161  0.00  0.00    -0.277 OA
BRANCH  30  31
ATOM     31  P   LIG    1       -6.726  -0.347   0.664  0.00  0.00    +0.473 P 
ATOM     32  O   LIG    1       -6.765  -0.331   2.175  0.00  0.00    -0.228 OA
BRANCH  31  33
ATOM     33  O   LIG    1       -7.392   1.132   0.137  0.00  0.00    -0.303 OA
ATOM     34  H   LIG    1       -8.166   1.389   0.717  0.00  0.00    +0.222 HD
ENDBRANCH  31  33
BRANCH  31  35
ATOM     35  O   LIG    1       -7.600  -1.654   0.064  0.00  0.00    -0.303 OA
ATOM     36  H   LIG    1       -7.418  -2.451   0.651  0.00  0.00    +0.222 HD
ENDBRANCH  31  35
ENDBRANCH  30  31
ENDBRANCH   4  30
TORSDOF 13
