REMARK  Name = molecules/UGDPYGKWIHHBMB-UHFFFAOYSA-N.pdb
REMARK                            x       y       z     vdW  Elec       q    Type
REMARK                         _______ _______ _______ _____ _____    ______ ____
ROOT
ATOM      1  N   LIG    1        0.145  -0.493  -0.447  0.00  0.00    -0.313 N 
ATOM      2  H   LIG    1        0.244  -1.379  -0.956  0.00  0.00    +0.152 HD
ENDROOT
BRANCH   1   3
ATOM      3  C   LIG    1       -0.995  -0.329   0.376  0.00  0.00    +0.047 A 
ATOM      4  C   LIG    1       -1.708  -1.393   0.862  0.00  0.00    +0.080 A 
ATOM      5  C   LIG    1       -2.881  -1.141   1.583  0.00  0.00    +0.018 A 
ATOM      6  C   LIG    1       -3.367   0.112   1.838  0.00  0.00    +0.021 A 
ATOM      7  C   LIG    1       -2.642   1.171   1.345  0.00  0.00    +0.043 A 
ATOM      8 CL   LIG    1       -3.257   2.786   1.667  0.00  0.00    -0.083 Cl
ATOM      9  C   LIG    1       -1.484   0.958   0.630  0.00  0.00    +0.044 A 
BRANCH   4  10
ATOM     10  C   LIG    1       -1.302  -2.783   0.699  0.00  0.00    +0.339 C 
ATOM     11  O   LIG    1       -0.287  -3.166   0.123  0.00  0.00    -0.245 OA
BRANCH  10  12
ATOM     12  O   LIG    1       -2.116  -3.794   1.233  0.00  0.00    -0.477 OA
ATOM     13  H   LIG    1       -2.296  -3.760   2.233  0.00  0.00    +0.295 HD
ENDBRANCH  10  12
ENDBRANCH   4  10
ENDBRANCH   1   3
BRANCH   1  14
ATOM     14  C   LIG    1        1.153   0.478  -0.611  0.00  0.00    +0.045 A 
ATOM     15  C   LIG    1        1.407   1.371   0.425  0.00  0.00    +0.024 A 
ATOM     16  C   LIG    1        2.455   2.258   0.326  0.00  0.00    +0.002 A 
ATOM     17  C   LIG    1        3.282   2.313  -0.755  0.00  0.00    +0.001 A 
ATOM     18  C   LIG    1        3.038   1.434  -1.780  0.00  0.00    +0.017 A 
ATOM     19  C   LIG    1        1.978   0.517  -1.716  0.00  0.00    +0.080 A 
BRANCH  19  20
ATOM     20  C   LIG    1        1.788  -0.346  -2.887  0.00  0.00    +0.339 C 
ATOM     21  O   LIG    1        2.608  -0.242  -3.850  0.00  0.00    -0.245 OA
BRANCH  20  22
ATOM     22  O   LIG    1        0.783  -1.263  -3.022  0.00  0.00    -0.477 OA
ATOM     23  H   LIG    1        0.957  -2.261  -3.177  0.00  0.00    +0.295 HD
ENDBRANCH  20  22
ENDBRANCH  19  20
ENDBRANCH   1  14
TORSDOF 6
