REMARK  Name = molecules/UGGAILYEBCSZIV-ITJSPEIASA-N.pdb
REMARK                            x       y       z     vdW  Elec       q    Type
REMARK                         _______ _______ _______ _____ _____    ______ ____
ROOT
ATOM      1  C   LIG    1        0.804  -3.097  -0.888  0.00  0.00    +0.056 C 
ATOM      2  C   LIG    1        0.358  -1.896  -0.029  0.00  0.00    +0.114 C 
ATOM      3  C   LIG    1       -0.825  -2.255   0.811  0.00  0.00    +0.048 C 
ATOM      4  C   LIG    1       -2.115  -1.641   0.511  0.00  0.00    +0.008 C 
ATOM      5  C   LIG    1       -2.177  -0.408  -0.302  0.00  0.00    +0.004 C 
ATOM      6  C   LIG    1       -3.242   0.541   0.199  0.00  0.00    -0.031 C 
ATOM      7  C   LIG    1       -2.803   1.385   1.346  0.00  0.00    +0.007 C 
ATOM      8  C   LIG    1       -1.417   1.885   1.296  0.00  0.00    +0.001 C 
ATOM      9  C   LIG    1       -0.393   0.883   0.837  0.00  0.00    +0.010 C 
ATOM     10  C   LIG    1       -4.425  -0.291   0.686  0.00  0.00    +0.011 C 
ATOM     11  C   LIG    1       -3.752   1.360  -0.971  0.00  0.00    +0.011 C 
ATOM     12  C   LIG    1       -0.865   0.255  -0.413  0.00  0.00    +0.007 C 
ATOM     13  C   LIG    1       -0.721   1.250  -1.537  0.00  0.00    +0.168 C 
ATOM     14  O   LIG    1        0.650   1.266  -1.788  0.00  0.00    -0.371 OA
ATOM     15  C   LIG    1        1.181   0.022  -1.455  0.00  0.00    +0.163 C 
ATOM     16  C   LIG    1        2.348   0.127  -0.567  0.00  0.00    +0.064 A 
ATOM     17  C   LIG    1        2.457  -0.696   0.524  0.00  0.00    +0.131 A 
ATOM     18  C   LIG    1        3.589  -0.560   1.341  0.00  0.00    +0.049 A 
ATOM     19  C   LIG    1        4.582   0.357   1.093  0.00  0.00    -0.044 A 
ATOM     20  C   LIG    1        5.780   0.500   1.960  0.00  0.00    +0.044 C 
ATOM     21  C   LIG    1        4.440   1.171  -0.015  0.00  0.00    +0.049 A 
ATOM     22  C   LIG    1        3.333   1.055  -0.835  0.00  0.00    +0.126 A 
ATOM     23  O   LIG    1        1.481  -1.613   0.786  0.00  0.00    -0.485 OA
ATOM     24  C   LIG    1        0.067  -0.803  -0.978  0.00  0.00    +0.075 C 
ENDROOT
BRANCH  22  25
ATOM     25  O   LIG    1        3.166   1.868  -1.964  0.00  0.00    -0.506 OA
ATOM     26  H   LIG    1        3.816   2.568  -2.247  0.00  0.00    +0.292 HD
ENDBRANCH  22  25
TORSDOF 1
