REMARK  Name = molecules/UGJWZYARKOFRDB-UHFFFAOYSA-O.pdb
REMARK                            x       y       z     vdW  Elec       q    Type
REMARK                         _______ _______ _______ _____ _____    ______ ____
ROOT
ATOM      1  O   LIG    1        1.576   0.885   0.057  0.00  0.00    -0.463 OA
ENDROOT
BRANCH   1   2
ATOM      2  C   LIG    1        1.589  -0.296  -0.529  0.00  0.00    +0.307 C 
ATOM      3  O   LIG    1        2.476  -0.500  -1.386  0.00  0.00    -0.251 OA
BRANCH   2   4
ATOM      4  C   LIG    1        0.548  -1.351  -0.162  0.00  0.00    +0.120 C 
BRANCH   4   5
ATOM      5  C   LIG    1       -0.675  -0.937  -0.899  0.00  0.00    +0.011 C 
BRANCH   5   6
ATOM      6  C   LIG    1       -1.919  -1.719  -0.716  0.00  0.00    +0.001 C 
BRANCH   6   7
ATOM      7  C   LIG    1       -2.342  -1.679   0.737  0.00  0.00    +0.000 C 
BRANCH   7   8
ATOM      8  C   LIG    1       -3.629  -2.371   1.028  0.00  0.00    +0.000 C 
BRANCH   8   9
ATOM      9  C   LIG    1       -4.745  -1.716   0.224  0.00  0.00    +0.000 C 
BRANCH   9  10
ATOM     10  C   LIG    1       -4.835  -0.261   0.604  0.00  0.00    -0.000 C 
BRANCH  10  11
ATOM     11  C   LIG    1       -5.911   0.469  -0.157  0.00  0.00    -0.000 C 
BRANCH  11  12
ATOM     12  C   LIG    1       -7.246  -0.125   0.104  0.00  0.00    -0.000 C 
BRANCH  12  13
ATOM     13  C   LIG    1       -8.354   0.604  -0.631  0.00  0.00    -0.003 C 
ATOM     14  C   LIG    1       -8.455   2.058  -0.233  0.00  0.00    +0.004 C 
ENDBRANCH  12  13
ENDBRANCH  11  12
ENDBRANCH  10  11
ENDBRANCH   9  10
ENDBRANCH   8   9
ENDBRANCH   7   8
ENDBRANCH   6   7
ENDBRANCH   5   6
ENDBRANCH   4   5
ENDBRANCH   2   4
ENDBRANCH   1   2
BRANCH   1  15
ATOM     15  C   LIG    1        2.126   2.072   0.156  0.00  0.00    +0.251 C 
BRANCH  15  16
ATOM     16  C   LIG    1        3.481   2.407   0.578  0.00  0.00    +0.145 C 
BRANCH  16  19
ATOM     17  C   LIG    1        5.901   2.252   0.213  0.00  0.00    +0.231 C 
ATOM     18  O   LIG    1        6.033   2.983   1.279  0.00  0.00    -0.274 OA
ATOM     19  N   LIG    1        4.589   1.914  -0.199  0.00  0.00    -0.311 N 
ATOM     20  H   LIG    1        4.423   1.327  -1.030  0.00  0.00    +0.149 HD
BRANCH  17  21
ATOM     21  C   LIG    1        7.155   1.876  -0.432  0.00  0.00    +0.205 C 
BRANCH  21  22
ATOM     22  N   LIG    1        7.517   0.469  -0.258  0.00  0.00    -0.304 N 
ATOM     23  C   LIG    1        8.221   0.081   0.816  0.00  0.00    +0.071 C 
ATOM     24  C   LIG    1        8.577  -1.249   0.986  0.00  0.00    -0.003 C 
ATOM     25  C   LIG    1        8.177  -2.158   0.004  0.00  0.00    +0.047 C 
ATOM     26  C   LIG    1        7.459  -1.720  -1.079  0.00  0.00    -0.003 C 
ATOM     27  C   LIG    1        7.126  -0.387  -1.209  0.00  0.00    +0.071 C 
ENDBRANCH  21  22
ENDBRANCH  17  21
ENDBRANCH  16  19
ENDBRANCH  15  16
ENDBRANCH   1  15
TORSDOF 16
