REMARK  Name = molecules/UHRBTBZOWWGKMK-DOMZBBRYSA-N.pdb
REMARK                            x       y       z     vdW  Elec       q    Type
REMARK                         _______ _______ _______ _____ _____    ______ ____
ROOT
ATOM      1  C   LIG    1        2.906  -1.076  -0.459  0.00  0.00    +0.258 C 
ATOM      2  C   LIG    1        1.589  -1.755  -0.267  0.00  0.00    +0.273 C 
ATOM      3  O   LIG    1        0.855  -1.396   0.871  0.00  0.00    -0.349 OA
ATOM      4  C   LIG    1       -0.395  -1.974   0.703  0.00  0.00    +0.196 C 
ATOM      5  C   LIG    1       -1.101  -1.444  -0.539  0.00  0.00    -0.006 C 
ATOM      6  C   LIG    1       -0.381  -0.947  -1.508  0.00  0.00    +0.125 C 
ATOM      7  N   LIG    1        1.041  -0.934  -1.333  0.00  0.00    -0.230 N 
ATOM      8  C   LIG    1        2.317  -0.473  -1.714  0.00  0.00    +0.277 C 
ATOM      9  O   LIG    1        2.782   0.170  -2.684  0.00  0.00    -0.270 OA
ENDROOT
BRANCH   1  10
ATOM     10  N   LIG    1        3.213  -0.084   0.556  0.00  0.00    -0.276 N 
ATOM     11  H   LIG    1        2.561   0.120   1.336  0.00  0.00    +0.152 HD
ATOM     12  C   LIG    1        4.431   0.627   0.484  0.00  0.00    +0.226 C 
ATOM     13  O   LIG    1        5.248   0.401  -0.455  0.00  0.00    -0.275 OA
BRANCH  12  14
ATOM     14  C   LIG    1        4.786   1.639   1.486  0.00  0.00    +0.170 C 
BRANCH  14  15
ATOM     15  S   LIG    1        6.397   2.371   1.130  0.00  0.00    -0.082 S 
BRANCH  15  16
ATOM     16  C   LIG    1        6.824   3.606   2.360  0.00  0.00    +0.400 C 
ATOM     17  F   LIG    1        6.018   4.704   2.347  0.00  0.00    -0.197 F 
ATOM     18  F   LIG    1        8.154   3.976   2.226  0.00  0.00    -0.197 F 
ENDBRANCH  15  16
ENDBRANCH  14  15
ENDBRANCH  12  14
ENDBRANCH   1  10
BRANCH   6  19
ATOM     19  C   LIG    1       -0.908  -0.414  -2.738  0.00  0.00    +0.351 C 
ATOM     20  O   LIG    1       -0.128   0.054  -3.634  0.00  0.00    -0.244 OA
BRANCH  19  21
ATOM     21  O   LIG    1       -2.232  -0.365  -3.039  0.00  0.00    -0.476 OA
ATOM     22  H   LIG    1       -2.634  -0.293  -3.947  0.00  0.00    +0.295 HD
ENDBRANCH  19  21
ENDBRANCH   6  19
BRANCH   1  23
ATOM     23  O   LIG    1        3.994  -1.869  -0.683  0.00  0.00    -0.348 OA
ATOM     24  C   LIG    1        3.865  -2.848  -1.628  0.00  0.00    +0.197 C 
ENDBRANCH   1  23
BRANCH   5  25
ATOM     25  C   LIG    1       -2.572  -1.556  -0.502  0.00  0.00    +0.112 C 
BRANCH  25  26
ATOM     26  S   LIG    1       -3.113  -0.587   0.948  0.00  0.00    -0.080 S 
BRANCH  26  27
ATOM     27  C   LIG    1       -4.891  -0.639   1.115  0.00  0.00    +0.210 A 
ATOM     28  N   LIG    1       -5.538  -1.573   1.835  0.00  0.00    -0.102 NA
ATOM     29  N   LIG    1       -6.825  -1.309   1.739  0.00  0.00    -0.022 NA
ATOM     30  N   LIG    1       -6.979  -0.243   0.982  0.00  0.00    -0.043 NA
ATOM     31  N   LIG    1       -5.803   0.191   0.583  0.00  0.00    -0.218 N 
BRANCH  31  32
ATOM     32  C   LIG    1       -5.572   1.328  -0.253  0.00  0.00    +0.176 C 
BRANCH  32  33
ATOM     33  C   LIG    1       -5.394   2.609   0.526  0.00  0.00    +0.179 C 
BRANCH  33  34
ATOM     34  O   LIG    1       -6.501   2.909   1.285  0.00  0.00    -0.393 OA
ATOM     35  H   LIG    1       -6.401   2.494   2.187  0.00  0.00    +0.209 HD
ENDBRANCH  33  34
ENDBRANCH  32  33
ENDBRANCH  31  32
ENDBRANCH  26  27
ENDBRANCH  25  26
ENDBRANCH   5  25
TORSDOF 13
