REMARK  Name = molecules/UHTHHESEBZOYNR-UHFFFAOYSA-N.pdb
REMARK                            x       y       z     vdW  Elec       q    Type
REMARK                         _______ _______ _______ _____ _____    ______ ____
ROOT
ATOM      1  C   LIG    1       -0.548  -1.161   0.622  0.00  0.00    +0.164 A 
ATOM      2  C   LIG    1        0.302  -0.556   1.557  0.00  0.00    +0.162 A 
ATOM      3  C   LIG    1        1.578  -0.155   1.186  0.00  0.00    +0.062 A 
ATOM      4  C   LIG    1        2.072  -0.321  -0.084  0.00  0.00    +0.044 A 
ATOM      5  C   LIG    1        3.362   0.086  -0.457  0.00  0.00    +0.134 A 
ATOM      6  N   LIG    1        3.669  -0.155  -1.728  0.00  0.00    -0.220 NA
ATOM      7  C   LIG    1        2.902  -0.726  -2.657  0.00  0.00    +0.223 A 
ATOM      8  N   LIG    1        1.677  -1.103  -2.271  0.00  0.00    -0.235 NA
ATOM      9  C   LIG    1        1.241  -0.918  -1.016  0.00  0.00    +0.080 A 
ATOM     10  C   LIG    1       -0.043  -1.322  -0.643  0.00  0.00    +0.078 A 
ENDROOT
BRANCH   2  11
ATOM     11  O   LIG    1       -0.131  -0.357   2.858  0.00  0.00    -0.491 OA
ATOM     12  C   LIG    1        0.745   0.255   3.783  0.00  0.00    +0.277 C 
ENDBRANCH   2  11
BRANCH   5  13
ATOM     13  N   LIG    1        4.212   0.693   0.483  0.00  0.00    -0.297 N 
ATOM     14  H   LIG    1        3.899   0.850   1.473  0.00  0.00    +0.154 HD
BRANCH  13  15
ATOM     15  C   LIG    1        5.532   1.140   0.209  0.00  0.00    +0.068 A 
ATOM     16  C   LIG    1        6.276   1.729   1.242  0.00  0.00    +0.145 A 
ATOM     17  F   LIG    1        5.698   1.843   2.450  0.00  0.00    -0.204 F 
ATOM     18  C   LIG    1        7.546   2.182   1.054  0.00  0.00    +0.055 A 
ATOM     19  C   LIG    1        8.168   2.081  -0.170  0.00  0.00    +0.021 A 
ATOM     20 BR   LIG    1        9.942   2.721  -0.400  0.00  0.00    -0.050 Br
ATOM     21  C   LIG    1        7.471   1.514  -1.188  0.00  0.00    +0.017 A 
ATOM     22  C   LIG    1        6.176   1.054  -0.997  0.00  0.00    +0.027 A 
ENDBRANCH  13  15
ENDBRANCH   5  13
BRANCH   1  23
ATOM     23  O   LIG    1       -1.762  -1.516   1.062  0.00  0.00    -0.488 OA
BRANCH  23  24
ATOM     24  C   LIG    1       -2.882  -2.081   0.534  0.00  0.00    +0.232 C 
BRANCH  24  26
ATOM     25  C   LIG    1       -4.738  -1.865  -1.103  0.00  0.00    +0.022 C 
ATOM     26  C   LIG    1       -3.494  -1.211  -0.535  0.00  0.00    +0.029 C 
ATOM     27  C   LIG    1       -3.850   0.157   0.005  0.00  0.00    +0.022 C 
ATOM     28  C   LIG    1       -5.244   0.211   0.582  0.00  0.00    +0.084 C 
ATOM     29  N   LIG    1       -6.255  -0.126  -0.395  0.00  0.00    -0.305 NA
ATOM     30  C   LIG    1       -7.115   0.961  -0.737  0.00  0.00    +0.104 C 
ATOM     31  C   LIG    1       -5.699  -0.811  -1.543  0.00  0.00    +0.084 C 
ENDBRANCH  24  26
ENDBRANCH  23  24
ENDBRANCH   1  23
TORSDOF 6
