REMARK  Name = molecules/UHUMRJKDOOEQIG-FQEVSTJZSA-N.pdb
REMARK                            x       y       z     vdW  Elec       q    Type
REMARK                         _______ _______ _______ _____ _____    ______ ____
ROOT
ATOM      1  C   LIG    1        2.153   0.189   0.985  0.00  0.00    +0.213 C 
ENDROOT
BRANCH   1   2
ATOM      2  C   LIG    1        2.384  -1.179   0.453  0.00  0.00    -0.001 A 
ATOM      3  C   LIG    1        2.789  -2.196   1.286  0.00  0.00    +0.007 A 
ATOM      4  C   LIG    1        3.015  -3.480   0.839  0.00  0.00    +0.000 A 
ATOM      5  C   LIG    1        2.832  -3.778  -0.497  0.00  0.00    +0.000 A 
ATOM      6  C   LIG    1        2.425  -2.772  -1.352  0.00  0.00    +0.000 A 
ATOM      7  C   LIG    1        2.203  -1.490  -0.885  0.00  0.00    +0.007 A 
ENDBRANCH   1   2
BRANCH   1   8
ATOM      8  C   LIG    1        3.123   1.132   0.370  0.00  0.00    -0.001 A 
ATOM      9  C   LIG    1        4.460   0.930   0.569  0.00  0.00    +0.007 A 
ATOM     10  C   LIG    1        5.436   1.757   0.039  0.00  0.00    +0.000 A 
ATOM     11  C   LIG    1        5.042   2.834  -0.725  0.00  0.00    +0.000 A 
ATOM     12  C   LIG    1        3.691   3.070  -0.948  0.00  0.00    +0.000 A 
ATOM     13  C   LIG    1        2.733   2.208  -0.392  0.00  0.00    +0.007 A 
ENDBRANCH   1   8
BRANCH   1  14
ATOM     14  O   LIG    1        2.440   0.156   2.357  0.00  0.00    -0.370 OA
ATOM     15  H   LIG    1        2.465   1.050   2.755  0.00  0.00    +0.212 HD
ENDBRANCH   1  14
BRANCH   1  16
ATOM     16  C   LIG    1        0.749   0.615   0.825  0.00  0.00    +0.348 C 
ATOM     17  O   LIG    1        0.082   0.901   1.846  0.00  0.00    -0.247 OA
BRANCH  16  18
ATOM     18  O   LIG    1        0.141   0.709  -0.411  0.00  0.00    -0.464 OA
BRANCH  18  19
ATOM     19  C   LIG    1       -1.194   1.110  -0.556  0.00  0.00    +0.217 C 
BRANCH  19  20
ATOM     20  C   LIG    1       -2.193   0.205   0.123  0.00  0.00    -0.028 C 
ATOM     21  N   LIG    1       -3.501   0.748  -0.122  0.00  0.00    +0.380 N 
ATOM     22  C   LIG    1       -3.594   2.020   0.574  0.00  0.00    -0.092 C 
ATOM     23  C   LIG    1       -4.575  -0.083   0.358  0.00  0.00    -0.075 C 
ATOM     24  C   LIG    1       -4.124  -1.461   0.763  0.00  0.00    -0.018 C 
ATOM     25  C   LIG    1       -3.169  -2.080  -0.222  0.00  0.00    -0.003 C 
ATOM     26  C   LIG    1       -3.726   1.010  -1.533  0.00  0.00    -0.092 C 
ATOM     27  C   LIG    1       -1.994  -1.169  -0.453  0.00  0.00    -0.012 C 
ENDBRANCH  19  20
ENDBRANCH  18  19
ENDBRANCH  16  18
ENDBRANCH   1  16
TORSDOF 7
