REMARK  Name = molecules/UHZJPVXMMCFPNR-IBGZPJMESA-N.pdb
REMARK                            x       y       z     vdW  Elec       q    Type
REMARK                         _______ _______ _______ _____ _____    ______ ____
ROOT
ATOM      1  C   LIG    1        0.642  -0.035  -0.491  0.00  0.00    +0.066 C 
ENDROOT
BRANCH   1   6
ATOM      2  C   LIG    1        3.942  -1.719  -0.845  0.00  0.00    +0.000 A 
ATOM      3  C   LIG    1        4.184  -2.215   0.413  0.00  0.00    +0.000 A 
ATOM      4  C   LIG    1        3.257  -2.001   1.407  0.00  0.00    +0.000 A 
ATOM      5  C   LIG    1        2.094  -1.286   1.120  0.00  0.00    +0.004 A 
ATOM      6  C   LIG    1        1.886  -0.806  -0.145  0.00  0.00    -0.038 A 
ATOM      7  C   LIG    1        2.807  -1.012  -1.158  0.00  0.00    +0.004 A 
ENDBRANCH   1   6
BRANCH   1   8
ATOM      8  C   LIG    1       -0.515  -0.641   0.192  0.00  0.00    +0.068 C 
ATOM      9  C   LIG    1       -0.499  -2.151   0.024  0.00  0.00    +0.020 C 
ATOM     10  C   LIG    1       -1.559  -2.627  -0.937  0.00  0.00    +0.003 C 
ATOM     11  C   LIG    1       -2.936  -2.142  -0.549  0.00  0.00    +0.015 C 
ATOM     12  C   LIG    1       -2.726  -1.113   0.563  0.00  0.00    +0.085 C 
ATOM     13  N   LIG    1       -1.810  -0.117  -0.043  0.00  0.00    -0.296 NA
BRANCH  13  14
ATOM     14  C   LIG    1       -2.121   1.196   0.368  0.00  0.00    +0.112 C 
BRANCH  14  15
ATOM     15  C   LIG    1       -3.482   1.618  -0.181  0.00  0.00    +0.171 C 
BRANCH  15  16
ATOM     16  O   LIG    1       -3.541   1.597  -1.553  0.00  0.00    -0.394 OA
ATOM     17  H   LIG    1       -4.514   1.512  -1.811  0.00  0.00    +0.209 HD
ENDBRANCH  15  16
ENDBRANCH  14  15
ENDBRANCH  13  14
ENDBRANCH   1   8
BRANCH   1  18
ATOM     18  C   LIG    1        0.960   1.373  -0.118  0.00  0.00    -0.038 A 
ATOM     19  C   LIG    1        1.008   1.826   1.186  0.00  0.00    +0.004 A 
ATOM     20  C   LIG    1        1.319   3.127   1.511  0.00  0.00    +0.000 A 
ATOM     21  C   LIG    1        1.594   4.014   0.493  0.00  0.00    +0.000 A 
ATOM     22  C   LIG    1        1.558   3.608  -0.829  0.00  0.00    +0.000 A 
ATOM     23  C   LIG    1        1.245   2.309  -1.101  0.00  0.00    +0.004 A 
ENDBRANCH   1  18
TORSDOF 6
