REMARK  Name = molecules/UIOFUWFRIANQPC-JKIFEVAISA-N.pdb
REMARK                            x       y       z     vdW  Elec       q    Type
REMARK                         _______ _______ _______ _____ _____    ______ ____
ROOT
ATOM      1  N   LIG    1        0.274  -0.020   0.680  0.00  0.00    -0.298 N 
ATOM      2  H   LIG    1       -0.296  -0.848   0.967  0.00  0.00    +0.150 HD
ATOM      3  C   LIG    1        1.641  -0.054   0.402  0.00  0.00    +0.250 C 
ATOM      4  O   LIG    1        2.185   1.054   0.061  0.00  0.00    -0.270 OA
ENDROOT
BRANCH   1   9
ATOM      5  CA  LIG    1       -3.671   0.351   1.102  0.00  0.00    +0.201 C 
ATOM      6  N   LIG    1       -2.406   0.945   1.210  0.00  0.00    -0.271 N 
ATOM      7  C   LIG    1       -1.242   1.492   1.798  0.00  0.00    +0.240 C 
ATOM      8  O   LIG    1       -0.946   1.986   2.909  0.00  0.00    -0.273 OA
ATOM      9  CA  LIG    1       -0.414   1.273   0.559  0.00  0.00    +0.190 C 
ATOM     10  C   LIG    1       -1.762   1.228  -0.060  0.00  0.00    +0.165 C 
ATOM     11  S   LIG    1       -2.199  -0.328  -0.927  0.00  0.00    -0.127 S 
ATOM     12  C   LIG    1       -3.828  -0.414  -0.138  0.00  0.00    +0.042 C 
ATOM     13  C   LIG    1       -4.293  -1.835   0.046  0.00  0.00    +0.025 C 
ATOM     14  C   LIG    1       -4.812   0.255  -1.083  0.00  0.00    +0.025 C 
BRANCH   5  15
ATOM     15  C   LIG    1       -4.727   1.406   1.156  0.00  0.00    +0.327 C 
ATOM     16  OXT LIG    1       -4.440   2.623   1.279  0.00  0.00    -0.249 OA
BRANCH  15  17
ATOM     17  O   LIG    1       -6.071   1.072   1.071  0.00  0.00    -0.479 OA
ATOM     18  H   LIG    1       -6.773   1.738   0.843  0.00  0.00    +0.295 HD
ENDBRANCH  15  17
ENDBRANCH   5  15
ENDBRANCH   1   9
BRANCH   3  19
ATOM     19  C   LIG    1        2.457  -1.236   0.474  0.00  0.00    +0.106 A 
ATOM     20  C   LIG    1        2.131  -2.511   0.827  0.00  0.00    +0.147 A 
ATOM     21  C   LIG    1        0.840  -3.072   1.242  0.00  0.00    +0.090 C 
ATOM     22  O   LIG    1        3.247  -3.226   0.731  0.00  0.00    -0.359 OA
ATOM     23  N   LIG    1        4.235  -2.496   0.347  0.00  0.00    -0.077 NA
ATOM     24  C   LIG    1        3.838  -1.231   0.160  0.00  0.00    +0.130 A 
BRANCH  24  25
ATOM     25  C   LIG    1        4.598  -0.079  -0.264  0.00  0.00    +0.058 A 
ATOM     26  C   LIG    1        5.226   0.732   0.647  0.00  0.00    +0.053 A 
ATOM     27 CL   LIG    1        5.134   0.406   2.362  0.00  0.00    -0.083 Cl
ATOM     28  C   LIG    1        5.951   1.834   0.219  0.00  0.00    +0.021 A 
ATOM     29  C   LIG    1        6.050   2.129  -1.127  0.00  0.00    +0.004 A 
ATOM     30  C   LIG    1        5.425   1.324  -2.044  0.00  0.00    +0.039 A 
ATOM     31  C   LIG    1        4.695   0.212  -1.603  0.00  0.00    +0.134 A 
ATOM     32  F   LIG    1        4.104  -0.540  -2.554  0.00  0.00    -0.205 F 
ENDBRANCH  24  25
ENDBRANCH   3  19
TORSDOF 5
