REMARK  Name = molecules/UIQMVEYFGZJHCZ-SSTWWWIQSA-N.pdb
REMARK                            x       y       z     vdW  Elec       q    Type
REMARK                         _______ _______ _______ _____ _____    ______ ____
ROOT
ATOM      1  C   LIG    1       -1.969  -2.561   0.129  0.00  0.00    +0.178 C 
ATOM      2  C   LIG    1       -1.730  -1.530   1.153  0.00  0.00    +0.217 C 
ATOM      3  O   LIG    1       -2.849  -0.612   1.225  0.00  0.00    -0.481 OA
ATOM      4  C   LIG    1       -2.678   0.328   0.211  0.00  0.00    +0.166 A 
ATOM      5  C   LIG    1       -1.337   0.380  -0.057  0.00  0.00    +0.012 A 
ATOM      6  C   LIG    1       -0.727   1.152  -0.970  0.00  0.00    -0.038 A 
ATOM      7  C   LIG    1        0.725   1.086  -1.152  0.00  0.00    +0.055 C 
ATOM      8  C   LIG    1        1.393   0.069  -0.299  0.00  0.00    +0.069 C 
ATOM      9  N   LIG    1        1.922   0.581   0.922  0.00  0.00    -0.295 NA
ATOM     10  C   LIG    1        0.963   1.117   1.820  0.00  0.00    +0.086 C 
ATOM     11  C   LIG    1       -0.185   0.174   2.074  0.00  0.00    +0.031 C 
ATOM     12  C   LIG    1        0.517  -1.107   0.097  0.00  0.00    +0.043 C 
ATOM     13  C   LIG    1        0.156  -2.001  -0.989  0.00  0.00    -0.023 C 
ATOM     14  C   LIG    1       -1.550   1.991  -1.722  0.00  0.00    +0.008 A 
ATOM     15  C   LIG    1       -2.918   2.001  -1.513  0.00  0.00    +0.049 A 
ATOM     16  C   LIG    1       -3.479   1.163  -0.539  0.00  0.00    +0.159 A 
ATOM     17  C   LIG    1       -0.636  -0.559   0.844  0.00  0.00    +0.048 C 
ATOM     18  C   LIG    1       -0.989  -2.657  -0.953  0.00  0.00    +0.004 C 
ENDROOT
BRANCH   1  19
ATOM     19  O   LIG    1       -3.240  -2.444  -0.480  0.00  0.00    -0.384 OA
ATOM     20  H   LIG    1       -3.188  -3.043  -1.289  0.00  0.00    +0.210 HD
ENDBRANCH   1  19
BRANCH  16  21
ATOM     21  O   LIG    1       -4.829   1.173  -0.334  0.00  0.00    -0.503 OA
ATOM     22  H   LIG    1       -5.249   0.587   0.349  0.00  0.00    +0.292 HD
ENDBRANCH  16  21
BRANCH   9  23
ATOM     23  C   LIG    1        3.160   1.249   0.870  0.00  0.00    +0.111 C 
BRANCH  23  24
ATOM     24  C   LIG    1        4.220   0.259   0.553  0.00  0.00    -0.019 C 
ATOM     25  C   LIG    1        4.966   0.384  -0.532  0.00  0.00    +0.005 C 
ENDBRANCH  23  24
ENDBRANCH   9  23
TORSDOF 4
