REMARK  Name = molecules/UISARWKNNNHPGI-INIZCTEOSA-N.pdb
REMARK                            x       y       z     vdW  Elec       q    Type
REMARK                         _______ _______ _______ _____ _____    ______ ____
ROOT
ATOM      1  C   LIG    1       -1.255   0.289   0.722  0.00  0.00    +0.050 C 
ENDROOT
BRANCH   1   2
ATOM      2  C   LIG    1       -2.329   1.310   0.546  0.00  0.00    -0.040 A 
ATOM      3  C   LIG    1       -3.577   1.033   1.115  0.00  0.00    +0.004 A 
ATOM      4  C   LIG    1       -4.615   1.935   1.027  0.00  0.00    +0.000 A 
ATOM      5  C   LIG    1       -4.396   3.131   0.356  0.00  0.00    +0.000 A 
ATOM      6  C   LIG    1       -3.193   3.443  -0.212  0.00  0.00    +0.000 A 
ATOM      7  C   LIG    1       -2.162   2.508  -0.106  0.00  0.00    +0.004 A 
ENDBRANCH   1   2
BRANCH   1   8
ATOM      8  C   LIG    1       -1.764  -1.002   0.131  0.00  0.00    -0.040 A 
ATOM      9  C   LIG    1       -1.489  -2.238   0.656  0.00  0.00    +0.004 A 
ATOM     10  C   LIG    1       -1.973  -3.404   0.062  0.00  0.00    +0.000 A 
ATOM     11  C   LIG    1       -2.746  -3.343  -1.079  0.00  0.00    +0.000 A 
ATOM     12  C   LIG    1       -3.024  -2.108  -1.609  0.00  0.00    +0.000 A 
ATOM     13  C   LIG    1       -2.540  -0.967  -1.012  0.00  0.00    +0.004 A 
ENDBRANCH   1   8
BRANCH   1  14
ATOM     14  C   LIG    1       -0.012   0.728   0.034  0.00  0.00    +0.031 C 
BRANCH  14  15
ATOM     15  C   LIG    1        1.124  -0.312   0.181  0.00  0.00    +0.052 C 
ATOM     16  C   LIG    1        1.419  -0.556   1.634  0.00  0.00    +0.024 C 
BRANCH  15  17
ATOM     17  N   LIG    1        2.211   0.111  -0.536  0.00  0.00    -0.309 NA
ATOM     18  H   LIG    1        1.925   0.881  -1.217  0.00  0.00    +0.123 HD
BRANCH  17  19
ATOM     19  C   LIG    1        3.548  -0.016  -0.304  0.00  0.00    +0.011 C 
ATOM     20  C   LIG    1        4.094   0.764   0.868  0.00  0.00    +0.027 C 
ATOM     21  C   LIG    1        4.073  -1.436  -0.103  0.00  0.00    +0.027 C 
ATOM     22  C   LIG    1        4.317   0.510  -1.533  0.00  0.00    +0.027 C 
ENDBRANCH  17  19
ENDBRANCH  15  17
ENDBRANCH  14  15
ENDBRANCH   1  14
TORSDOF 6
