REMARK  Name = molecules/UIYAXIPXULMHAI-JLGRZTKVSA-N.pdb
REMARK                            x       y       z     vdW  Elec       q    Type
REMARK                         _______ _______ _______ _____ _____    ______ ____
ROOT
ATOM      1  C   LIG    1       -0.535   0.257  -0.879  0.00  0.00    +0.124 C 
ATOM      2  N   LIG    1        0.474  -0.613  -0.323  0.00  0.00    -0.249 N 
ATOM      3  C   LIG    1        1.403  -0.125   0.689  0.00  0.00    +0.169 C 
ATOM      4  C   LIG    1        2.128  -1.431   0.571  0.00  0.00    +0.191 C 
ATOM      5  S   LIG    1        2.189   1.326   0.036  0.00  0.00    -0.131 S 
ATOM      6  C   LIG    1        1.177   2.050  -1.244  0.00  0.00    +0.105 C 
ATOM      7  C   LIG    1        1.046  -1.901  -0.318  0.00  0.00    +0.244 C 
ATOM      8  O   LIG    1        0.818  -3.033  -0.816  0.00  0.00    -0.273 OA
ATOM      9  C   LIG    1       -0.216   1.472  -1.275  0.00  0.00    -0.008 C 
ENDROOT
BRANCH   4  10
ATOM     10  N   LIG    1        3.444  -1.370  -0.071  0.00  0.00    -0.296 N 
ATOM     11  C   LIG    1        4.587  -1.894   0.529  0.00  0.00    +0.268 C 
ATOM     12  O   LIG    1        4.357  -2.426   1.685  0.00  0.00    -0.268 OA
ATOM     13  H   LIG    1        3.437  -0.915  -0.979  0.00  0.00    +0.150 HD
BRANCH  11  14
ATOM     14  C   LIG    1        5.927  -1.912   0.034  0.00  0.00    +0.190 C 
ATOM     15  N   LIG    1        6.229  -1.407  -1.114  0.00  0.00    -0.078 NA
BRANCH  14  16
ATOM     16  C   LIG    1        7.038  -2.525   0.848  0.00  0.00    +0.107 A 
ATOM     17  C   LIG    1        6.849  -3.068   2.076  0.00  0.00    +0.078 A 
ATOM     18  S   LIG    1        8.457  -3.584   2.496  0.00  0.00    -0.060 S 
ATOM     19  C   LIG    1        9.244  -3.071   1.081  0.00  0.00    +0.156 A 
ATOM     20  N   LIG    1        8.279  -2.549   0.379  0.00  0.00    -0.223 NA
BRANCH  19  21
ATOM     21  N   LIG    1       10.643  -3.178   0.715  0.00  0.00    -0.338 N 
ATOM     22  H   LIG    1       11.348  -3.074   1.458  0.00  0.00    +0.144 HD
ATOM     23  H   LIG    1       10.943  -3.354  -0.256  0.00  0.00    +0.144 HD
ENDBRANCH  19  21
ENDBRANCH  14  16
BRANCH  15  24
ATOM     24  O   LIG    1        5.338  -0.829  -1.934  0.00  0.00    -0.396 OA
ATOM     25  C   LIG    1        5.687   0.332  -2.665  0.00  0.00    +0.313 C 
ENDBRANCH  15  24
ENDBRANCH  11  14
ENDBRANCH   4  10
BRANCH   1  26
ATOM     26  C   LIG    1       -1.911  -0.304  -0.968  0.00  0.00    +0.356 C 
ATOM     27  O   LIG    1       -2.023  -1.516  -0.544  0.00  0.00    -0.243 OA
BRANCH  26  28
ATOM     28  O   LIG    1       -3.002   0.285  -1.421  0.00  0.00    -0.423 OA
BRANCH  28  29
ATOM     29  C   LIG    1       -4.320  -0.016  -1.576  0.00  0.00    +0.473 C 
BRANCH  29  30
ATOM     30  O   LIG    1       -5.174  -0.261  -0.567  0.00  0.00    -0.427 OA
BRANCH  30  31
ATOM     31  C   LIG    1       -5.377  -1.124   0.428  0.00  0.00    +0.315 C 
ATOM     32  O   LIG    1       -4.585  -2.074   0.581  0.00  0.00    -0.250 OA
BRANCH  31  33
ATOM     33  C   LIG    1       -6.519  -1.030   1.402  0.00  0.00    +0.059 C 
ATOM     34  C   LIG    1       -6.489  -2.174   2.377  0.00  0.00    +0.022 C 
ATOM     35  C   LIG    1       -6.500   0.275   2.122  0.00  0.00    +0.022 C 
ATOM     36  C   LIG    1       -7.778  -1.078   0.545  0.00  0.00    +0.022 C 
ENDBRANCH  31  33
ENDBRANCH  30  31
ENDBRANCH  29  30
ENDBRANCH  28  29
ENDBRANCH  26  28
ENDBRANCH   1  26
BRANCH   9  37
ATOM     37  C   LIG    1       -1.232   2.378  -1.844  0.00  0.00    +0.202 C 
BRANCH  37  38
ATOM     38  N   LIG    1       -1.383   3.576  -1.041  0.00  0.00    -0.159 N 
ATOM     39  N   LIG    1       -2.229   3.712  -0.029  0.00  0.00    -0.136 NA
ATOM     40  C   LIG    1       -2.065   4.952   0.448  0.00  0.00    +0.172 A 
ATOM     41  C   LIG    1       -2.769   5.606   1.585  0.00  0.00    +0.092 C 
ATOM     42  N   LIG    1       -1.121   5.552  -0.282  0.00  0.00    -0.113 NA
ATOM     43  N   LIG    1       -0.731   4.686  -1.176  0.00  0.00    -0.046 NA
ENDBRANCH  37  38
ENDBRANCH   9  37
TORSDOF 13
