REMARK  Name = molecules/UJVLDDZCTMKXJK-WNHSNXHDSA-N.pdb
REMARK                            x       y       z     vdW  Elec       q    Type
REMARK                         _______ _______ _______ _____ _____    ______ ____
ROOT
ATOM      1  C   LIG    1        1.187  -2.144   0.646  0.00  0.00    +0.015 C 
ATOM      2  C   LIG    1        1.503  -0.703   0.413  0.00  0.00    +0.011 C 
ATOM      3  C   LIG    1        0.902   0.166   1.439  0.00  0.00    +0.011 C 
ATOM      4  C   LIG    1       -0.159   1.117   1.003  0.00  0.00    +0.005 C 
ATOM      5  C   LIG    1       -0.943   0.767  -0.188  0.00  0.00    +0.006 C 
ATOM      6  C   LIG    1       -2.399   0.415   0.045  0.00  0.00    -0.003 C 
ATOM      7  C   LIG    1       -3.076   1.259   1.058  0.00  0.00    +0.019 C 
ATOM      8  C   LIG    1       -4.581   1.138   0.977  0.00  0.00    +0.080 C 
ATOM      9  C   LIG    1       -5.066   1.412  -0.388  0.00  0.00    +0.156 C 
ATOM     10  O   LIG    1       -6.167   1.990  -0.559  0.00  0.00    -0.293 OA
ATOM     11  C   LIG    1       -4.237   0.994  -1.510  0.00  0.00    +0.050 C 
ATOM     12  C   LIG    1       -2.533  -1.045   0.472  0.00  0.00    +0.016 C 
ATOM     13  C   LIG    1       -3.018   0.538  -1.317  0.00  0.00    -0.038 C 
ATOM     14  C   LIG    1       -2.232   0.146  -2.476  0.00  0.00    +0.000 C 
ATOM     15  C   LIG    1       -0.972  -0.284  -2.367  0.00  0.00    -0.023 C 
ATOM     16  C   LIG    1       -0.383  -0.356  -1.030  0.00  0.00    +0.019 C 
ATOM     17  C   LIG    1        3.002  -0.576   0.248  0.00  0.00    +0.120 C 
ATOM     18  O   LIG    1        3.724  -1.145   1.299  0.00  0.00    -0.457 OA
ATOM     19  C   LIG    1        4.585  -0.230   1.866  0.00  0.00    +0.308 C 
ATOM     20  O   LIG    1        5.237  -0.410   2.909  0.00  0.00    -0.251 OA
ATOM     21  C   LIG    1        4.619   1.002   1.046  0.00  0.00    +0.124 C 
ATOM     22  C   LIG    1        3.461   0.834   0.071  0.00  0.00    +0.060 C 
ATOM     23  C   LIG    1        3.189  -1.363  -1.059  0.00  0.00    +0.049 C 
ATOM     24  C   LIG    1        1.877  -1.176  -1.834  0.00  0.00    +0.008 C 
ATOM     25  C   LIG    1        1.098  -0.237  -0.995  0.00  0.00    +0.006 C 
ENDROOT
TORSDOF 0
