REMARK  Name = molecules/UKMSUNONTOPOIO-UHFFFAOYSA-N.pdb
REMARK                            x       y       z     vdW  Elec       q    Type
REMARK                         _______ _______ _______ _____ _____    ______ ____
ROOT
ATOM      1  C   LIG    1        1.917   0.006  -2.537  0.00  0.00    -0.000 C 
ENDROOT
BRANCH   1   2
ATOM      2  C   LIG    1        0.640  -0.205  -3.324  0.00  0.00    -0.000 C 
BRANCH   2   3
ATOM      3  C   LIG    1       -0.549  -0.551  -2.501  0.00  0.00    -0.000 C 
BRANCH   3   4
ATOM      4  C   LIG    1       -0.914   0.487  -1.485  0.00  0.00    -0.000 C 
BRANCH   4   5
ATOM      5  C   LIG    1       -2.143   0.055  -0.670  0.00  0.00    -0.000 C 
BRANCH   5   6
ATOM      6  C   LIG    1       -3.335  -0.159  -1.535  0.00  0.00    -0.000 C 
BRANCH   6   7
ATOM      7  C   LIG    1       -4.512  -0.600  -0.722  0.00  0.00    -0.000 C 
BRANCH   7   8
ATOM      8  C   LIG    1       -4.862   0.438   0.292  0.00  0.00    -0.000 C 
BRANCH   8   9
ATOM      9  C   LIG    1       -6.069   0.054   1.153  0.00  0.00    -0.000 C 
BRANCH   9  10
ATOM     10  C   LIG    1       -7.272  -0.147   0.316  0.00  0.00    -0.000 C 
BRANCH  10  11
ATOM     11  C   LIG    1       -8.490  -0.566   1.033  0.00  0.00    -0.000 C 
BRANCH  11  12
ATOM     12  C   LIG    1       -9.051   0.303   2.092  0.00  0.00    -0.003 C 
ATOM     13  C   LIG    1       -8.214   0.553   3.296  0.00  0.00    +0.004 C 
ENDBRANCH  11  12
ENDBRANCH  10  11
ENDBRANCH   9  10
ENDBRANCH   8   9
ENDBRANCH   7   8
ENDBRANCH   6   7
ENDBRANCH   5   6
ENDBRANCH   4   5
ENDBRANCH   3   4
ENDBRANCH   2   3
ENDBRANCH   1   2
BRANCH   1  14
ATOM     14  C   LIG    1        2.244  -1.257  -1.804  0.00  0.00    -0.000 C 
BRANCH  14  15
ATOM     15  C   LIG    1        3.505  -1.060  -1.000  0.00  0.00    -0.000 C 
BRANCH  15  16
ATOM     16  C   LIG    1        4.644  -0.711  -1.908  0.00  0.00    +0.000 C 
BRANCH  16  17
ATOM     17  C   LIG    1        5.940  -0.551  -1.118  0.00  0.00    +0.000 C 
BRANCH  17  18
ATOM     18  C   LIG    1        5.756   0.542  -0.122  0.00  0.00    +0.000 C 
BRANCH  18  19
ATOM     19  C   LIG    1        6.989   0.820   0.718  0.00  0.00    +0.001 C 
BRANCH  19  20
ATOM     20  C   LIG    1        7.360  -0.415   1.481  0.00  0.00    +0.011 C 
BRANCH  20  21
ATOM     21  C   LIG    1        8.588  -0.122   2.309  0.00  0.00    +0.120 C 
BRANCH  21  22
ATOM     22  C   LIG    1        8.279   0.977   3.239  0.00  0.00    +0.305 C 
ATOM     23  O   LIG    1        8.410   2.160   2.866  0.00  0.00    -0.251 OA
BRANCH  22  24
ATOM     24  O   LIG    1        7.844   0.720   4.520  0.00  0.00    -0.481 OA
ATOM     25  H   LIG    1        7.714   1.391   5.239  0.00  0.00    +0.295 HD
ENDBRANCH  22  24
ENDBRANCH  21  22
ENDBRANCH  20  21
ENDBRANCH  19  20
ENDBRANCH  18  19
ENDBRANCH  17  18
ENDBRANCH  16  17
ENDBRANCH  15  16
ENDBRANCH  14  15
ENDBRANCH   1  14
TORSDOF 21
