REMARK  Name = molecules/UKTIJASCFRNWCB-RMIBSVFLSA-N.pdb
REMARK                            x       y       z     vdW  Elec       q    Type
REMARK                         _______ _______ _______ _____ _____    ______ ____
ROOT
ATOM      1  C   LIG    1       -2.714   0.051  -0.319  0.00  0.00    +0.229 C 
ATOM      2  O   LIG    1       -2.493   1.093   0.574  0.00  0.00    -0.477 OA
ATOM      3  C   LIG    1       -3.271   1.313   1.691  0.00  0.00    +0.204 C 
ATOM      4  C   LIG    1       -4.435   0.698   1.803  0.00  0.00    +0.068 C 
ATOM      5  C   LIG    1       -4.976  -0.232   0.794  0.00  0.00    +0.196 C 
ATOM      6  C   LIG    1       -4.167  -0.275  -0.449  0.00  0.00    +0.157 C 
ENDROOT
BRANCH   6   7
ATOM      7  N   LIG    1       -4.745   0.690  -1.401  0.00  0.00    -0.305 N 
ATOM      8  H   LIG    1       -4.798   1.696  -1.143  0.00  0.00    +0.149 HD
ATOM      9  C   LIG    1       -5.234   0.289  -2.662  0.00  0.00    +0.210 C 
ATOM     10  O   LIG    1       -5.158  -0.929  -2.954  0.00  0.00    -0.276 OA
ATOM     11  C   LIG    1       -5.822   1.218  -3.642  0.00  0.00    +0.109 C 
ENDBRANCH   6   7
BRANCH   5  12
ATOM     12  N   LIG    1       -5.285  -1.550   1.323  0.00  0.00    -0.268 N 
ATOM     13  H   LIG    1       -4.963  -2.415   0.838  0.00  0.00    +0.259 HD
BRANCH  12  14
ATOM     14  C   LIG    1       -6.039  -1.706   2.504  0.00  0.00    +0.377 C 
ATOM     15  N   LIG    1       -5.571  -1.149   3.708  0.00  0.00    -0.289 N 
ATOM     16  H   LIG    1       -6.255  -0.601   4.294  0.00  0.00    +0.255 HD
ATOM     17  H   LIG    1       -4.584  -1.248   4.050  0.00  0.00    +0.255 HD
BRANCH  14  18
ATOM     18  N   LIG    1       -7.135  -2.352   2.478  0.00  0.00    -0.130 NA
ATOM     19  H   LIG    1       -7.475  -2.765   1.594  0.00  0.00    +0.306 HD
ENDBRANCH  14  18
ENDBRANCH  12  14
ENDBRANCH   5  12
BRANCH   3  20
ATOM     20  C   LIG    1       -2.812   2.229   2.757  0.00  0.00    +0.372 C 
ATOM     21  O   LIG    1       -3.543   2.392   3.742  0.00  0.00    -0.242 OA
BRANCH  20  22
ATOM     22  O   LIG    1       -1.609   2.857   2.618  0.00  0.00    -0.475 OA
ATOM     23  H   LIG    1       -1.545   3.659   1.970  0.00  0.00    +0.296 HD
ENDBRANCH  20  22
ENDBRANCH   3  20
BRANCH   1  24
ATOM     24  C   LIG    1       -1.846  -1.143  -0.117  0.00  0.00    +0.192 C 
BRANCH  24  25
ATOM     25  O   LIG    1       -2.017  -1.764   1.103  0.00  0.00    -0.373 OA
ATOM     26  C   LIG    1       -2.148  -3.140   0.939  0.00  0.00    +0.194 C 
ENDBRANCH  24  25
BRANCH  24  27
ATOM     27  C   LIG    1       -0.392  -0.644  -0.094  0.00  0.00    +0.184 C 
BRANCH  27  28
ATOM     28  O   LIG    1       -0.148   0.210   0.948  0.00  0.00    -0.386 OA
ATOM     29  H   LIG    1        0.044  -0.250   1.819  0.00  0.00    +0.210 HD
ENDBRANCH  27  28
BRANCH  27  30
ATOM     30  C   LIG    1        0.049  -0.077  -1.391  0.00  0.00    +0.266 C 
BRANCH  30  31
ATOM     31  O   LIG    1        1.408   0.151  -1.547  0.00  0.00    -0.462 OA
BRANCH  31  32
ATOM     32  C   LIG    1        2.268   0.910  -0.828  0.00  0.00    +0.307 C 
ATOM     33  O   LIG    1        1.872   1.546   0.167  0.00  0.00    -0.251 OA
BRANCH  32  34
ATOM     34  C   LIG    1        3.739   1.023  -1.190  0.00  0.00    +0.120 C 
BRANCH  34  35
ATOM     35  C   LIG    1        4.530   0.936   0.056  0.00  0.00    +0.011 C 
BRANCH  35  36
ATOM     36  C   LIG    1        6.022   1.119  -0.222  0.00  0.00    +0.001 C 
BRANCH  36  37
ATOM     37  C   LIG    1        6.478   0.102  -1.199  0.00  0.00    +0.000 C 
BRANCH  37  38
ATOM     38  C   LIG    1        7.890   0.132  -1.605  0.00  0.00    -0.000 C 
BRANCH  38  39
ATOM     39  C   LIG    1        8.893  -0.077  -0.547  0.00  0.00    -0.003 C 
ATOM     40  C   LIG    1        9.018   0.930   0.541  0.00  0.00    +0.004 C 
ENDBRANCH  38  39
ENDBRANCH  37  38
ENDBRANCH  36  37
ENDBRANCH  35  36
ENDBRANCH  34  35
ENDBRANCH  32  34
ENDBRANCH  31  32
ENDBRANCH  30  31
ENDBRANCH  27  30
ENDBRANCH  24  27
ENDBRANCH   1  24
TORSDOF 19
