REMARK  Name = molecules/ULBNWNUHGJLQHO-VKMIBBQISA-N.pdb
REMARK                            x       y       z     vdW  Elec       q    Type
REMARK                         _______ _______ _______ _____ _____    ______ ____
ROOT
ATOM      1  C   LIG    1        0.543   1.388  -0.544  0.00  0.00    +0.133 C 
ATOM      2  C   LIG    1       -0.913   1.470  -0.148  0.00  0.00    +0.172 C 
ATOM      3  C   LIG    1       -1.669   0.292  -0.783  0.00  0.00    +0.206 C 
ATOM      4  C   LIG    1       -1.154  -0.920  -0.023  0.00  0.00    +0.052 C 
ATOM      5  C   LIG    1        0.287  -1.121  -0.312  0.00  0.00    +0.011 C 
ATOM      6  C   LIG    1        0.972  -1.552   0.963  0.00  0.00    +0.089 C 
ATOM      7  N   LIG    1        2.373  -1.794   0.781  0.00  0.00    -0.293 NA
ATOM      8  C   LIG    1        2.957  -2.020   2.106  0.00  0.00    +0.090 C 
ATOM      9  C   LIG    1        4.393  -2.479   1.985  0.00  0.00    +0.053 C 
ATOM     10  C   LIG    1        5.051  -2.008   0.756  0.00  0.00    -0.016 A 
ATOM     11  C   LIG    1        6.307  -2.320   0.237  0.00  0.00    +0.007 A 
ATOM     12  C   LIG    1        7.316  -3.149   0.698  0.00  0.00    +0.056 A 
ATOM     13  C   LIG    1        8.501  -3.289  -0.016  0.00  0.00    +0.121 A 
ATOM     14  C   LIG    1        8.606  -2.568  -1.183  0.00  0.00    +0.047 A 
ATOM     15  C   LIG    1        7.605  -1.743  -1.644  0.00  0.00    +0.030 A 
ATOM     16  C   LIG    1        6.420  -1.606  -0.925  0.00  0.00    +0.047 A 
ATOM     17  N   LIG    1        5.293  -0.898  -1.102  0.00  0.00    -0.356 N 
ATOM     18  H   LIG    1        5.127  -0.264  -1.925  0.00  0.00    +0.166 HD
ATOM     19  C   LIG    1        4.437  -1.120  -0.095  0.00  0.00    +0.038 A 
ATOM     20  C   LIG    1        3.077  -0.637   0.258  0.00  0.00    +0.104 C 
ATOM     21  C   LIG    1        2.454  -0.087  -0.981  0.00  0.00    +0.030 C 
ATOM     22  C   LIG    1        0.977   0.035  -0.982  0.00  0.00    +0.012 C 
ENDROOT
BRANCH   1  23
ATOM     23  C   LIG    1        1.396   2.051   0.455  0.00  0.00    +0.313 C 
ATOM     24  O   LIG    1        0.943   2.156   1.636  0.00  0.00    -0.250 OA
BRANCH  23  25
ATOM     25  O   LIG    1        2.655   2.579   0.244  0.00  0.00    -0.468 OA
ATOM     26  C   LIG    1        3.387   3.199   1.312  0.00  0.00    +0.280 C 
ENDBRANCH  23  25
ENDBRANCH   1  23
BRANCH   2  27
ATOM     27  O   LIG    1       -1.539   2.647  -0.452  0.00  0.00    -0.375 OA
ATOM     28  C   LIG    1       -2.108   3.263   0.643  0.00  0.00    +0.194 C 
ENDBRANCH   2  27
BRANCH  13  29
ATOM     29  O   LIG    1        9.511  -4.122   0.448  0.00  0.00    -0.495 OA
ATOM     30  C   LIG    1       10.704  -4.245  -0.304  0.00  0.00    +0.277 C 
ENDBRANCH  13  29
BRANCH   3  31
ATOM     31  O   LIG    1       -2.990   0.439  -0.838  0.00  0.00    -0.455 OA
BRANCH  31  32
ATOM     32  C   LIG    1       -4.107   0.456  -1.470  0.00  0.00    +0.340 C 
ATOM     33  O   LIG    1       -4.009   0.212  -2.748  0.00  0.00    -0.245 OA
BRANCH  32  34
ATOM     34  C   LIG    1       -5.454   0.711  -0.920  0.00  0.00    +0.066 A 
ATOM     35  C   LIG    1       -5.599   1.012   0.410  0.00  0.00    +0.064 A 
ATOM     36  C   LIG    1       -6.876   1.256   0.938  0.00  0.00    +0.166 A 
ATOM     37  C   LIG    1       -8.013   1.210   0.174  0.00  0.00    +0.204 A 
ATOM     38  C   LIG    1       -7.847   0.903  -1.179  0.00  0.00    +0.166 A 
ATOM     39  C   LIG    1       -6.588   0.665  -1.683  0.00  0.00    +0.064 A 
BRANCH  36  40
ATOM     40  O   LIG    1       -6.992   1.560   2.306  0.00  0.00    -0.491 OA
ATOM     41  C   LIG    1       -5.878   1.615   3.135  0.00  0.00    +0.277 C 
ENDBRANCH  36  40
BRANCH  37  42
ATOM     42  O   LIG    1       -9.281   1.447   0.679  0.00  0.00    -0.488 OA
ATOM     43  C   LIG    1       -9.918   2.702   0.736  0.00  0.00    +0.277 C 
ENDBRANCH  37  42
BRANCH  38  44
ATOM     44  O   LIG    1       -9.007   0.852  -1.980  0.00  0.00    -0.491 OA
ATOM     45  C   LIG    1       -9.011   0.566  -3.334  0.00  0.00    +0.277 C 
ENDBRANCH  38  44
ENDBRANCH  32  34
ENDBRANCH  31  32
ENDBRANCH   3  31
TORSDOF 10
