REMARK  Name = molecules/ULGZDMOVFRHVEP-RWJQBGPGSA-N.pdb
REMARK                            x       y       z     vdW  Elec       q    Type
REMARK                         _______ _______ _______ _____ _____    ______ ____
ROOT
ATOM      1  C   LIG    1        1.241  -0.716  -0.080  0.00  0.00    +0.158 C 
ATOM      2  C   LIG    1        0.788  -1.578   1.062  0.00  0.00    +0.090 C 
ATOM      3  C   LIG    1        0.297  -0.898   2.273  0.00  0.00    +0.044 C 
ATOM      4  C   LIG    1       -0.182  -2.660   0.677  0.00  0.00    +0.048 C 
ATOM      5  C   LIG    1        0.436  -3.992   0.342  0.00  0.00    +0.055 C 
ATOM      6  C   LIG    1        1.042  -4.642   1.577  0.00  0.00    +0.015 C 
ATOM      7  C   LIG    1       -0.696  -4.867  -0.070  0.00  0.00    +0.142 C 
ATOM      8  C   LIG    1       -1.923  -5.086   0.743  0.00  0.00    +0.084 C 
ATOM      9  C   LIG    1       -2.008  -6.607   0.942  0.00  0.00    +0.018 C 
ATOM     10  C   LIG    1       -3.183  -4.610   0.061  0.00  0.00    +0.159 C 
ATOM     11  C   LIG    1       -4.121  -3.847   0.927  0.00  0.00    +0.126 C 
ATOM     12  C   LIG    1       -3.747  -3.799   2.385  0.00  0.00    +0.048 C 
ATOM     13  C   LIG    1       -4.355  -2.414   0.400  0.00  0.00    +0.210 C 
ATOM     14  O   LIG    1       -3.258  -1.689   0.771  0.00  0.00    -0.458 OA
ATOM     15  C   LIG    1       -2.768  -0.465   0.606  0.00  0.00    +0.313 C 
ATOM     16  O   LIG    1       -2.710   0.369   1.554  0.00  0.00    -0.250 OA
ATOM     17  C   LIG    1       -2.254   0.011  -0.701  0.00  0.00    +0.124 C 
ATOM     18  C   LIG    1       -0.930   0.608  -0.744  0.00  0.00    +0.140 C 
ATOM     19  C   LIG    1       -2.704  -0.809  -1.877  0.00  0.00    +0.022 C 
ATOM     20  O   LIG    1       -0.625  -5.445  -1.139  0.00  0.00    -0.297 OA
ATOM     21  C   LIG    1        0.364   0.019  -0.941  0.00  0.00    +0.047 C 
ATOM     22  C   LIG    1        0.379  -0.689  -2.329  0.00  0.00    +0.013 C 
ENDROOT
BRANCH   2  23
ATOM     23  O   LIG    1        1.922  -2.369   1.493  0.00  0.00    -0.386 OA
ATOM     24  H   LIG    1        2.324  -1.961   2.287  0.00  0.00    +0.210 HD
ENDBRANCH   2  23
BRANCH  11  25
ATOM     25  O   LIG    1       -5.418  -4.419   0.895  0.00  0.00    -0.383 OA
ATOM     26  H   LIG    1       -5.772  -4.340  -0.024  0.00  0.00    +0.210 HD
ENDBRANCH  11  25
BRANCH  13  27
ATOM     27  C   LIG    1       -5.673  -1.895   0.954  0.00  0.00    +0.044 C 
ATOM     28  C   LIG    1       -5.953  -0.481   0.507  0.00  0.00    +0.007 C 
ENDBRANCH  13  27
BRANCH  10  29
ATOM     29  O   LIG    1       -3.875  -5.742  -0.439  0.00  0.00    -0.388 OA
ATOM     30  H   LIG    1       -4.530  -6.023   0.258  0.00  0.00    +0.210 HD
ENDBRANCH  10  29
BRANCH   1  31
ATOM     31  O   LIG    1        2.354   0.074   0.379  0.00  0.00    -0.342 OA
BRANCH  31  32
ATOM     32  C   LIG    1        3.582  -0.284  -0.021  0.00  0.00    +0.281 C 
ATOM     33  O   LIG    1        4.458  -0.677   0.953  0.00  0.00    -0.346 OA
ATOM     34  C   LIG    1        5.380   0.245   1.393  0.00  0.00    +0.120 C 
ATOM     35  C   LIG    1        4.773   1.395   2.158  0.00  0.00    +0.038 C 
ATOM     36  C   LIG    1        6.269   0.757   0.279  0.00  0.00    +0.053 C 
ATOM     37  C   LIG    1        5.643   0.518  -1.074  0.00  0.00    +0.092 C 
ATOM     38  C   LIG    1        4.172   0.779  -0.915  0.00  0.00    +0.187 C 
BRANCH  37  39
ATOM     39  N   LIG    1        6.225   1.282  -2.125  0.00  0.00    -0.303 NA
ATOM     40  C   LIG    1        6.191   2.699  -1.979  0.00  0.00    +0.105 C 
ATOM     41  C   LIG    1        7.586   0.866  -2.396  0.00  0.00    +0.105 C 
ENDBRANCH  37  39
BRANCH  38  42
ATOM     42  O   LIG    1        3.598   0.668  -2.182  0.00  0.00    -0.385 OA
ATOM     43  H   LIG    1        3.779  -0.257  -2.489  0.00  0.00    +0.210 HD
ENDBRANCH  38  42
ENDBRANCH  31  32
ENDBRANCH   1  31
BRANCH  18  44
ATOM     44  O   LIG    1       -0.897   1.497   0.353  0.00  0.00    -0.347 OA
BRANCH  44  45
ATOM     45  C   LIG    1       -0.981   2.816   0.061  0.00  0.00    +0.254 C 
ATOM     46  C   LIG    1       -2.237   3.458   0.610  0.00  0.00    +0.098 C 
ATOM     47  C   LIG    1       -2.014   4.965   0.717  0.00  0.00    +0.099 C 
ATOM     48  C   LIG    1       -3.307   5.723   0.653  0.00  0.00    +0.044 C 
ATOM     49  C   LIG    1       -1.170   5.340  -0.474  0.00  0.00    +0.175 C 
ATOM     50  C   LIG    1        0.204   4.706  -0.392  0.00  0.00    +0.149 C 
ATOM     51  C   LIG    1        0.604   4.304  -1.796  0.00  0.00    +0.041 C 
ATOM     52  O   LIG    1        0.168   3.543   0.379  0.00  0.00    -0.346 OA
BRANCH  47  53
ATOM     53  O   LIG    1       -1.363   5.195   1.904  0.00  0.00    -0.374 OA
ATOM     54  C   LIG    1       -1.069   6.501   2.195  0.00  0.00    +0.194 C 
ENDBRANCH  47  53
BRANCH  49  55
ATOM     55  O   LIG    1       -1.005   6.714  -0.560  0.00  0.00    -0.386 OA
ATOM     56  H   LIG    1       -1.578   7.115  -1.271  0.00  0.00    +0.210 HD
ENDBRANCH  49  55
ENDBRANCH  44  45
ENDBRANCH  18  44
TORSDOF 12
