REMARK  Name = molecules/ULSDMUVEXKOYBU-ZDUSSCGKSA-N.pdb
REMARK                            x       y       z     vdW  Elec       q    Type
REMARK                         _______ _______ _______ _____ _____    ______ ____
ROOT
ATOM      1  C   LIG    1        1.317   0.262   0.520  0.00  0.00    -0.021 A 
ATOM      2  C   LIG    1        1.821   1.099   1.475  0.00  0.00    +0.087 A 
ATOM      3  N   LIG    1        0.931   1.275   2.456  0.00  0.00    -0.360 N 
ATOM      4  H   LIG    1        1.022   1.848   3.317  0.00  0.00    +0.165 HD
ATOM      5  C   LIG    1       -0.178   0.561   2.175  0.00  0.00    +0.047 A 
ATOM      6  C   LIG    1       -1.392   0.391   2.847  0.00  0.00    +0.026 A 
ATOM      7  C   LIG    1       -2.382  -0.422   2.304  0.00  0.00    +0.006 A 
ATOM      8  C   LIG    1       -2.158  -1.047   1.117  0.00  0.00    -0.045 A 
ATOM      9  C   LIG    1       -0.943  -0.864   0.469  0.00  0.00    +0.014 A 
ATOM     10  C   LIG    1        0.040  -0.066   0.994  0.00  0.00    +0.003 A 
ENDROOT
BRANCH   1  11
ATOM     11  C   LIG    1        1.867  -0.292  -0.725  0.00  0.00    +0.052 C 
BRANCH  11  12
ATOM     12  C   LIG    1        3.349  -0.437  -0.722  0.00  0.00    +0.088 C 
BRANCH  12  13
ATOM     13  N   LIG    1        4.059   0.832  -0.603  0.00  0.00    -0.308 NA
ATOM     14  C   LIG    1        5.479   0.524  -0.501  0.00  0.00    +0.104 C 
ATOM     15  C   LIG    1        3.818   1.664  -1.785  0.00  0.00    +0.104 C 
ENDBRANCH  12  13
ENDBRANCH  11  12
ENDBRANCH   1  11
BRANCH   8  16
ATOM     16  C   LIG    1       -3.109  -1.931   0.422  0.00  0.00    +0.061 C 
BRANCH  16  17
ATOM     17  C   LIG    1       -4.025  -1.280  -0.538  0.00  0.00    +0.118 C 
ATOM     18  C   LIG    1       -5.047  -0.417   0.124  0.00  0.00    +0.256 C 
ATOM     19  O   LIG    1       -4.657   0.894  -0.269  0.00  0.00    -0.449 OA
ATOM     20  C   LIG    1       -4.045   0.777  -1.536  0.00  0.00    +0.401 C 
ATOM     21  O   LIG    1       -4.048   1.663  -2.400  0.00  0.00    -0.226 OA
ATOM     22  N   LIG    1       -3.441  -0.534  -1.608  0.00  0.00    -0.275 N 
ATOM     23  H   LIG    1       -2.739  -0.769  -2.329  0.00  0.00    +0.152 HD
ENDBRANCH  16  17
ENDBRANCH   8  16
TORSDOF 5
