REMARK  Name = molecules/UMILHIMHKXVDGH-RYUDHWBXSA-N.pdb
REMARK                            x       y       z     vdW  Elec       q    Type
REMARK                         _______ _______ _______ _____ _____    ______ ____
ROOT
ATOM      1  C   LIG    1        0.168   0.837   1.691  0.00  0.00    +0.188 C 
ENDROOT
BRANCH   1   2
ATOM      2  O   LIG    1       -1.080   0.888   2.247  0.00  0.00    -0.375 OA
BRANCH   2   3
ATOM      3  C   LIG    1       -2.096   0.900   1.336  0.00  0.00    +0.188 C 
BRANCH   3   4
ATOM      4  C   LIG    1       -2.069  -0.311   0.463  0.00  0.00    +0.188 C 
BRANCH   4   5
ATOM      5  O   LIG    1       -3.074  -0.347  -0.466  0.00  0.00    -0.375 OA
BRANCH   5   6
ATOM      6  C   LIG    1       -4.320  -0.351   0.101  0.00  0.00    +0.193 C 
BRANCH   6   7
ATOM      7  C   LIG    1       -5.313  -0.449  -1.070  0.00  0.00    +0.169 C 
ATOM      8  O   LIG    1       -6.661  -0.477  -0.794  0.00  0.00    -0.369 OA
ATOM      9  C   LIG    1       -6.046  -1.762  -1.129  0.00  0.00    +0.194 C 
ENDBRANCH   6   7
ENDBRANCH   5   6
ENDBRANCH   4   5
ENDBRANCH   3   4
ENDBRANCH   2   3
ENDBRANCH   1   2
BRANCH   1  10
ATOM     10  C   LIG    1        0.373   2.007   0.773  0.00  0.00    +0.188 C 
BRANCH  10  11
ATOM     11  O   LIG    1        1.634   1.987   0.216  0.00  0.00    -0.375 OA
BRANCH  11  12
ATOM     12  C   LIG    1        1.815   0.849  -0.532  0.00  0.00    +0.188 C 
BRANCH  12  13
ATOM     13  C   LIG    1        3.237   0.961  -1.134  0.00  0.00    +0.188 C 
BRANCH  13  14
ATOM     14  O   LIG    1        4.131   1.048  -0.115  0.00  0.00    -0.375 OA
BRANCH  14  15
ATOM     15  C   LIG    1        4.203   0.026   0.760  0.00  0.00    +0.193 C 
BRANCH  15  16
ATOM     16  C   LIG    1        4.685  -1.304   0.322  0.00  0.00    +0.169 C 
ATOM     17  O   LIG    1        6.123  -1.149  -0.093  0.00  0.00    -0.369 OA
ATOM     18  C   LIG    1        5.130  -1.757  -0.931  0.00  0.00    +0.194 C 
ENDBRANCH  15  16
ENDBRANCH  14  15
ENDBRANCH  13  14
ENDBRANCH  12  13
ENDBRANCH  11  12
ENDBRANCH  10  11
ENDBRANCH   1  10
TORSDOF 13
