REMARK  Name = molecules/UMJHTFHIQDEGKB-UHFFFAOYSA-N.pdb
REMARK                            x       y       z     vdW  Elec       q    Type
REMARK                         _______ _______ _______ _____ _____    ______ ____
ROOT
ATOM      1  C   LIG    1        0.540   0.425   0.328  0.00  0.00    +0.082 A 
ATOM      2  C   LIG    1       -0.457  -0.448   0.635  0.00  0.00    +0.021 A 
ATOM      3  C   LIG    1       -1.770  -0.204   0.202  0.00  0.00    -0.039 A 
ATOM      4  C   LIG    1       -1.991   0.932  -0.530  0.00  0.00    +0.053 A 
ATOM      5  C   LIG    1       -1.025   1.837  -0.862  0.00  0.00    +0.162 A 
ATOM      6  C   LIG    1        0.255   1.573  -0.424  0.00  0.00    +0.171 A 
ENDROOT
BRANCH   1   7
ATOM      7  C   LIG    1        1.917   0.196   0.766  0.00  0.00    +0.248 C 
ATOM      8  N   LIG    1        2.268  -0.941   1.526  0.00  0.00    -0.309 N 
ATOM      9  H   LIG    1        1.524  -1.651   1.800  0.00  0.00    +0.149 HD
ATOM     10  O   LIG    1        2.801   1.049   0.447  0.00  0.00    -0.270 OA
BRANCH   8  11
ATOM     11  C   LIG    1        3.642  -1.141   1.935  0.00  0.00    +0.132 C 
BRANCH  11  12
ATOM     12  C   LIG    1        4.505  -1.297   0.718  0.00  0.00    +0.174 C 
BRANCH  12  13
ATOM     13  O   LIG    1        5.848  -1.498   1.062  0.00  0.00    -0.393 OA
ATOM     14  H   LIG    1        5.985  -1.135   1.993  0.00  0.00    +0.209 HD
ENDBRANCH  12  13
ENDBRANCH  11  12
ENDBRANCH   8  11
ENDBRANCH   1   7
BRANCH   5  15
ATOM     15  O   LIG    1       -1.224   2.993  -1.600  0.00  0.00    -0.491 OA
ATOM     16  C   LIG    1       -2.464   3.401  -2.116  0.00  0.00    +0.277 C 
ENDBRANCH   5  15
BRANCH   6  17
ATOM     17  O   LIG    1        1.306   2.432  -0.711  0.00  0.00    -0.503 OA
ATOM     18  H   LIG    1        1.137   3.263  -1.247  0.00  0.00    +0.292 HD
ENDBRANCH   6  17
BRANCH   3  19
ATOM     19  C   LIG    1       -2.875  -1.159   0.534  0.00  0.00    +0.061 C 
BRANCH  19  20
ATOM     20  C   LIG    1       -2.967  -2.162  -0.530  0.00  0.00    -0.030 C 
ATOM     21  C   LIG    1       -4.073  -2.313  -1.238  0.00  0.00    +0.004 C 
ENDBRANCH  19  20
ENDBRANCH   3  19
TORSDOF 8
