REMARK  Name = molecules/UMKFEPPTGMDVMI-QGZVFWFLSA-N.pdb
REMARK                            x       y       z     vdW  Elec       q    Type
REMARK                         _______ _______ _______ _____ _____    ______ ____
ROOT
ATOM      1  P   LIG    1       -0.094  -0.522  -0.785  0.00  0.00    +0.348 P 
ATOM      2  N   LIG    1        1.160   0.291   0.113  0.00  0.00    -0.218 NA
ATOM      3  C   LIG    1        2.438  -0.321  -0.022  0.00  0.00    +0.097 C 
ATOM      4  C   LIG    1        2.422  -1.830   0.042  0.00  0.00    +0.044 C 
ATOM      5  C   LIG    1        1.436  -2.470  -0.876  0.00  0.00    +0.171 C 
ATOM      6  O   LIG    1        0.116  -2.182  -0.559  0.00  0.00    -0.305 OA
ATOM      7  O   LIG    1        0.120  -0.201  -2.244  0.00  0.00    -0.254 OA
ENDROOT
BRANCH   1   8
ATOM      8  N   LIG    1       -1.696  -0.105  -0.259  0.00  0.00    -0.217 NA
BRANCH   8   9
ATOM      9  C   LIG    1       -1.871  -0.091   1.138  0.00  0.00    +0.111 C 
BRANCH   9  10
ATOM     10  C   LIG    1       -1.093  -1.290   1.727  0.00  0.00    +0.124 C 
ATOM     11 CL   LIG    1       -1.289  -1.312   3.496  0.00  0.00    -0.124 Cl
ENDBRANCH   9  10
ENDBRANCH   8   9
BRANCH   8  12
ATOM     12  C   LIG    1       -2.310   0.876  -1.056  0.00  0.00    +0.111 C 
BRANCH  12  13
ATOM     13  C   LIG    1       -3.781   0.807  -1.181  0.00  0.00    +0.124 C 
ATOM     14 CL   LIG    1       -4.646   0.978   0.348  0.00  0.00    -0.124 Cl
ENDBRANCH  12  13
ENDBRANCH   8  12
ENDBRANCH   1   8
BRANCH   2  15
ATOM     15  C   LIG    1        1.288   1.693  -0.229  0.00  0.00    +0.110 C 
BRANCH  15  16
ATOM     16  C   LIG    1        2.116   2.439   0.797  0.00  0.00    +0.124 C 
ATOM     17 CL   LIG    1        1.386   2.338   2.415  0.00  0.00    -0.124 Cl
ENDBRANCH  15  16
ENDBRANCH   2  15
TORSDOF 7
