REMARK  Name = molecules/UMSGKTJDUHERQW-UHFFFAOYSA-N.pdb
REMARK                            x       y       z     vdW  Elec       q    Type
REMARK                         _______ _______ _______ _____ _____    ______ ____
ROOT
ATOM      1 BR   LIG    1        0.755   3.977   2.982  0.00  0.00    -0.042 Br
ATOM      2  C   LIG    1        0.920   2.531   1.741  0.00  0.00    +0.058 A 
ATOM      3  S   LIG    1        2.352   1.705   1.278  0.00  0.00    -0.063 S 
ATOM      4  C   LIG    1        1.681   0.602   0.184  0.00  0.00    +0.097 A 
ATOM      5  C   LIG    1        0.334   0.886   0.195  0.00  0.00    +0.033 A 
ATOM      6  C   LIG    1       -0.663   0.134  -0.594  0.00  0.00    +0.077 C 
ATOM      7  N   LIG    1       -0.408  -0.376  -1.785  0.00  0.00    -0.275 NA
ATOM      8  C   LIG    1        0.797  -0.364  -2.594  0.00  0.00    +0.218 C 
ATOM      9  C   LIG    1        2.005  -0.803  -1.867  0.00  0.00    +0.160 A 
ATOM     10  N   LIG    1        2.946  -1.653  -2.223  0.00  0.00    -0.132 NA
ATOM     11  N   LIG    1        3.868  -1.727  -1.245  0.00  0.00    -0.134 NA
ATOM     12  C   LIG    1        3.523  -0.914  -0.236  0.00  0.00    +0.135 A 
ATOM     13  C   LIG    1        4.190  -0.619   1.057  0.00  0.00    +0.088 C 
ATOM     14  N   LIG    1        2.378  -0.354  -0.630  0.00  0.00    -0.275 N 
ATOM     15  C   LIG    1       -0.050   1.901   1.011  0.00  0.00    +0.035 A 
ENDROOT
BRANCH   6  16
ATOM     16  C   LIG    1       -2.003  -0.081  -0.116  0.00  0.00    +0.019 A 
ATOM     17  C   LIG    1       -2.381   0.139   1.171  0.00  0.00    +0.011 A 
ATOM     18  C   LIG    1       -3.653  -0.176   1.636  0.00  0.00    +0.001 A 
ATOM     19  C   LIG    1       -4.559  -0.732   0.769  0.00  0.00    +0.001 A 
ATOM     20  C   LIG    1       -4.196  -0.968  -0.544  0.00  0.00    +0.020 A 
ATOM     21  C   LIG    1       -2.945  -0.648  -0.969  0.00  0.00    +0.050 A 
ATOM     22 CL   LIG    1       -2.496  -0.944  -2.610  0.00  0.00    -0.083 Cl
ENDBRANCH   6  16
TORSDOF 1
