REMARK  Name = molecules/UNBRKDKAWYKMIV-QWQRMKEZSA-N.pdb
REMARK                            x       y       z     vdW  Elec       q    Type
REMARK                         _______ _______ _______ _____ _____    ______ ____
ROOT
ATOM      1  C   LIG    1        0.992  -2.884  -1.256  0.00  0.00    +0.105 C 
ATOM      2  N   LIG    1        0.865  -1.735  -0.449  0.00  0.00    -0.297 NA
ATOM      3  C   LIG    1        2.005  -0.892  -0.345  0.00  0.00    +0.091 C 
ATOM      4  C   LIG    1        3.168  -1.479   0.368  0.00  0.00    +0.061 C 
ATOM      5  C   LIG    1        4.292  -0.500   0.490  0.00  0.00    -0.020 A 
ATOM      6  C   LIG    1        5.681  -0.596   0.635  0.00  0.00    +0.087 A 
ATOM      7  N   LIG    1        6.208   0.669   0.705  0.00  0.00    -0.360 N 
ATOM      8  H   LIG    1        7.208   0.947   0.814  0.00  0.00    +0.165 HD
ATOM      9  C   LIG    1        5.225   1.581   0.611  0.00  0.00    +0.047 A 
ATOM     10  C   LIG    1        5.039   2.947   0.605  0.00  0.00    +0.026 A 
ATOM     11  C   LIG    1        3.769   3.517   0.476  0.00  0.00    +0.003 A 
ATOM     12  C   LIG    1        2.614   2.733   0.344  0.00  0.00    +0.009 A 
ATOM     13  C   LIG    1        2.818   1.358   0.352  0.00  0.00    -0.011 A 
ATOM     14  C   LIG    1        4.077   0.843   0.481  0.00  0.00    +0.010 A 
ATOM     15  C   LIG    1        1.679   0.446   0.220  0.00  0.00    -0.025 C 
ATOM     16  C   LIG    1        0.477   0.836   0.596  0.00  0.00    -0.007 C 
ATOM     17  C   LIG    1       -0.657  -0.106   0.458  0.00  0.00    +0.112 C 
ATOM     18  C   LIG    1       -0.371  -1.037  -0.669  0.00  0.00    +0.101 C 
ENDROOT
BRANCH  17  19
ATOM     19  C   LIG    1       -1.953   0.587   0.338  0.00  0.00    +0.221 C 
ATOM     20  N   LIG    1       -3.181  -0.107   0.282  0.00  0.00    -0.310 N 
ATOM     21  H   LIG    1       -3.159  -1.136   0.328  0.00  0.00    +0.149 HD
ATOM     22  O   LIG    1       -1.986   1.844   0.282  0.00  0.00    -0.275 OA
BRANCH  20  23
ATOM     23  CA  LIG    1       -4.457   0.543   0.165  0.00  0.00    +0.098 C 
BRANCH  23  24
ATOM     24  C   LIG    1       -5.112   0.073  -1.115  0.00  0.00    +0.021 C 
ATOM     25  C   LIG    1       -5.332  -1.406  -1.150  0.00  0.00    +0.006 C 
ENDBRANCH  23  24
BRANCH  23  26
ATOM     26  C   LIG    1       -5.362   0.132   1.312  0.00  0.00    +0.178 C 
BRANCH  26  27
ATOM     27  O   LIG    1       -4.804   0.483   2.541  0.00  0.00    -0.393 OA
ATOM     28  H   LIG    1       -4.273   1.301   2.391  0.00  0.00    +0.209 HD
ENDBRANCH  26  27
ENDBRANCH  23  26
ENDBRANCH  20  23
ENDBRANCH  17  19
TORSDOF 5
