REMARK  Name = molecules/UNJFKXSSGBWRBZ-BJCIPQKHSA-N.pdb
REMARK                            x       y       z     vdW  Elec       q    Type
REMARK                         _______ _______ _______ _____ _____    ______ ____
ROOT
ATOM      1  N   LIG    1        0.221   0.268  -0.733  0.00  0.00    -0.298 N 
ATOM      2  H   LIG    1        0.423  -0.418  -0.019  0.00  0.00    +0.150 HD
ATOM      3  C   LIG    1       -0.983   0.969  -0.855  0.00  0.00    +0.247 C 
ATOM      4  O   LIG    1       -0.987   1.875  -1.799  0.00  0.00    -0.270 OA
ENDROOT
BRANCH   1  13
ATOM      5  O   LIG    1        1.516  -1.492  -3.085  0.00  0.00    -0.273 OA
ATOM      6  C   LIG    1        1.896  -0.761  -2.110  0.00  0.00    +0.244 C 
ATOM      7  N   LIG    1        2.878  -0.804  -1.125  0.00  0.00    -0.249 N 
ATOM      8  CA  LIG    1        3.799  -1.584  -0.390  0.00  0.00    +0.119 C 
ATOM      9  CB  LIG    1        4.371  -1.210   0.741  0.00  0.00    +0.014 C 
ATOM     10  CG  LIG    1        4.115   0.070   1.372  0.00  0.00    +0.100 C 
ATOM     11  SD  LIG    1        2.600   0.898   0.836  0.00  0.00    -0.131 S 
ATOM     12  CE  LIG    1        2.686   0.611  -0.960  0.00  0.00    +0.169 C 
ATOM     13  CA  LIG    1        1.359   0.536  -1.633  0.00  0.00    +0.191 C 
BRANCH   8  14
ATOM     14  C   LIG    1        4.181  -2.909  -0.873  0.00  0.00    +0.351 C 
ATOM     15  O   LIG    1        3.671  -3.317  -1.941  0.00  0.00    -0.244 OA
BRANCH  14  16
ATOM     16  OXT LIG    1        5.075  -3.740  -0.218  0.00  0.00    -0.476 OA
ATOM     17  HXT LIG    1        4.940  -4.741  -0.140  0.00  0.00    +0.295 HD
ENDBRANCH  14  16
ENDBRANCH   8  14
ENDBRANCH   1  13
BRANCH   3  18
ATOM     18  C   LIG    1       -2.213   0.862  -0.140  0.00  0.00    +0.059 C 
ATOM     19  C   LIG    1       -2.505  -0.054   0.755  0.00  0.00    -0.001 C 
BRANCH  18  20
ATOM     20  C   LIG    1       -3.295   1.880  -0.436  0.00  0.00    +0.085 A 
ATOM     21  N   LIG    1       -4.500   1.707   0.038  0.00  0.00    -0.225 NA
ATOM     22  C   LIG    1       -5.468   2.540  -0.221  0.00  0.00    +0.156 A 
ATOM     23  S   LIG    1       -4.698   3.686  -1.204  0.00  0.00    -0.060 S 
ATOM     24  C   LIG    1       -3.104   2.979  -1.215  0.00  0.00    +0.077 A 
BRANCH  22  25
ATOM     25  N   LIG    1       -6.837   2.469   0.234  0.00  0.00    -0.338 N 
ATOM     26  H   LIG    1       -7.026   2.868   1.174  0.00  0.00    +0.144 HD
ATOM     27  H   LIG    1       -7.577   2.053  -0.332  0.00  0.00    +0.144 HD
ENDBRANCH  22  25
ENDBRANCH  18  20
BRANCH  19  28
ATOM     28  C   LIG    1       -1.620  -1.129   1.156  0.00  0.00    +0.148 C 
BRANCH  28  29
ATOM     29  C   LIG    1       -0.968  -0.910   2.463  0.00  0.00    +0.309 C 
ATOM     30  O   LIG    1       -1.216   0.152   3.112  0.00  0.00    -0.251 OA
BRANCH  29  31
ATOM     31  O   LIG    1       -0.091  -1.798   3.038  0.00  0.00    -0.480 OA
ATOM     32  H   LIG    1       -0.297  -2.795   3.168  0.00  0.00    +0.295 HD
ENDBRANCH  29  31
ENDBRANCH  28  29
ENDBRANCH  19  28
ENDBRANCH   3  18
TORSDOF 9
