REMARK  Name = molecules/UNRHXEPDKXPRTM-ZDUSSCGKSA-N.pdb
REMARK                            x       y       z     vdW  Elec       q    Type
REMARK                         _______ _______ _______ _____ _____    ______ ____
ROOT
ATOM      1  C   LIG    1        1.687   0.381  -0.243  0.00  0.00    +0.080 A 
ATOM      2  C   LIG    1        1.765   1.237   0.813  0.00  0.00    +0.132 A 
ATOM      3  C   LIG    1        3.008   1.669   1.286  0.00  0.00    +0.048 A 
ATOM      4  C   LIG    1        4.171   1.259   0.719  0.00  0.00    +0.030 A 
ATOM      5  C   LIG    1        4.119   0.396  -0.347  0.00  0.00    +0.089 A 
ATOM      6  C   LIG    1        2.889  -0.019  -0.798  0.00  0.00    +0.043 A 
ENDROOT
BRANCH   1   7
ATOM      7  C   LIG    1        0.443  -0.096  -0.771  0.00  0.00    +0.248 C 
ATOM      8  N   LIG    1       -0.854   0.207  -0.326  0.00  0.00    -0.310 N 
ATOM      9  H   LIG    1       -1.042   0.826   0.456  0.00  0.00    +0.149 HD
ATOM     10  O   LIG    1        0.547  -0.911  -1.791  0.00  0.00    -0.270 OA
BRANCH   8  11
ATOM     11  C   LIG    1       -2.013  -0.373  -0.990  0.00  0.00    +0.123 C 
BRANCH  11  12
ATOM     12  C   LIG    1       -3.307   0.088  -0.344  0.00  0.00    +0.074 C 
ATOM     13  C   LIG    1       -3.428  -0.344   1.068  0.00  0.00    +0.022 C 
ATOM     14  C   LIG    1       -4.483  -1.394   1.118  0.00  0.00    +0.017 C 
ATOM     15  C   LIG    1       -4.789  -1.689  -0.327  0.00  0.00    +0.085 C 
ATOM     16  N   LIG    1       -4.374  -0.533  -1.072  0.00  0.00    -0.298 NA
BRANCH  16  17
ATOM     17  C   LIG    1       -5.436   0.357  -1.422  0.00  0.00    +0.081 C 
ATOM     18  C   LIG    1       -6.257   0.869  -0.283  0.00  0.00    +0.020 C 
ENDBRANCH  16  17
ENDBRANCH  11  12
ENDBRANCH   8  11
ENDBRANCH   1   7
BRANCH   5  19
ATOM     19  S   LIG    1        5.627  -0.122  -1.057  0.00  0.00    -0.003 S 
ATOM     20  O   LIG    1        6.673   0.954  -0.946  0.00  0.00    -0.169 OA
ATOM     21  O   LIG    1        5.395  -0.484  -2.488  0.00  0.00    -0.169 OA
BRANCH  19  22
ATOM     22  C   LIG    1        6.156  -1.584  -0.169  0.00  0.00    +0.168 C 
ATOM     23  C   LIG    1        7.452  -2.094  -0.713  0.00  0.00    +0.028 C 
ENDBRANCH  19  22
ENDBRANCH   5  19
BRANCH   2  24
ATOM     24  O   LIG    1        0.644   1.704   1.450  0.00  0.00    -0.494 OA
ATOM     25  C   LIG    1        0.760   2.586   2.536  0.00  0.00    +0.277 C 
ENDBRANCH   2  24
TORSDOF 7
