REMARK  Name = molecules/UOACKFBJUYNSLK-XRKIENNPSA-N.pdb
REMARK                            x       y       z     vdW  Elec       q    Type
REMARK                         _______ _______ _______ _____ _____    ______ ____
ROOT
ATOM      1  C   LIG    1        0.731  -0.339   1.612  0.00  0.00    +0.015 C 
ATOM      2  C   LIG    1        0.728   0.413   0.310  0.00  0.00    +0.008 C 
ATOM      3  C   LIG    1        1.731   1.558   0.308  0.00  0.00    +0.002 C 
ATOM      4  C   LIG    1        1.262   2.411   1.399  0.00  0.00    +0.008 C 
ATOM      5  C   LIG    1       -0.257   2.245   1.366  0.00  0.00    +0.045 C 
ATOM      6  C   LIG    1        3.077   0.981   0.378  0.00  0.00    +0.000 C 
ATOM      7  C   LIG    1        4.205   1.902   0.694  0.00  0.00    +0.009 C 
ATOM      8  C   LIG    1        5.490   1.579  -0.009  0.00  0.00    +0.036 C 
ATOM      9  C   LIG    1        5.629   0.128  -0.352  0.00  0.00    -0.040 A 
ATOM     10  C   LIG    1        6.788  -0.548  -0.145  0.00  0.00    +0.049 A 
ATOM     11  C   LIG    1        6.845  -1.893  -0.487  0.00  0.00    +0.117 A 
ATOM     12  C   LIG    1        5.720  -2.495  -1.025  0.00  0.00    +0.046 A 
ATOM     13  C   LIG    1        4.546  -1.793  -1.230  0.00  0.00    +0.008 A 
ATOM     14  C   LIG    1        4.485  -0.473  -0.896  0.00  0.00    -0.041 A 
ATOM     15  C   LIG    1        3.344   0.428  -1.036  0.00  0.00    +0.023 C 
ATOM     16  C   LIG    1        2.145  -0.046  -1.718  0.00  0.00    +0.009 C 
ATOM     17  C   LIG    1       -0.530   1.229   0.247  0.00  0.00    +0.183 C 
ATOM     18  C   LIG    1        0.991  -0.459  -0.858  0.00  0.00    +0.011 C 
ENDROOT
BRANCH  11  19
ATOM     19  O   LIG    1        8.032  -2.555  -0.267  0.00  0.00    -0.507 OA
ATOM     20  H   LIG    1        8.186  -3.533  -0.478  0.00  0.00    +0.292 HD
ENDBRANCH  11  19
BRANCH  17  21
ATOM     21  O   LIG    1       -1.696   0.505   0.455  0.00  0.00    -0.461 OA
BRANCH  21  22
ATOM     22  C   LIG    1       -2.704   0.580  -0.511  0.00  0.00    +0.307 C 
ATOM     23  O   LIG    1       -2.571   1.282  -1.547  0.00  0.00    -0.251 OA
BRANCH  22  24
ATOM     24  C   LIG    1       -3.952  -0.200  -0.282  0.00  0.00    +0.121 C 
BRANCH  24  25
ATOM     25  C   LIG    1       -5.006   0.739   0.260  0.00  0.00    +0.014 C 
BRANCH  25  26
ATOM     26  C   LIG    1       -6.307   0.054   0.526  0.00  0.00    -0.010 C 
ATOM     27  C   LIG    1       -6.186  -1.059   1.531  0.00  0.00    +0.003 C 
ATOM     28  C   LIG    1       -6.653  -2.305   0.839  0.00  0.00    +0.000 C 
ATOM     29  C   LIG    1       -6.839  -1.996  -0.618  0.00  0.00    +0.000 C 
ATOM     30  C   LIG    1       -6.969  -0.509  -0.691  0.00  0.00    +0.003 C 
ENDBRANCH  25  26
ENDBRANCH  24  25
ENDBRANCH  22  24
ENDBRANCH  21  22
ENDBRANCH  17  21
TORSDOF 6
