REMARK  Name = molecules/UOMKBIIXHQIERR-UHFFFAOYSA-N.pdb
REMARK                            x       y       z     vdW  Elec       q    Type
REMARK                         _______ _______ _______ _____ _____    ______ ____
ROOT
ATOM      1  C   LIG    1       -1.573  -3.276   0.010  0.00  0.00    +0.002 A 
ATOM      2  C   LIG    1       -0.486  -2.433   0.196  0.00  0.00    +0.026 A 
ATOM      3  C   LIG    1       -0.567  -1.058   0.117  0.00  0.00    +0.054 A 
ATOM      4  N   LIG    1        0.509  -0.248   0.292  0.00  0.00    -0.329 N 
ATOM      5  C   LIG    1        0.413   1.092   0.196  0.00  0.00    +0.054 A 
ATOM      6  C   LIG    1        1.470   1.964   0.352  0.00  0.00    +0.026 A 
ATOM      7  C   LIG    1        1.336   3.336   0.238  0.00  0.00    +0.002 A 
ATOM      8  C   LIG    1        0.105   3.892  -0.043  0.00  0.00    +0.001 A 
ATOM      9  C   LIG    1       -0.954   3.028  -0.200  0.00  0.00    +0.014 A 
ATOM     10  C   LIG    1       -0.830   1.651  -0.088  0.00  0.00    +0.046 A 
ATOM     11  C   LIG    1       -1.931   0.833  -0.267  0.00  0.00    +0.197 A 
ATOM     12  O   LIG    1       -3.054   1.343  -0.523  0.00  0.00    -0.287 OA
ATOM     13  C   LIG    1       -1.824  -0.542  -0.168  0.00  0.00    +0.046 A 
ATOM     14  C   LIG    1       -2.916  -1.370  -0.356  0.00  0.00    +0.014 A 
ATOM     15  C   LIG    1       -2.792  -2.745  -0.267  0.00  0.00    +0.001 A 
ENDROOT
BRANCH   4  16
ATOM     16  C   LIG    1        1.791  -0.806   0.624  0.00  0.00    +0.242 C 
BRANCH  16  17
ATOM     17  C   LIG    1        2.611  -1.155  -0.560  0.00  0.00    +0.325 C 
ATOM     18  O   LIG    1        2.205  -0.972  -1.742  0.00  0.00    -0.249 OA
BRANCH  17  19
ATOM     19  O   LIG    1        3.859  -1.698  -0.404  0.00  0.00    -0.479 OA
ATOM     20  H   LIG    1        4.564  -1.346   0.245  0.00  0.00    +0.295 HD
ENDBRANCH  17  19
ENDBRANCH  16  17
ENDBRANCH   4  16
TORSDOF 3
