REMARK  Name = molecules/UOWZUVNAGUAEQC-UHFFFAOYSA-N.pdb
REMARK                            x       y       z     vdW  Elec       q    Type
REMARK                         _______ _______ _______ _____ _____    ______ ____
ROOT
ATOM      1  C   LIG    1       -0.258  -0.273  -1.121  0.00  0.00    +0.155 A 
ATOM      2  C   LIG    1       -1.093  -1.299  -0.649  0.00  0.00    +0.057 A 
ATOM      3  C   LIG    1       -2.413  -1.108  -0.349  0.00  0.00    +0.022 A 
ATOM      4  C   LIG    1       -3.028   0.113  -0.486  0.00  0.00    -0.035 A 
ATOM      5  C   LIG    1       -2.216   1.151  -0.951  0.00  0.00    +0.022 A 
ATOM      6  I   LIG    1       -0.223  -3.212  -0.439  0.00  0.00    -0.040 I 
ATOM      7  C   LIG    1       -0.883   0.952  -1.253  0.00  0.00    +0.057 A 
ATOM      8  I   LIG    1        0.283   2.568  -1.974  0.00  0.00    -0.040 I 
ENDROOT
BRANCH   1   9
ATOM      9  O   LIG    1        1.052  -0.548  -1.406  0.00  0.00    -0.454 OA
BRANCH   9  10
ATOM     10  C   LIG    1        2.182  -0.403  -0.699  0.00  0.00    +0.130 A 
ATOM     11  C   LIG    1        2.318   0.451   0.346  0.00  0.00    +0.050 A 
ATOM     12  C   LIG    1        3.526   0.554   1.040  0.00  0.00    +0.050 A 
ATOM     13  C   LIG    1        4.607  -0.192   0.697  0.00  0.00    +0.130 A 
ATOM     14  C   LIG    1        4.480  -1.068  -0.370  0.00  0.00    +0.058 A 
ATOM     15  I   LIG    1        6.174  -2.253  -0.872  0.00  0.00    -0.040 I 
ATOM     16  C   LIG    1        3.288  -1.178  -1.062  0.00  0.00    +0.064 A 
BRANCH  13  17
ATOM     17  O   LIG    1        5.831  -0.104   1.381  0.00  0.00    -0.506 OA
ATOM     18  H   LIG    1        5.872   0.547   2.144  0.00  0.00    +0.292 HD
ENDBRANCH  13  17
ENDBRANCH   9  10
ENDBRANCH   1   9
BRANCH   4  19
ATOM     19  C   LIG    1       -4.446   0.392  -0.168  0.00  0.00    +0.155 C 
BRANCH  19  20
ATOM     20  C   LIG    1       -4.606   0.390   1.310  0.00  0.00    +0.309 C 
ATOM     21  O   LIG    1       -4.586  -0.741   1.893  0.00  0.00    -0.251 OA
BRANCH  20  22
ATOM     22  O   LIG    1       -4.765   1.578   2.010  0.00  0.00    -0.480 OA
ATOM     23  H   LIG    1       -3.965   1.961   2.546  0.00  0.00    +0.295 HD
ENDBRANCH  20  22
ENDBRANCH  19  20
ENDBRANCH   4  19
TORSDOF 6
