REMARK  Name = molecules/UOYOWSGCMGEQHC-JYSSUKAJSA-N.pdb
REMARK                            x       y       z     vdW  Elec       q    Type
REMARK                         _______ _______ _______ _____ _____    ______ ____
ROOT
ATOM      1  C   LIG    1       -0.747   0.468   0.421  0.00  0.00    +0.176 C 
ENDROOT
BRANCH   1   2
ATOM      2  C   LIG    1       -2.141   0.334  -0.062  0.00  0.00    +0.184 C 
ATOM      3  C   LIG    1       -3.047  -0.625   0.574  0.00  0.00    +0.183 C 
ATOM      4  C   LIG    1       -4.064  -0.820  -0.580  0.00  0.00    +0.201 C 
ATOM      5  C   LIG    1       -3.126  -0.768  -1.752  0.00  0.00    +0.282 C 
ATOM      6  O   LIG    1       -2.090   0.098  -1.436  0.00  0.00    -0.340 OA
BRANCH   4   7
ATOM      7  O   LIG    1       -4.896   0.289  -0.536  0.00  0.00    -0.384 OA
ATOM      8  H   LIG    1       -4.883   0.714   0.342  0.00  0.00    +0.210 HD
ENDBRANCH   4   7
BRANCH   3   9
ATOM      9  O   LIG    1       -2.505  -1.808   0.943  0.00  0.00    -0.371 OA
BRANCH   9  10
ATOM     10  C   LIG    1       -2.819  -2.334   2.147  0.00  0.00    +0.160 C 
BRANCH  10  11
ATOM     11  C   LIG    1       -2.482  -1.595   3.384  0.00  0.00    +0.025 C 
ATOM     12  C   LIG    1       -1.013  -1.343   3.607  0.00  0.00    +0.006 C 
ENDBRANCH  10  11
ENDBRANCH   9  10
ENDBRANCH   3   9
BRANCH   5  13
ATOM     13  O   LIG    1       -3.715  -0.342  -2.916  0.00  0.00    -0.349 OA
BRANCH  13  14
ATOM     14  C   LIG    1       -3.614  -1.254  -3.959  0.00  0.00    +0.160 C 
ATOM     15  C   LIG    1       -2.190  -1.568  -4.324  0.00  0.00    +0.034 C 
ENDBRANCH  13  14
ENDBRANCH   5  13
ENDBRANCH   1   2
BRANCH   1  16
ATOM     16  C   LIG    1        0.059  -0.738  -0.012  0.00  0.00    +0.194 C 
BRANCH  16  17
ATOM     17  O   LIG    1        1.391  -0.632   0.425  0.00  0.00    -0.373 OA
BRANCH  17  18
ATOM     18  C   LIG    1        2.086  -1.765   0.000  0.00  0.00    +0.195 C 
BRANCH  18  19
ATOM     19  C   LIG    1        3.494  -1.750   0.409  0.00  0.00    -0.022 A 
ATOM     20  C   LIG    1        3.944  -2.283   1.598  0.00  0.00    +0.007 A 
ATOM     21  C   LIG    1        5.280  -2.245   1.939  0.00  0.00    +0.020 A 
ATOM     22  C   LIG    1        6.188  -1.662   1.076  0.00  0.00    +0.041 A 
ATOM     23 CL   LIG    1        7.888  -1.632   1.548  0.00  0.00    -0.084 Cl
ATOM     24  C   LIG    1        5.768  -1.120  -0.119  0.00  0.00    +0.020 A 
ATOM     25  C   LIG    1        4.426  -1.176  -0.430  0.00  0.00    +0.007 A 
ENDBRANCH  18  19
ENDBRANCH  17  18
ENDBRANCH  16  17
ENDBRANCH   1  16
BRANCH   1  26
ATOM     26  O   LIG    1       -0.084   1.557  -0.180  0.00  0.00    -0.367 OA
BRANCH  26  27
ATOM     27  C   LIG    1        0.432   2.426   0.770  0.00  0.00    +0.195 C 
BRANCH  27  28
ATOM     28  C   LIG    1        1.104   3.527   0.029  0.00  0.00    -0.022 A 
ATOM     29  C   LIG    1        1.723   4.564   0.704  0.00  0.00    +0.007 A 
ATOM     30  C   LIG    1        2.352   5.596   0.038  0.00  0.00    +0.020 A 
ATOM     31  C   LIG    1        2.392   5.640  -1.340  0.00  0.00    +0.041 A 
ATOM     32  C   LIG    1        1.777   4.612  -2.023  0.00  0.00    +0.020 A 
ATOM     33 CL   LIG    1        3.197   6.961  -2.181  0.00  0.00    -0.084 Cl
ATOM     34  C   LIG    1        1.150   3.582  -1.350  0.00  0.00    +0.007 A 
ENDBRANCH  27  28
ENDBRANCH  26  27
ENDBRANCH   1  26
TORSDOF 14
