REMARK  Name = molecules/UPBAOYRENQEPJO-UHFFFAOYSA-N.pdb
REMARK                            x       y       z     vdW  Elec       q    Type
REMARK                         _______ _______ _______ _____ _____    ______ ____
ROOT
ATOM      1  C   LIG    1       -0.146  -2.010   0.153  0.00  0.00    +0.265 C 
ATOM      2  O   LIG    1       -0.617  -3.128   0.378  0.00  0.00    -0.268 OA
ATOM      3  N   LIG    1       -0.967  -0.929  -0.236  0.00  0.00    -0.279 N 
ATOM      4  H   LIG    1       -0.521   0.026  -0.421  0.00  0.00    +0.155 HD
ENDROOT
BRANCH   1   5
ATOM      5  C   LIG    1        1.319  -1.807   0.299  0.00  0.00    +0.106 A 
ATOM      6  N   LIG    1        2.221  -2.724   0.665  0.00  0.00    -0.344 N 
ATOM      7  C   LIG    1        1.921  -4.116   0.995  0.00  0.00    +0.149 C 
ATOM      8  C   LIG    1        3.458  -2.162   0.684  0.00  0.00    +0.109 A 
ATOM      9  C   LIG    1        3.317  -0.845   0.315  0.00  0.00    +0.052 A 
ATOM     10  C   LIG    1        1.959  -0.615   0.069  0.00  0.00    +0.055 A 
BRANCH   9  11
ATOM     11  N   LIG    1        4.289   0.182   0.171  0.00  0.00    -0.279 N 
ATOM     12  C   LIG    1        5.627  -0.038   0.435  0.00  0.00    +0.265 C 
ATOM     13  O   LIG    1        5.978  -1.196   0.822  0.00  0.00    -0.268 OA
ATOM     14  H   LIG    1        3.964   1.114  -0.133  0.00  0.00    +0.155 HD
BRANCH  12  15
ATOM     15  C   LIG    1        6.693   0.945   0.314  0.00  0.00    +0.106 A 
ATOM     16  C   LIG    1        8.015   0.717   0.735  0.00  0.00    +0.055 A 
ATOM     17  C   LIG    1        8.805   1.823   0.481  0.00  0.00    +0.052 A 
ATOM     18  C   LIG    1        7.967   2.728  -0.095  0.00  0.00    +0.109 A 
ATOM     19  N   LIG    1        6.718   2.182  -0.184  0.00  0.00    -0.344 N 
ATOM     20  C   LIG    1        5.617   2.903  -0.767  0.00  0.00    +0.149 C 
BRANCH  17  21
ATOM     21  N   LIG    1       10.204   1.937   0.783  0.00  0.00    -0.287 N 
ATOM     22  H   LIG    1       10.702   1.121   1.239  0.00  0.00    +0.155 HD
ATOM     23  C   LIG    1       10.895   3.109   0.479  0.00  0.00    +0.330 C 
ATOM     24  O   LIG    1       10.377   4.100  -0.052  0.00  0.00    -0.279 OA
ENDBRANCH  17  21
ENDBRANCH  12  15
ENDBRANCH   9  11
ENDBRANCH   1   5
BRANCH   3  25
ATOM     25  C   LIG    1       -2.372  -1.104  -0.382  0.00  0.00    +0.052 A 
ATOM     26  C   LIG    1       -3.171  -2.193  -0.232  0.00  0.00    +0.109 A 
ATOM     27  N   LIG    1       -4.481  -1.874  -0.484  0.00  0.00    -0.344 N 
ATOM     28  C   LIG    1       -5.554  -2.823  -0.393  0.00  0.00    +0.149 C 
ATOM     29  C   LIG    1       -4.524  -0.590  -0.793  0.00  0.00    +0.106 A 
ATOM     30  C   LIG    1       -3.225  -0.060  -0.743  0.00  0.00    +0.055 A 
BRANCH  29  31
ATOM     31  C   LIG    1       -5.645   0.265  -1.134  0.00  0.00    +0.261 C 
ATOM     32  O   LIG    1       -5.444   1.531  -1.267  0.00  0.00    -0.269 OA
ATOM     33  N   LIG    1       -6.954  -0.203  -1.334  0.00  0.00    -0.310 N 
ATOM     34  H   LIG    1       -7.211  -1.192  -1.272  0.00  0.00    +0.149 HD
BRANCH  33  35
ATOM     35  C   LIG    1       -8.034   0.735  -1.672  0.00  0.00    +0.116 C 
BRANCH  35  36
ATOM     36  C   LIG    1       -8.241   1.780  -0.620  0.00  0.00    +0.146 C 
BRANCH  36  37
ATOM     37  C   LIG    1       -8.622   1.216   0.686  0.00  0.00    +0.276 C 
ATOM     38  N   LIG    1       -8.631   2.061   1.851  0.00  0.00    -0.290 N 
ATOM     39  H   LIG    1       -7.737   2.202   2.353  0.00  0.00    +0.301 HD
ATOM     40  H   LIG    1       -9.495   2.520   2.191  0.00  0.00    +0.301 HD
BRANCH  37  41
ATOM     41  N   LIG    1       -8.968   0.012   0.822  0.00  0.00    -0.073 NA
ATOM     42  H   LIG    1       -9.038  -0.723   0.102  0.00  0.00    +0.348 HD
ENDBRANCH  37  41
ENDBRANCH  36  37
ENDBRANCH  35  36
ENDBRANCH  33  35
ENDBRANCH  29  31
ENDBRANCH   3  25
TORSDOF 10
