REMARK  Name = molecules/UPCBSVILVWKHIG-UHFFFAOYSA-N.pdb
REMARK                            x       y       z     vdW  Elec       q    Type
REMARK                         _______ _______ _______ _____ _____    ______ ____
ROOT
ATOM      1  C   LIG    1       -0.906  -0.485  -0.160  0.00  0.00    +0.034 A 
ATOM      2  C   LIG    1       -0.047  -1.065   0.767  0.00  0.00    +0.025 A 
ATOM      3  C   LIG    1        1.273  -1.320   0.474  0.00  0.00    +0.030 A 
ATOM      4  C   LIG    1        1.793  -1.004  -0.764  0.00  0.00    +0.109 A 
ATOM      5  C   LIG    1        0.946  -0.431  -1.680  0.00  0.00    +0.030 A 
ATOM      6  C   LIG    1       -0.357  -0.183  -1.379  0.00  0.00    +0.025 A 
ENDROOT
BRANCH   1   8
ATOM      7  C   LIG    1       -3.149   0.586  -0.495  0.00  0.00    +0.249 C 
ATOM      8  N   LIG    1       -2.247  -0.267   0.194  0.00  0.00    -0.281 N 
ATOM      9  H   LIG    1       -2.593  -0.775   1.070  0.00  0.00    +0.155 HD
ATOM     10  O   LIG    1       -2.849   1.272  -1.503  0.00  0.00    -0.270 OA
BRANCH   7  11
ATOM     11  C   LIG    1       -4.524   0.711  -0.032  0.00  0.00    +0.051 A 
ATOM     12  C   LIG    1       -5.261  -0.410   0.245  0.00  0.00    +0.071 A 
ATOM     13  C   LIG    1       -6.539  -0.215   0.813  0.00  0.00    +0.016 A 
ATOM     14  C   LIG    1       -7.034   1.042   1.077  0.00  0.00    +0.001 A 
ATOM     15  C   LIG    1       -6.280   2.155   0.788  0.00  0.00    +0.001 A 
ATOM     16  C   LIG    1       -5.030   1.970   0.235  0.00  0.00    +0.014 A 
BRANCH  12  17
ATOM     17  C   LIG    1       -4.870  -1.767  -0.111  0.00  0.00    +0.338 C 
ATOM     18  O   LIG    1       -5.617  -2.723   0.274  0.00  0.00    -0.245 OA
BRANCH  17  19
ATOM     19  O   LIG    1       -3.755  -2.100  -0.838  0.00  0.00    -0.477 OA
ATOM     20  H   LIG    1       -3.277  -2.970  -0.647  0.00  0.00    +0.295 HD
ENDBRANCH  17  19
ENDBRANCH  12  17
ENDBRANCH   7  11
ENDBRANCH   1   8
BRANCH   4  21
ATOM     21  S   LIG    1        3.470  -1.300  -1.177  0.00  0.00    +0.076 S 
ATOM     22  O   LIG    1        4.017  -2.425  -0.307  0.00  0.00    -0.150 OA
ATOM     23  O   LIG    1        3.582  -1.795  -2.604  0.00  0.00    -0.150 OA
BRANCH  21  24
ATOM     24  N   LIG    1        4.435   0.093  -0.915  0.00  0.00    -0.169 N 
ATOM     25  C   LIG    1        5.700  -0.016  -0.289  0.00  0.00    +0.321 C 
ATOM     26  O   LIG    1        6.115  -1.134   0.080  0.00  0.00    -0.251 OA
ATOM     27  N   LIG    1        6.503   1.161  -0.081  0.00  0.00    -0.276 N 
ATOM     28  H   LIG    1        6.136   2.081  -0.398  0.00  0.00    +0.152 HD
ATOM     29  H   LIG    1        4.108   1.036  -1.211  0.00  0.00    +0.178 HD
BRANCH  27  30
ATOM     30  C   LIG    1        7.793   1.087   0.548  0.00  0.00    +0.265 C 
BRANCH  30  31
ATOM     31  O   LIG    1        8.338   2.365   0.622  0.00  0.00    -0.377 OA
ATOM     32  H   LIG    1        8.187   2.797  -0.248  0.00  0.00    +0.211 HD
ENDBRANCH  30  31
ENDBRANCH  27  30
ENDBRANCH  21  24
ENDBRANCH   4  21
TORSDOF 8
