REMARK  Name = molecules/UPNUIXSCZBYVBB-JVFUWBCBSA-N.pdb
REMARK                            x       y       z     vdW  Elec       q    Type
REMARK                         _______ _______ _______ _____ _____    ______ ____
ROOT
ATOM      1  C   LIG    1       -1.624   0.243  -0.985  0.00  0.00    +0.097 C 
ENDROOT
BRANCH   1   7
ATOM      2  C   LIG    1        2.971  -0.472  -1.970  0.00  0.00    +0.016 C 
ATOM      3  C   LIG    1        2.589   0.162  -0.664  0.00  0.00    -0.002 C 
ATOM      4  C   LIG    1        1.775  -0.839   0.128  0.00  0.00    +0.010 C 
ATOM      5  C   LIG    1        1.712  -0.465   1.591  0.00  0.00    +0.009 C 
ATOM      6  C   LIG    1        0.371  -1.012  -0.402  0.00  0.00    +0.088 C 
ATOM      7  N   LIG    1       -0.279   0.236  -0.525  0.00  0.00    -0.301 NA
ATOM      8  C   LIG    1        0.471   1.079  -1.449  0.00  0.00    +0.085 C 
ATOM      9  C   LIG    1        1.779   1.433  -0.828  0.00  0.00    +0.027 C 
BRANCH   3  10
ATOM     10  C   LIG    1        3.863   0.398   0.076  0.00  0.00    -0.038 A 
ATOM     11  C   LIG    1        4.213   1.601   0.638  0.00  0.00    +0.004 A 
ATOM     12  C   LIG    1        5.422   1.740   1.302  0.00  0.00    +0.004 A 
ATOM     13  C   LIG    1        6.318   0.685   1.425  0.00  0.00    +0.045 A 
ATOM     14  C   LIG    1        5.964  -0.520   0.860  0.00  0.00    +0.117 A 
ATOM     15  C   LIG    1        4.756  -0.649   0.200  0.00  0.00    +0.049 A 
BRANCH  14  16
ATOM     16  O   LIG    1        6.875  -1.562   0.994  0.00  0.00    -0.507 OA
ATOM     17  H   LIG    1        6.692  -2.490   0.604  0.00  0.00    +0.292 HD
ENDBRANCH  14  16
ENDBRANCH   3  10
ENDBRANCH   1   7
BRANCH   1  18
ATOM     18  C   LIG    1       -2.677  -0.313  -0.114  0.00  0.00    +0.093 C 
BRANCH  18  19
ATOM     19  C   LIG    1       -2.798  -1.773  -0.030  0.00  0.00    +0.218 C 
ATOM     20  O   LIG    1       -2.639  -2.314   1.107  0.00  0.00    -0.275 OA
ATOM     21  N   LIG    1       -3.083  -2.518  -1.194  0.00  0.00    -0.305 N 
ATOM     22  H   LIG    1       -3.199  -1.999  -2.091  0.00  0.00    +0.149 HD
BRANCH  21  23
ATOM     23  C   LIG    1       -3.230  -3.947  -1.239  0.00  0.00    +0.224 C 
BRANCH  23  24
ATOM     24  C   LIG    1       -4.298  -4.470  -0.396  0.00  0.00    +0.322 C 
ATOM     25  O   LIG    1       -5.011  -3.709   0.291  0.00  0.00    -0.249 OA
BRANCH  24  26
ATOM     26  O   LIG    1       -4.538  -5.824  -0.345  0.00  0.00    -0.480 OA
ATOM     27  H   LIG    1       -5.436  -6.276  -0.378  0.00  0.00    +0.295 HD
ENDBRANCH  24  26
ENDBRANCH  23  24
ENDBRANCH  21  23
ENDBRANCH  18  19
BRANCH  18  28
ATOM     28  C   LIG    1       -2.768   0.396   1.221  0.00  0.00    +0.049 C 
BRANCH  28  29
ATOM     29  C   LIG    1       -3.076   1.842   1.033  0.00  0.00    -0.047 A 
ATOM     30  C   LIG    1       -4.391   2.246   0.976  0.00  0.00    +0.003 A 
ATOM     31  C   LIG    1       -4.759   3.572   0.797  0.00  0.00    +0.000 A 
ATOM     32  C   LIG    1       -3.786   4.535   0.667  0.00  0.00    +0.000 A 
ATOM     33  C   LIG    1       -2.464   4.151   0.722  0.00  0.00    +0.000 A 
ATOM     34  C   LIG    1       -2.108   2.817   0.903  0.00  0.00    +0.003 A 
ENDBRANCH  28  29
ENDBRANCH  18  28
ENDBRANCH   1  18
TORSDOF 10
