REMARK  Name = molecules/UPOYFZYFGWBUKL-UHFFFAOYSA-N.pdb
REMARK                            x       y       z     vdW  Elec       q    Type
REMARK                         _______ _______ _______ _____ _____    ______ ____
ROOT
ATOM      1  C   LIG    1        1.589  -0.554   0.501  0.00  0.00    +0.133 A 
ATOM      2  N   LIG    1        2.821  -0.249   0.227  0.00  0.00    -0.210 NA
ATOM      3  C   LIG    1        3.095   0.705  -0.641  0.00  0.00    +0.158 A 
ATOM      4  S   LIG    1        1.544   1.222  -1.114  0.00  0.00    -0.051 S 
ATOM      5  C   LIG    1        0.602   0.142  -0.134  0.00  0.00    +0.062 A 
ENDROOT
BRANCH   5   6
ATOM      6  C   LIG    1       -0.860   0.067  -0.069  0.00  0.00    -0.008 A 
ATOM      7  C   LIG    1       -1.536  -0.810   0.728  0.00  0.00    +0.009 A 
ATOM      8  C   LIG    1       -2.942  -0.843   0.754  0.00  0.00    +0.001 A 
ATOM      9  C   LIG    1       -3.680   0.013  -0.026  0.00  0.00    +0.000 A 
ATOM     10  C   LIG    1       -2.996   0.901  -0.832  0.00  0.00    +0.001 A 
ATOM     11  C   LIG    1       -1.610   0.936  -0.861  0.00  0.00    +0.009 A 
ENDBRANCH   5   6
BRANCH   1  12
ATOM     12  N   LIG    1        1.303  -1.611   1.462  0.00  0.00    -0.342 N 
ATOM     13  H   LIG    1        1.187  -1.294   2.440  0.00  0.00    +0.144 HD
ATOM     14  H   LIG    1        1.218  -2.597   1.214  0.00  0.00    +0.144 HD
ENDBRANCH   1  12
BRANCH   3  15
ATOM     15  N   LIG    1        4.402   1.162  -1.054  0.00  0.00    -0.337 N 
ATOM     16  H   LIG    1        5.197   0.509  -1.051  0.00  0.00    +0.144 HD
ATOM     17  H   LIG    1        4.511   2.153  -1.349  0.00  0.00    +0.144 HD
ENDBRANCH   3  15
TORSDOF 3
