REMARK  Name = molecules/UPPMZCXMQRVMME-FUHWJXTLSA-N.pdb
REMARK                            x       y       z     vdW  Elec       q    Type
REMARK                         _______ _______ _______ _____ _____    ______ ____
ROOT
ATOM      1  C   LIG    1        2.285   0.257   0.488  0.00  0.00    +0.130 C 
ENDROOT
BRANCH   1   2
ATOM      2  C   LIG    1        2.922  -1.033   0.123  0.00  0.00    -0.033 A 
ATOM      3  C   LIG    1        3.439  -1.843   1.103  0.00  0.00    +0.004 A 
ATOM      4  C   LIG    1        4.041  -3.051   0.821  0.00  0.00    +0.000 A 
ATOM      5  C   LIG    1        4.118  -3.444  -0.498  0.00  0.00    +0.000 A 
ATOM      6  C   LIG    1        3.600  -2.635  -1.489  0.00  0.00    +0.000 A 
ATOM      7  C   LIG    1        3.001  -1.431  -1.200  0.00  0.00    +0.004 A 
ENDBRANCH   1   2
BRANCH   1   8
ATOM      8  C   LIG    1        0.873   0.187   0.027  0.00  0.00    +0.315 C 
ATOM      9  O   LIG    1        0.446   1.009  -0.802  0.00  0.00    -0.250 OA
BRANCH   8  10
ATOM     10  O   LIG    1        0.061  -0.790   0.528  0.00  0.00    -0.466 OA
BRANCH  10  11
ATOM     11  C   LIG    1       -1.293  -0.961   0.173  0.00  0.00    +0.214 C 
BRANCH  11  12
ATOM     12  C   LIG    1       -2.149   0.229   0.498  0.00  0.00    -0.034 C 
BRANCH  12  13
ATOM     13  N   LIG    1       -3.525   0.051   0.136  0.00  0.00    +0.380 N 
ATOM     14  C   LIG    1       -3.911  -1.341   0.054  0.00  0.00    -0.092 C 
BRANCH  13  15
ATOM     15  C   LIG    1       -4.328   0.754   1.120  0.00  0.00    -0.079 C 
ATOM     16  C   LIG    1       -5.657   0.118   1.364  0.00  0.00    -0.016 C 
ENDBRANCH  13  15
BRANCH  13  17
ATOM     17  C   LIG    1       -3.727   0.668  -1.154  0.00  0.00    -0.079 C 
ATOM     18  C   LIG    1       -4.654  -0.132  -2.041  0.00  0.00    -0.016 C 
ENDBRANCH  13  17
ENDBRANCH  12  13
ENDBRANCH  11  12
ENDBRANCH  10  11
ENDBRANCH   8  10
ENDBRANCH   1   8
BRANCH   1  19
ATOM     19  C   LIG    1        3.012   1.440  -0.111  0.00  0.00    +0.004 C 
ATOM     20  C   LIG    1        2.304   2.692   0.319  0.00  0.00    +0.008 C 
BRANCH  19  21
ATOM     21  C   LIG    1        4.431   1.396   0.435  0.00  0.00    +0.001 C 
ATOM     22  C   LIG    1        5.266   2.527  -0.087  0.00  0.00    +0.004 C 
ENDBRANCH  19  21
ENDBRANCH   1  19
TORSDOF 10
