REMARK  Name = molecules/UPZVYDSBLFNMLK-NSHDSACASA-N.pdb
REMARK                            x       y       z     vdW  Elec       q    Type
REMARK                         _______ _______ _______ _____ _____    ______ ____
ROOT
ATOM      1  C   LIG    1        0.858  -0.583   1.551  0.00  0.00    +0.261 C 
ENDROOT
BRANCH   1   2
ATOM      2  O   LIG    1       -0.066  -0.369   0.520  0.00  0.00    -0.489 OA
BRANCH   2   3
ATOM      3  C   LIG    1       -1.385  -0.076   0.806  0.00  0.00    +0.128 A 
ATOM      4  C   LIG    1       -1.889   0.028   2.085  0.00  0.00    +0.046 A 
ATOM      5  C   LIG    1       -3.199   0.319   2.371  0.00  0.00    +0.004 A 
ATOM      6  C   LIG    1       -4.078   0.523   1.324  0.00  0.00    +0.009 A 
ATOM      7  C   LIG    1       -3.611   0.427   0.025  0.00  0.00    -0.014 A 
ATOM      8  C   LIG    1       -4.468   0.626  -1.034  0.00  0.00    +0.008 A 
ATOM      9  C   LIG    1       -4.040   0.539  -2.338  0.00  0.00    +0.001 A 
ATOM     10  C   LIG    1       -2.709   0.243  -2.615  0.00  0.00    +0.001 A 
ATOM     11  C   LIG    1       -1.877   0.050  -1.541  0.00  0.00    +0.012 A 
ATOM     12  C   LIG    1       -2.289   0.133  -0.236  0.00  0.00    +0.024 A 
ENDBRANCH   2   3
ENDBRANCH   1   2
BRANCH   1  13
ATOM     13  C   LIG    1        2.229  -0.885   0.974  0.00  0.00    +0.163 C 
BRANCH  13  14
ATOM     14  O   LIG    1        2.143  -2.022   0.191  0.00  0.00    -0.388 OA
ATOM     15  H   LIG    1        1.189  -2.273   0.010  0.00  0.00    +0.210 HD
ENDBRANCH  13  14
BRANCH  13  16
ATOM     16  C   LIG    1        2.681   0.323   0.196  0.00  0.00    +0.167 C 
BRANCH  16  17
ATOM     17  C   LIG    1        4.012   0.139  -0.413  0.00  0.00    +0.334 C 
ATOM     18  N   LIG    1        4.696  -0.954  -0.278  0.00  0.00    +0.146 NA
BRANCH  17  19
ATOM     19  N   LIG    1        4.565   1.194  -1.175  0.00  0.00    -0.247 N 
ATOM     20  H   LIG    1        5.401   1.699  -0.833  0.00  0.00    +0.288 HD
ATOM     21  H   LIG    1        4.135   1.464  -2.077  0.00  0.00    +0.288 HD
ENDBRANCH  17  19
BRANCH  18  22
ATOM     22  O   LIG    1        5.926  -1.127  -0.840  0.00  0.00    -0.311 OA
ATOM     23  H   LIG    1        6.126  -1.663  -1.658  0.00  0.00    +0.361 HD
ENDBRANCH  18  22
ENDBRANCH  16  17
ENDBRANCH  13  16
ENDBRANCH   1  13
TORSDOF 8
