REMARK  Name = molecules/UQGKUQLKSCSZGY-UHFFFAOYSA-N.pdb
REMARK                            x       y       z     vdW  Elec       q    Type
REMARK                         _______ _______ _______ _____ _____    ______ ____
ROOT
ATOM      1  N   LIG    1       -0.824  -1.382   1.404  0.00  0.00    -0.318 N 
ATOM      2  C   LIG    1       -0.515  -2.623   0.995  0.00  0.00    +0.111 A 
ATOM      3  N   LIG    1       -1.491  -3.063   0.185  0.00  0.00    -0.233 NA
ATOM      4  C   LIG    1       -2.430  -2.116   0.067  0.00  0.00    +0.105 A 
ATOM      5  C   LIG    1       -2.002  -1.054   0.844  0.00  0.00    +0.153 A 
ENDROOT
BRANCH   4   6
ATOM      6  C   LIG    1       -3.663  -2.253  -0.773  0.00  0.00    +0.104 C 
ATOM      7  C   LIG    1       -3.681  -3.674  -1.345  0.00  0.00    +0.048 C 
ATOM      8  C   LIG    1       -3.741  -1.293  -1.900  0.00  0.00    +0.048 C 
BRANCH   6   9
ATOM      9  O   LIG    1       -4.804  -2.103   0.047  0.00  0.00    -0.383 OA
ATOM     10  H   LIG    1       -4.548  -2.331   0.976  0.00  0.00    +0.211 HD
ENDBRANCH   6   9
ENDBRANCH   4   6
BRANCH   5  11
ATOM     11  C   LIG    1       -2.800   0.150   1.008  0.00  0.00    +0.358 C 
ATOM     12  O   LIG    1       -3.882   0.323   0.397  0.00  0.00    -0.243 OA
BRANCH  11  13
ATOM     13  O   LIG    1       -2.419   1.181   1.851  0.00  0.00    -0.452 OA
BRANCH  13  14
ATOM     14  C   LIG    1       -3.203   2.338   2.009  0.00  0.00    +0.310 C 
BRANCH  14  15
ATOM     15  C   LIG    1       -3.419   3.087   0.762  0.00  0.00    +0.187 A 
ATOM     16  C   LIG    1       -4.133   4.249   0.579  0.00  0.00    +0.151 A 
ATOM     17  C   LIG    1       -4.840   4.977   1.664  0.00  0.00    +0.090 C 
ATOM     18  O   LIG    1       -4.054   4.554  -0.697  0.00  0.00    -0.396 OA
ATOM     19  C   LIG    1       -3.336   3.654  -1.316  0.00  0.00    +0.521 A 
ATOM     20  O   LIG    1       -3.021   3.573  -2.529  0.00  0.00    -0.202 OA
ATOM     21  O   LIG    1       -2.956   2.767  -0.418  0.00  0.00    -0.392 OA
ENDBRANCH  14  15
ENDBRANCH  13  14
ENDBRANCH  11  13
ENDBRANCH   5  11
BRANCH   1  22
ATOM     22  C   LIG    1       -0.013  -0.542   2.257  0.00  0.00    +0.159 C 
BRANCH  22  26
ATOM     23  C   LIG    1        3.280   1.433   0.285  0.00  0.00    -0.017 A 
ATOM     24  C   LIG    1        3.427   0.283   1.057  0.00  0.00    +0.009 A 
ATOM     25  C   LIG    1        2.340  -0.303   1.657  0.00  0.00    +0.006 A 
ATOM     26  C   LIG    1        1.036   0.199   1.542  0.00  0.00    -0.028 A 
ATOM     27  C   LIG    1        0.897   1.319   0.788  0.00  0.00    +0.006 A 
ATOM     28  C   LIG    1        1.998   1.927   0.171  0.00  0.00    +0.009 A 
BRANCH  23  30
ATOM     29  C   LIG    1        5.098   1.480  -1.370  0.00  0.00    +0.028 A 
ATOM     30  C   LIG    1        4.413   2.074  -0.353  0.00  0.00    -0.007 A 
ATOM     31  C   LIG    1        4.820   3.334   0.100  0.00  0.00    +0.009 A 
ATOM     32  C   LIG    1        5.888   3.990  -0.449  0.00  0.00    +0.001 A 
ATOM     33  C   LIG    1        6.592   3.392  -1.486  0.00  0.00    +0.001 A 
ATOM     34  C   LIG    1        6.194   2.160  -1.928  0.00  0.00    +0.012 A 
BRANCH  29  35
ATOM     35  C   LIG    1        4.700   0.190  -1.873  0.00  0.00    +0.180 A 
ATOM     36  N   LIG    1        3.689  -0.600  -1.524  0.00  0.00    -0.108 NA
ATOM     37  N   LIG    1        3.697  -1.698  -2.260  0.00  0.00    -0.023 NA
ATOM     38  N   LIG    1        4.713  -1.628  -3.091  0.00  0.00    -0.046 NA
ATOM     39  N   LIG    1        5.332  -0.476  -2.861  0.00  0.00    -0.239 N 
ATOM     40  H   LIG    1        6.191  -0.177  -3.406  0.00  0.00    +0.192 HD
ENDBRANCH  29  35
ENDBRANCH  23  30
ENDBRANCH  22  26
ENDBRANCH   1  22
BRANCH   2  41
ATOM     41  C   LIG    1        0.704  -3.421   1.361  0.00  0.00    +0.074 C 
BRANCH  41  42
ATOM     42  C   LIG    1        0.620  -4.789   0.673  0.00  0.00    +0.004 C 
ATOM     43  C   LIG    1       -0.611  -5.517   1.116  0.00  0.00    +0.004 C 
ENDBRANCH  41  42
ENDBRANCH   2  41
TORSDOF 12
