REMARK  Name = molecules/UQNCVOXEVRELFR-GFCCVEGCSA-N.pdb
REMARK                            x       y       z     vdW  Elec       q    Type
REMARK                         _______ _______ _______ _____ _____    ______ ____
ROOT
ATOM      1  O   LIG    1       -1.232   1.306  -1.492  0.00  0.00    -0.264 OA
ATOM      2  C   LIG    1       -1.210   0.357  -0.643  0.00  0.00    +0.293 A 
ATOM      3  N   LIG    1       -2.290  -0.241  -0.059  0.00  0.00    -0.216 N 
ATOM      4  N   LIG    1       -1.869  -1.183   0.765  0.00  0.00    -0.282 N 
ATOM      5  C   LIG    1       -2.731  -2.043   1.572  0.00  0.00    +0.171 C 
ATOM      6  C   LIG    1       -0.535  -1.255   0.769  0.00  0.00    +0.059 A 
ATOM      7  C   LIG    1        0.382  -2.140   1.521  0.00  0.00    +0.067 C 
ATOM      8  C   LIG    1       -0.112  -0.289  -0.114  0.00  0.00    +0.121 A 
ENDROOT
BRANCH   3   9
ATOM      9  C   LIG    1       -3.620   0.161  -0.354  0.00  0.00    +0.067 A 
ATOM     10  C   LIG    1       -4.517   0.378   0.669  0.00  0.00    +0.028 A 
ATOM     11  C   LIG    1       -5.826   0.773   0.421  0.00  0.00    +0.002 A 
ATOM     12  C   LIG    1       -6.214   0.946  -0.893  0.00  0.00    +0.000 A 
ATOM     13  C   LIG    1       -5.354   0.740  -1.929  0.00  0.00    +0.002 A 
ATOM     14  C   LIG    1       -4.046   0.343  -1.650  0.00  0.00    +0.028 A 
ENDBRANCH   3   9
BRANCH   8  15
ATOM     15  N   LIG    1        1.250   0.038  -0.467  0.00  0.00    -0.278 N 
ATOM     16  C   LIG    1        1.983   1.016   0.247  0.00  0.00    +0.234 C 
ATOM     17  O   LIG    1        1.428   1.603   1.203  0.00  0.00    -0.274 OA
ATOM     18  H   LIG    1        1.626  -0.503  -1.277  0.00  0.00    +0.155 HD
BRANCH  16  19
ATOM     19  C   LIG    1        3.358   1.353  -0.106  0.00  0.00    +0.140 C 
ATOM     20  C   LIG    1        4.288   1.236   1.111  0.00  0.00    +0.034 C 
BRANCH  19  21
ATOM     21  N   LIG    1        3.929   0.603  -1.174  0.00  0.00    -0.298 NA
ATOM     22  C   LIG    1        4.049  -0.809  -0.917  0.00  0.00    +0.105 C 
ATOM     23  C   LIG    1        5.207   1.153  -1.583  0.00  0.00    +0.105 C 
ENDBRANCH  19  21
ENDBRANCH  16  19
ENDBRANCH   8  15
TORSDOF 4
