REMARK  Name = molecules/UQRORFVVSGFNRO-UTINFBMNSA-N.pdb
REMARK                            x       y       z     vdW  Elec       q    Type
REMARK                         _______ _______ _______ _____ _____    ______ ____
ROOT
ATOM      1  N   LIG    1        0.181  -0.166   0.154  0.00  0.00    -0.292 NA
ATOM      2  C   LIG    1       -0.192   1.178   0.492  0.00  0.00    +0.118 C 
ATOM      3  C   LIG    1       -1.583   1.529   0.009  0.00  0.00    +0.159 C 
ATOM      4  C   LIG    1       -2.547   0.717   0.858  0.00  0.00    +0.174 C 
ATOM      5  C   LIG    1       -2.077  -0.698   1.026  0.00  0.00    +0.165 C 
ATOM      6  C   LIG    1       -0.932  -1.081   0.188  0.00  0.00    +0.113 C 
ENDROOT
BRANCH   5   7
ATOM      7  O   LIG    1       -1.702  -0.842   2.380  0.00  0.00    -0.388 OA
ATOM      8  H   LIG    1       -0.888  -1.427   2.428  0.00  0.00    +0.210 HD
ENDBRANCH   5   7
BRANCH   4   9
ATOM      9  O   LIG    1       -3.796   0.770   0.242  0.00  0.00    -0.387 OA
ATOM     10  H   LIG    1       -4.166   1.669   0.307  0.00  0.00    +0.210 HD
ENDBRANCH   4   9
BRANCH   3  11
ATOM     11  O   LIG    1       -1.790   2.894   0.270  0.00  0.00    -0.388 OA
ATOM     12  H   LIG    1       -1.427   3.407  -0.523  0.00  0.00    +0.210 HD
ENDBRANCH   3  11
BRANCH   1  13
ATOM     13  C   LIG    1        0.936  -0.271  -1.060  0.00  0.00    +0.085 C 
BRANCH  13  14
ATOM     14  C   LIG    1        2.286   0.394  -0.838  0.00  0.00    +0.015 C 
BRANCH  14  15
ATOM     15  C   LIG    1        2.979  -0.350   0.307  0.00  0.00    -0.002 C 
ATOM     16  C   LIG    1        4.318   0.248   0.569  0.00  0.00    +0.004 C 
ENDBRANCH  14  15
ENDBRANCH  13  14
ENDBRANCH   1  13
BRANCH   6  17
ATOM     17  C   LIG    1       -1.375  -1.603  -1.156  0.00  0.00    +0.177 C 
BRANCH  17  18
ATOM     18  O   LIG    1       -2.463  -2.469  -0.884  0.00  0.00    -0.393 OA
ATOM     19  H   LIG    1       -2.196  -3.070  -0.122  0.00  0.00    +0.209 HD
ENDBRANCH  17  18
ENDBRANCH   6  17
TORSDOF 8
