REMARK  Name = molecules/UQZVCDCIMBLVNR-TWYODKAFSA-N.pdb
REMARK                            x       y       z     vdW  Elec       q    Type
REMARK                         _______ _______ _______ _____ _____    ______ ____
ROOT
ATOM      1  C   LIG    1        0.842  -0.354  -1.509  0.00  0.00    +0.051 C 
ATOM      2  C   LIG    1        1.122  -1.342  -0.434  0.00  0.00    +0.129 C 
ATOM      3  C   LIG    1        1.006  -0.595   0.862  0.00  0.00    +0.106 C 
ATOM      4  C   LIG    1        0.564   0.781   0.514  0.00  0.00    +0.140 C 
ATOM      5  O   LIG    1        0.633   1.801   1.167  0.00  0.00    -0.297 OA
ATOM      6  C   LIG    1       -0.016   0.688  -0.857  0.00  0.00    +0.068 C 
ENDROOT
BRANCH   1   7
ATOM      7  C   LIG    1        2.028   0.382  -2.020  0.00  0.00    -0.022 C 
ATOM      8  C   LIG    1        3.273   0.264  -1.613  0.00  0.00    +0.003 C 
BRANCH   8   9
ATOM      9  C   LIG    1        4.365   1.082  -2.230  0.00  0.00    +0.174 C 
BRANCH   9  10
ATOM     10  O   LIG    1        4.640   2.133  -1.393  0.00  0.00    -0.384 OA
ATOM     11  H   LIG    1        4.637   1.846  -0.427  0.00  0.00    +0.210 HD
ENDBRANCH   9  10
BRANCH   9  12
ATOM     12  C   LIG    1        5.573   0.255  -2.590  0.00  0.00    +0.264 C 
BRANCH  12  13
ATOM     13  O   LIG    1        6.287  -0.342  -1.631  0.00  0.00    -0.489 OA
BRANCH  13  14
ATOM     14  C   LIG    1        7.057  -0.122  -0.567  0.00  0.00    +0.121 A 
ATOM     15  C   LIG    1        7.556  -1.255   0.109  0.00  0.00    +0.045 A 
ATOM     16  C   LIG    1        8.345  -1.121   1.201  0.00  0.00    +0.004 A 
ATOM     17  C   LIG    1        8.693   0.113   1.697  0.00  0.00    +0.000 A 
ATOM     18  C   LIG    1        8.204   1.208   1.032  0.00  0.00    +0.004 A 
ATOM     19  C   LIG    1        7.402   1.101  -0.078  0.00  0.00    +0.045 A 
ENDBRANCH  13  14
ENDBRANCH  12  13
ENDBRANCH   9  12
ENDBRANCH   8   9
ENDBRANCH   1   7
BRANCH   2  20
ATOM     20  O   LIG    1        0.240  -2.436  -0.483  0.00  0.00    -0.391 OA
ATOM     21  H   LIG    1       -0.151  -2.569  -1.381  0.00  0.00    +0.210 HD
ENDBRANCH   2  20
BRANCH   6  22
ATOM     22  C   LIG    1       -1.490   0.331  -0.749  0.00  0.00    +0.038 C 
BRANCH  22  23
ATOM     23  C   LIG    1       -2.148   1.455  -0.099  0.00  0.00    -0.030 C 
ATOM     24  C   LIG    1       -2.804   1.419   1.026  0.00  0.00    -0.031 C 
BRANCH  24  25
ATOM     25  C   LIG    1       -3.016   0.220   1.866  0.00  0.00    +0.027 C 
BRANCH  25  26
ATOM     26  C   LIG    1       -4.534   0.023   2.001  0.00  0.00    +0.013 C 
BRANCH  26  27
ATOM     27  C   LIG    1       -5.145  -0.206   0.646  0.00  0.00    +0.097 C 
BRANCH  27  28
ATOM     28  C   LIG    1       -6.635  -0.324   0.745  0.00  0.00    +0.232 C 
ATOM     29  O   LIG    1       -7.112  -0.197   1.944  0.00  0.00    -0.274 OA
ATOM     30  N   LIG    1       -7.510  -0.548  -0.300  0.00  0.00    -0.190 N 
ATOM     31  H   LIG    1       -7.171  -0.669  -1.292  0.00  0.00    +0.176 HD
BRANCH  30  32
ATOM     32  S   LIG    1       -9.218  -0.639  -0.036  0.00  0.00    +0.042 S 
ATOM     33  C   LIG    1       -9.649  -0.149   1.618  0.00  0.00    +0.218 C 
ATOM     34  O   LIG    1       -9.743  -2.016  -0.286  0.00  0.00    -0.155 OA
ATOM     35  O   LIG    1       -9.902   0.313  -0.984  0.00  0.00    -0.155 OA
ENDBRANCH  30  32
ENDBRANCH  27  28
ENDBRANCH  26  27
ENDBRANCH  25  26
ENDBRANCH  24  25
ENDBRANCH  22  23
ENDBRANCH   6  22
TORSDOF 14
