REMARK  Name = molecules/URAYPUMNDPQOKB-UHFFFAOYSA-N.pdb
REMARK                            x       y       z     vdW  Elec       q    Type
REMARK                         _______ _______ _______ _____ _____    ______ ____
ROOT
ATOM      1  C   LIG    1        0.019  -0.894  -0.144  0.00  0.00    +0.251 C 
ENDROOT
BRANCH   1   2
ATOM      2  C   LIG    1       -1.430  -0.549  -0.146  0.00  0.00    +0.280 C 
BRANCH   2   3
ATOM      3  O   LIG    1       -1.896   0.646   0.288  0.00  0.00    -0.461 OA
BRANCH   3   4
ATOM      4  C   LIG    1       -1.902   1.906  -0.240  0.00  0.00    +0.304 C 
ATOM      5  C   LIG    1       -2.469   3.087   0.487  0.00  0.00    +0.136 C 
ATOM      6  O   LIG    1       -1.406   2.054  -1.387  0.00  0.00    -0.251 OA
ENDBRANCH   3   4
ENDBRANCH   2   3
ENDBRANCH   1   2
BRANCH   1   7
ATOM      7  O   LIG    1        0.037  -2.217  -0.776  0.00  0.00    -0.455 OA
BRANCH   7   8
ATOM      8  C   LIG    1        0.494  -3.315  -0.069  0.00  0.00    +0.304 C 
ATOM      9  O   LIG    1        0.883  -3.138   1.103  0.00  0.00    -0.251 OA
ATOM     10  C   LIG    1        0.496  -4.637  -0.745  0.00  0.00    +0.136 C 
ENDBRANCH   7   8
ENDBRANCH   1   7
BRANCH   1  11
ATOM     11  C   LIG    1        0.870  -0.042  -0.989  0.00  0.00    +0.280 C 
BRANCH  11  12
ATOM     12  O   LIG    1        1.146   1.241  -0.502  0.00  0.00    -0.461 OA
BRANCH  12  13
ATOM     13  C   LIG    1        1.792   1.444   0.698  0.00  0.00    +0.304 C 
ATOM     14  O   LIG    1        2.151   0.463   1.387  0.00  0.00    -0.251 OA
ATOM     15  C   LIG    1        2.080   2.806   1.205  0.00  0.00    +0.136 C 
ENDBRANCH  12  13
ENDBRANCH  11  12
ENDBRANCH   1  11
TORSDOF 8
