REMARK  Name = molecules/UREBDLICKHMUKA-DVTGEIKXSA-N.pdb
REMARK                            x       y       z     vdW  Elec       q    Type
REMARK                         _______ _______ _______ _____ _____    ______ ____
ROOT
ATOM      1  F   LIG    1        1.677   0.133   1.782  0.00  0.00    -0.238 F 
ATOM      2  C   LIG    1        1.534   0.388   0.420  0.00  0.00    +0.153 C 
ATOM      3  C   LIG    1        0.575   1.509   0.253  0.00  0.00    +0.154 C 
ATOM      4  C   LIG    1       -0.556   1.273  -0.730  0.00  0.00    +0.044 C 
ATOM      5  C   LIG    1       -1.346   0.034  -0.511  0.00  0.00    +0.010 C 
ATOM      6  C   LIG    1       -0.515  -0.778   0.477  0.00  0.00    +0.005 C 
ATOM      7  C   LIG    1       -1.387  -1.937   0.672  0.00  0.00    +0.011 C 
ATOM      8  C   LIG    1       -2.701  -1.205   0.975  0.00  0.00    +0.026 C 
ATOM      9  C   LIG    1       -3.917  -1.977   0.666  0.00  0.00    +0.011 C 
ATOM     10  C   LIG    1       -2.599   0.160   0.307  0.00  0.00    +0.134 C 
ATOM     11  C   LIG    1       -1.673  -0.709  -1.765  0.00  0.00    +0.015 C 
ATOM     12  C   LIG    1        0.818  -0.874  -0.115  0.00  0.00    +0.034 C 
ATOM     13  C   LIG    1        1.605  -2.089   0.160  0.00  0.00    +0.011 C 
ATOM     14  C   LIG    1        2.891  -1.956  -0.687  0.00  0.00    +0.032 C 
ATOM     15  C   LIG    1        3.580  -0.764  -0.042  0.00  0.00    -0.053 C 
ATOM     16  C   LIG    1        4.708  -1.014   0.579  0.00  0.00    +0.051 C 
ATOM     17  C   LIG    1        5.393   0.065   1.266  0.00  0.00    +0.179 C 
ATOM     18  O   LIG    1        6.471  -0.202   1.851  0.00  0.00    -0.288 OA
ATOM     19  C   LIG    1        4.796   1.381   1.239  0.00  0.00    +0.047 C 
ATOM     20  C   LIG    1        3.656   1.564   0.593  0.00  0.00    -0.009 C 
ATOM     21  C   LIG    1        2.896   0.536  -0.134  0.00  0.00    +0.044 C 
ATOM     22  C   LIG    1        2.924   0.936  -1.597  0.00  0.00    +0.023 C 
ENDROOT
BRANCH   3  23
ATOM     23  O   LIG    1        1.153   2.727  -0.122  0.00  0.00    -0.389 OA
ATOM     24  H   LIG    1        0.652   3.500   0.193  0.00  0.00    +0.210 HD
ENDBRANCH   3  23
BRANCH  10  25
ATOM     25  O   LIG    1       -2.389   1.163   1.263  0.00  0.00    -0.380 OA
ATOM     26  H   LIG    1       -2.384   2.020   0.771  0.00  0.00    +0.211 HD
ENDBRANCH  10  25
BRANCH  10  27
ATOM     27  C   LIG    1       -3.797   0.542  -0.457  0.00  0.00    +0.190 C 
ATOM     28  O   LIG    1       -4.191  -0.167  -1.352  0.00  0.00    -0.292 OA
BRANCH  27  29
ATOM     29  C   LIG    1       -4.554   1.780  -0.170  0.00  0.00    +0.233 C 
BRANCH  29  30
ATOM     30  O   LIG    1       -5.652   1.909  -1.020  0.00  0.00    -0.387 OA
ATOM     31  H   LIG    1       -6.412   2.338  -0.572  0.00  0.00    +0.210 HD
ENDBRANCH  29  30
ENDBRANCH  27  29
ENDBRANCH  10  27
TORSDOF 5
