REMARK  Name = molecules/URKOMYMAXPYINW-UHFFFAOYSA-N.pdb
REMARK                            x       y       z     vdW  Elec       q    Type
REMARK                         _______ _______ _______ _____ _____    ______ ____
ROOT
ATOM      1  C   LIG    1       -2.142   0.037   0.053  0.00  0.00    +0.322 C 
ATOM      2  N   LIG    1       -2.784   0.859   0.818  0.00  0.00    -0.040 NA
ATOM      3  C   LIG    1       -4.151   1.128   0.971  0.00  0.00    +0.190 A 
ATOM      4  C   LIG    1       -4.421   2.409   1.447  0.00  0.00    +0.056 A 
ATOM      5  C   LIG    1       -5.716   2.840   1.655  0.00  0.00    +0.004 A 
ATOM      6  C   LIG    1       -6.779   2.017   1.398  0.00  0.00    +0.001 A 
ATOM      7  C   LIG    1       -6.509   0.742   0.923  0.00  0.00    +0.019 A 
ATOM      8  C   LIG    1       -5.209   0.312   0.715  0.00  0.00    +0.063 A 
ATOM      9  S   LIG    1       -5.273  -1.383   0.096  0.00  0.00    -0.084 S 
ATOM     10  C   LIG    1       -3.855  -1.534  -1.010  0.00  0.00    +0.028 A 
ATOM     11  C   LIG    1       -4.128  -2.401  -2.026  0.00  0.00    +0.016 A 
ATOM     12  C   LIG    1       -3.173  -2.652  -2.974  0.00  0.00    +0.001 A 
ATOM     13  C   LIG    1       -1.942  -2.042  -2.919  0.00  0.00    +0.001 A 
ATOM     14  C   LIG    1       -1.660  -1.152  -1.877  0.00  0.00    +0.017 A 
ATOM     15  C   LIG    1       -2.625  -0.902  -0.924  0.00  0.00    +0.079 A 
ENDROOT
BRANCH   1  19
ATOM     16  N   LIG    1        1.891  -0.310  -0.062  0.00  0.00    -0.293 NA
ATOM     17  C   LIG    1        1.352  -0.624   1.215  0.00  0.00    +0.128 C 
ATOM     18  C   LIG    1       -0.120  -0.984   0.955  0.00  0.00    +0.241 C 
ATOM     19  N   LIG    1       -0.735   0.110   0.244  0.00  0.00    -0.218 N 
ATOM     20  C   LIG    1        0.052   1.215  -0.227  0.00  0.00    +0.241 C 
ATOM     21  C   LIG    1        1.444   0.872  -0.687  0.00  0.00    +0.128 C 
BRANCH  16  22
ATOM     22  C   LIG    1        3.149  -0.837  -0.404  0.00  0.00    +0.112 C 
BRANCH  22  23
ATOM     23  C   LIG    1        4.328  -0.282   0.375  0.00  0.00    +0.175 C 
BRANCH  23  24
ATOM     24  O   LIG    1        5.447  -0.934  -0.109  0.00  0.00    -0.376 OA
BRANCH  24  25
ATOM     25  C   LIG    1        6.640  -0.600   0.463  0.00  0.00    +0.187 C 
BRANCH  25  26
ATOM     26  C   LIG    1        6.956   0.865   0.264  0.00  0.00    +0.184 C 
BRANCH  26  27
ATOM     27  O   LIG    1        8.197   1.114   0.877  0.00  0.00    -0.393 OA
ATOM     28  H   LIG    1        8.417   0.441   1.572  0.00  0.00    +0.209 HD
ENDBRANCH  26  27
ENDBRANCH  25  26
ENDBRANCH  24  25
ENDBRANCH  23  24
ENDBRANCH  22  23
ENDBRANCH  16  22
ENDBRANCH   1  19
TORSDOF 7
