REMARK  Name = molecules/URNFTLVCQLRCMN-UHFFFAOYSA-N.pdb
REMARK                            x       y       z     vdW  Elec       q    Type
REMARK                         _______ _______ _______ _____ _____    ______ ____
ROOT
ATOM      1  O   LIG    1       -0.709   1.056  -2.929  0.00  0.00    -0.274 OA
ATOM      2  C   LIG    1       -0.522   0.002  -2.228  0.00  0.00    +0.237 C 
ATOM      3  C   LIG    1       -0.209  -0.113  -0.823  0.00  0.00    +0.124 C 
ATOM      4  C   LIG    1       -0.119  -1.575  -0.571  0.00  0.00    -0.002 A 
ATOM      5  C   LIG    1        0.142  -2.333   0.553  0.00  0.00    +0.007 A 
ATOM      6  C   LIG    1        0.183  -3.711   0.576  0.00  0.00    +0.001 A 
ATOM      7  C   LIG    1       -0.056  -4.350  -0.621  0.00  0.00    +0.005 A 
ATOM      8  C   LIG    1       -0.318  -3.615  -1.752  0.00  0.00    -0.029 A 
ATOM      9  C   LIG    1       -0.575  -4.330  -3.040  0.00  0.00    +0.045 C 
ATOM     10  C   LIG    1       -0.355  -2.222  -1.753  0.00  0.00    +0.041 A 
ATOM     11  N   LIG    1       -0.607  -1.279  -2.796  0.00  0.00    -0.284 N 
ATOM     12  H   LIG    1       -0.817  -1.550  -3.806  0.00  0.00    +0.155 HD
ENDROOT
BRANCH   3  13
ATOM     13  C   LIG    1       -1.236   0.522   0.051  0.00  0.00    -0.024 A 
ATOM     14  C   LIG    1       -2.337  -0.142   0.513  0.00  0.00    +0.009 A 
ATOM     15  C   LIG    1       -3.257   0.481   1.323  0.00  0.00    +0.049 A 
ATOM     16  C   LIG    1       -3.071   1.801   1.681  0.00  0.00    +0.159 A 
ATOM     17  C   LIG    1       -1.982   2.488   1.235  0.00  0.00    +0.049 A 
ATOM     18  C   LIG    1       -1.054   1.838   0.410  0.00  0.00    +0.009 A 
BRANCH  16  19
ATOM     19  O   LIG    1       -4.003   2.421   2.498  0.00  0.00    -0.325 OA
BRANCH  19  20
ATOM     20  S   LIG    1       -5.308   3.211   1.705  0.00  0.00    +0.251 S 
ATOM     21  O   LIG    1       -6.133   2.112   1.072  0.00  0.00    -0.108 OA
ATOM     22  O   LIG    1       -4.781   4.104   0.631  0.00  0.00    -0.108 OA
BRANCH  20  23
ATOM     23  O   LIG    1       -6.285   4.003   2.795  0.00  0.00    -0.222 OA
ATOM     24  H   LIG    1       -6.244   4.972   2.714  0.00  0.00    +0.248 HD
ENDBRANCH  20  23
ENDBRANCH  19  20
ENDBRANCH  16  19
ENDBRANCH   3  13
BRANCH   3  25
ATOM     25  C   LIG    1        1.099   0.468  -0.440  0.00  0.00    -0.024 A 
ATOM     26  C   LIG    1        1.321   0.709   0.897  0.00  0.00    +0.009 A 
ATOM     27  C   LIG    1        2.520   1.245   1.354  0.00  0.00    +0.049 A 
ATOM     28  C   LIG    1        3.521   1.548   0.457  0.00  0.00    +0.159 A 
ATOM     29  C   LIG    1        3.304   1.308  -0.883  0.00  0.00    +0.049 A 
ATOM     30  C   LIG    1        2.092   0.768  -1.331  0.00  0.00    +0.009 A 
BRANCH  28  31
ATOM     31  O   LIG    1        4.690   2.077   0.962  0.00  0.00    -0.325 OA
BRANCH  31  32
ATOM     32  S   LIG    1        6.010   1.138   1.455  0.00  0.00    +0.251 S 
ATOM     33  O   LIG    1        5.465   0.094   2.416  0.00  0.00    -0.108 OA
ATOM     34  O   LIG    1        6.989   1.966   2.203  0.00  0.00    -0.108 OA
BRANCH  32  35
ATOM     35  O   LIG    1        6.730   0.329   0.193  0.00  0.00    -0.222 OA
ATOM     36  H   LIG    1        6.441   0.725  -0.669  0.00  0.00    +0.248 HD
ENDBRANCH  32  35
ENDBRANCH  31  32
ENDBRANCH  28  31
ENDBRANCH   3  25
TORSDOF 8
