REMARK  Name = molecules/URSRSKSNFPUKGH-SFHVURJKSA-N.pdb
REMARK                            x       y       z     vdW  Elec       q    Type
REMARK                         _______ _______ _______ _____ _____    ______ ____
ROOT
ATOM      1  C   LIG    1       -0.492   0.572  -0.076  0.00  0.00    +0.117 C 
ATOM      2  C   LIG    1        0.001   1.166  -1.376  0.00  0.00    +0.052 C 
ENDROOT
BRANCH   1   3
ATOM      3  C   LIG    1       -1.659   1.456   0.348  0.00  0.00    -0.012 A 
ATOM      4  C   LIG    1       -1.674   2.073   1.577  0.00  0.00    +0.008 A 
ATOM      5  C   LIG    1       -2.742   2.879   1.956  0.00  0.00    +0.015 A 
ATOM      6  C   LIG    1       -3.819   3.089   1.123  0.00  0.00    +0.018 A 
ATOM      7 BR   LIG    1       -5.285   4.203   1.659  0.00  0.00    -0.050 Br
ATOM      8  C   LIG    1       -3.798   2.468  -0.105  0.00  0.00    +0.015 A 
ATOM      9  C   LIG    1       -2.735   1.663  -0.487  0.00  0.00    +0.008 A 
ENDBRANCH   1   3
BRANCH   1  10
ATOM     10  C   LIG    1       -1.048  -0.820  -0.302  0.00  0.00    -0.012 A 
ATOM     11  C   LIG    1       -1.135  -1.637   0.802  0.00  0.00    +0.007 A 
ATOM     12  C   LIG    1       -1.647  -2.913   0.616  0.00  0.00    +0.000 A 
ATOM     13  C   LIG    1       -2.051  -3.339  -0.629  0.00  0.00    +0.000 A 
ATOM     14  C   LIG    1       -1.970  -2.543  -1.727  0.00  0.00    +0.000 A 
ATOM     15  C   LIG    1       -1.454  -1.255  -1.540  0.00  0.00    +0.007 A 
ENDBRANCH   1  10
BRANCH   1  16
ATOM     16  O   LIG    1        0.371   0.573   0.946  0.00  0.00    -0.363 OA
BRANCH  16  17
ATOM     17  C   LIG    1        1.543  -0.049   0.985  0.00  0.00    +0.177 C 
BRANCH  17  18
ATOM     18  C   LIG    1        2.593   0.336  -0.006  0.00  0.00    +0.112 C 
BRANCH  18  19
ATOM     19  N   LIG    1        3.824  -0.450   0.207  0.00  0.00    -0.306 NA
ATOM     20  C   LIG    1        3.573  -1.860   0.126  0.00  0.00    +0.104 C 
ATOM     21  C   LIG    1        4.795  -0.015  -0.798  0.00  0.00    +0.104 C 
ENDBRANCH  18  19
ENDBRANCH  17  18
ENDBRANCH  16  17
ENDBRANCH   1  16
TORSDOF 6
