REMARK  Name = molecules/USRHYDPUVLEVMC-FQEVSTJZSA-N.pdb
REMARK                            x       y       z     vdW  Elec       q    Type
REMARK                         _______ _______ _______ _____ _____    ______ ____
ROOT
ATOM      1  C   LIG    1        0.394  -0.671   1.457  0.00  0.00    +0.231 C 
ENDROOT
BRANCH   1   2
ATOM      2  O   LIG    1        1.135   0.070   0.520  0.00  0.00    -0.491 OA
BRANCH   2   3
ATOM      3  C   LIG    1        2.499  -0.240   0.446  0.00  0.00    +0.128 A 
ATOM      4  C   LIG    1        3.067  -1.208   1.248  0.00  0.00    +0.046 A 
ATOM      5  C   LIG    1        4.410  -1.492   1.154  0.00  0.00    +0.004 A 
ATOM      6  C   LIG    1        5.248  -0.848   0.282  0.00  0.00    +0.009 A 
ATOM      7  C   LIG    1        4.681   0.126  -0.525  0.00  0.00    -0.014 A 
ATOM      8  C   LIG    1        5.539   0.783  -1.415  0.00  0.00    +0.008 A 
ATOM      9  C   LIG    1        5.017   1.765  -2.242  0.00  0.00    +0.001 A 
ATOM     10  C   LIG    1        3.675   2.041  -2.140  0.00  0.00    +0.001 A 
ATOM     11  C   LIG    1        2.835   1.390  -1.262  0.00  0.00    +0.012 A 
ATOM     12  C   LIG    1        3.345   0.415  -0.439  0.00  0.00    +0.024 A 
ENDBRANCH   2   3
ENDBRANCH   1   2
BRANCH   1  13
ATOM     13  C   LIG    1       -1.060  -0.334   1.547  0.00  0.00    +0.064 C 
BRANCH  13  14
ATOM     14  C   LIG    1       -1.843  -0.528   0.278  0.00  0.00    +0.089 C 
BRANCH  14  15
ATOM     15  C   LIG    1       -3.305  -0.514   0.516  0.00  0.00    -0.030 A 
ATOM     16  C   LIG    1       -4.072   0.614   0.668  0.00  0.00    +0.005 A 
ATOM     17  C   LIG    1       -5.435   0.572   0.881  0.00  0.00    +0.000 A 
ATOM     18  C   LIG    1       -6.106  -0.629   0.954  0.00  0.00    +0.000 A 
ATOM     19  C   LIG    1       -5.362  -1.780   0.805  0.00  0.00    +0.000 A 
ATOM     20  C   LIG    1       -4.003  -1.726   0.593  0.00  0.00    +0.005 A 
ENDBRANCH  14  15
BRANCH  14  21
ATOM     21  N   LIG    1       -1.353   0.296  -0.749  0.00  0.00    -0.301 NA
ATOM     22  C   LIG    1       -1.401   1.692  -0.629  0.00  0.00    +0.105 C 
ATOM     23  C   LIG    1       -1.445  -0.228  -2.076  0.00  0.00    +0.105 C 
ENDBRANCH  14  21
ENDBRANCH  13  14
ENDBRANCH   1  13
TORSDOF 6
