REMARK  Name = molecules/USSIQXCVUWKGNF-KRWDZBQOSA-N.pdb
REMARK                            x       y       z     vdW  Elec       q    Type
REMARK                         _______ _______ _______ _____ _____    ______ ____
ROOT
ATOM      1  C   LIG    1       -0.289   0.036  -0.153  0.00  0.00    +0.080 C 
ENDROOT
BRANCH   1   2
ATOM      2  C   LIG    1       -1.009   0.246   1.184  0.00  0.00    -0.030 A 
ATOM      3  C   LIG    1       -1.459  -0.846   1.851  0.00  0.00    +0.005 A 
ATOM      4  C   LIG    1       -2.113  -0.680   3.079  0.00  0.00    +0.000 A 
ATOM      5  C   LIG    1       -2.294   0.566   3.598  0.00  0.00    +0.000 A 
ATOM      6  C   LIG    1       -1.838   1.677   2.923  0.00  0.00    +0.000 A 
ATOM      7  C   LIG    1       -1.188   1.490   1.699  0.00  0.00    +0.005 A 
ENDBRANCH   1   2
BRANCH   1   8
ATOM      8  C   LIG    1       -0.714   1.234  -0.942  0.00  0.00    -0.030 A 
ATOM      9  C   LIG    1       -2.040   1.647  -0.781  0.00  0.00    +0.005 A 
ATOM     10  C   LIG    1       -2.555   2.753  -1.465  0.00  0.00    +0.000 A 
ATOM     11  C   LIG    1       -1.761   3.471  -2.324  0.00  0.00    +0.000 A 
ATOM     12  C   LIG    1       -0.462   3.057  -2.475  0.00  0.00    +0.000 A 
ATOM     13  C   LIG    1        0.066   1.949  -1.794  0.00  0.00    +0.005 A 
ENDBRANCH   1   8
BRANCH   1  14
ATOM     14  C   LIG    1       -0.917  -1.191  -0.697  0.00  0.00    +0.148 C 
ATOM     15  O   LIG    1       -0.364  -2.222  -0.999  0.00  0.00    -0.296 OA
BRANCH  14  16
ATOM     16  C   LIG    1       -2.416  -1.239  -0.933  0.00  0.00    +0.072 C 
ATOM     17  C   LIG    1       -2.807  -2.606  -1.525  0.00  0.00    +0.012 C 
ENDBRANCH  14  16
ENDBRANCH   1  14
BRANCH   1  18
ATOM     18  C   LIG    1        1.115  -0.025   0.253  0.00  0.00    +0.042 C 
BRANCH  18  19
ATOM     19  C   LIG    1        2.267  -0.371  -0.558  0.00  0.00    +0.055 C 
ATOM     20  C   LIG    1        2.384  -1.841  -0.980  0.00  0.00    +0.024 C 
BRANCH  19  21
ATOM     21  N   LIG    1        3.456  -0.213   0.358  0.00  0.00    -0.306 NA
ATOM     22  C   LIG    1        3.349  -0.975   1.539  0.00  0.00    +0.104 C 
ATOM     23  C   LIG    1        4.678  -0.483  -0.322  0.00  0.00    +0.104 C 
ENDBRANCH  19  21
ENDBRANCH  18  19
ENDBRANCH   1  18
TORSDOF 7
