REMARK  Name = molecules/USXVMPAWZOOYDE-OAYGGAORSA-N.pdb
REMARK                            x       y       z     vdW  Elec       q    Type
REMARK                         _______ _______ _______ _____ _____    ______ ____
ROOT
ATOM      1  C   LIG    1       -2.457   0.523  -1.415  0.00  0.00    +0.021 C 
ATOM      2  C   LIG    1       -2.503   0.331   0.100  0.00  0.00    +0.016 C 
ATOM      3  C   LIG    1       -3.272   1.452   0.663  0.00  0.00    -0.012 C 
ATOM      4  C   LIG    1       -4.399   1.335   1.310  0.00  0.00    +0.047 C 
ATOM      5  C   LIG    1       -4.999   0.036   1.532  0.00  0.00    +0.179 C 
ATOM      6  O   LIG    1       -6.071  -0.139   2.137  0.00  0.00    -0.288 OA
ATOM      7  C   LIG    1       -4.281  -1.123   1.002  0.00  0.00    +0.056 C 
ATOM      8  C   LIG    1       -1.078   0.337   0.662  0.00  0.00    +0.010 C 
ATOM      9  C   LIG    1       -0.426   1.641   0.453  0.00  0.00    +0.006 C 
ATOM     10  C   LIG    1        0.912   1.713  -0.165  0.00  0.00    +0.008 C 
ATOM     11  C   LIG    1        1.682   0.406  -0.109  0.00  0.00    -0.019 C 
ATOM     12  C   LIG    1        1.955   0.080   1.308  0.00  0.00    +0.012 C 
ATOM     13  C   LIG    1        0.702  -0.576  -0.785  0.00  0.00    +0.003 C 
ATOM     14  C   LIG    1        1.590  -1.733  -1.120  0.00  0.00    +0.005 C 
ATOM     15  C   LIG    1        2.976  -1.151  -1.283  0.00  0.00    +0.012 C 
ATOM     16  C   LIG    1        2.826   0.363  -1.025  0.00  0.00    +0.061 C 
ATOM     17  C   LIG    1       -0.320  -0.867   0.255  0.00  0.00    +0.021 C 
ATOM     18  C   LIG    1       -1.118  -2.046  -0.147  0.00  0.00    -0.003 C 
ATOM     19  C   LIG    1       -2.429  -2.146  -0.118  0.00  0.00    +0.041 C 
ATOM     20 CL   LIG    1       -3.333  -3.576  -0.567  0.00  0.00    -0.084 Cl
ATOM     21  C   LIG    1       -3.160  -0.951   0.365  0.00  0.00    -0.016 C 
ENDROOT
BRANCH  16  22
ATOM     22  C   LIG    1        4.078   0.852  -0.451  0.00  0.00    +0.134 C 
ATOM     23  C   LIG    1        4.903   0.247   0.613  0.00  0.00    +0.086 C 
ATOM     24  O   LIG    1        4.489   1.935  -0.946  0.00  0.00    -0.297 OA
ENDBRANCH  16  22
TORSDOF 1
