REMARK  Name = molecules/USZAGAREISWJDP-UHFFFAOYSA-N.pdb
REMARK                            x       y       z     vdW  Elec       q    Type
REMARK                         _______ _______ _______ _____ _____    ______ ____
ROOT
ATOM      1  C   LIG    1       -0.529  -0.280   0.234  0.00  0.00    +0.000 A 
ATOM      2  C   LIG    1       -0.576   1.070   0.505  0.00  0.00    +0.000 A 
ATOM      3  C   LIG    1       -1.837   1.669   0.487  0.00  0.00    +0.000 A 
ATOM      4  C   LIG    1       -2.988   0.968   0.217  0.00  0.00    +0.000 A 
ATOM      5  B   LIG    1       -4.512   1.313   0.121  0.00  0.00    +0.000 B 
ATOM      6  O   LIG    1       -5.188   0.004   0.224  0.00  0.00    +0.000 OA
ATOM      7  C   LIG    1       -4.306  -0.907  -0.311  0.00  0.00    +0.000 C 
ATOM      8  C   LIG    1       -2.918  -0.384  -0.051  0.00  0.00    +0.000 A 
ATOM      9  C   LIG    1       -1.715  -0.991  -0.042  0.00  0.00    +0.000 A 
ENDROOT
BRANCH   5  10
ATOM     10  O   LIG    1       -5.065   2.635   0.285  0.00  0.00    +0.000 OA
ATOM     11  H   LIG    1       -5.611   2.836  -0.527  0.00  0.00    +0.000 HD
ENDBRANCH   5  10
BRANCH   1  12
ATOM     12  O   LIG    1        0.624  -0.980   0.215  0.00  0.00    +0.000 OA
BRANCH  12  17
ATOM     13  C   LIG    1        3.869   0.574  -0.538  0.00  0.00    +0.000 A 
ATOM     14  C   LIG    1        4.700  -0.420  -0.109  0.00  0.00    +0.000 A 
ATOM     15  C   LIG    1        4.174  -1.589   0.423  0.00  0.00    +0.000 A 
ATOM     16  C   LIG    1        2.817  -1.734   0.513  0.00  0.00    +0.000 A 
ATOM     17  C   LIG    1        1.923  -0.737   0.085  0.00  0.00    +0.000 A 
ATOM     18  C   LIG    1        2.497   0.383  -0.427  0.00  0.00    +0.000 A 
BRANCH  14  19
ATOM     19  C   LIG    1        6.134  -0.318  -0.181  0.00  0.00    +0.000 C 
ATOM     20  N   LIG    1        7.281  -0.220  -0.242  0.00  0.00    +0.000 NA
ENDBRANCH  14  19
ENDBRANCH  12  17
ENDBRANCH   1  12
TORSDOF 4
