REMARK  Name = molecules/USZYSDMBJDPRIF-SVEJIMAYSA-N.pdb
REMARK                            x       y       z     vdW  Elec       q    Type
REMARK                         _______ _______ _______ _____ _____    ______ ____
ROOT
ATOM      1  C   LIG    1       -5.216  -2.512   1.162  0.00  0.00    +0.160 C 
ATOM      2  C   LIG    1       -4.061  -2.628   2.069  0.00  0.00    +0.085 C 
ATOM      3  C   LIG    1       -3.154  -1.435   2.011  0.00  0.00    +0.072 C 
ATOM      4  C   LIG    1       -2.952  -1.039   0.534  0.00  0.00    +0.158 C 
ATOM      5  C   LIG    1       -4.250  -0.421   0.188  0.00  0.00    +0.028 A 
ATOM      6  C   LIG    1       -4.425   0.818  -0.402  0.00  0.00    +0.134 A 
ATOM      7  C   LIG    1       -5.703   1.343  -0.641  0.00  0.00    +0.075 A 
ATOM      8  C   LIG    1       -6.788   0.599  -0.276  0.00  0.00    +0.037 A 
ATOM      9  C   LIG    1       -6.621  -0.647   0.316  0.00  0.00    +0.017 A 
ATOM     10  C   LIG    1       -8.121   1.142  -0.515  0.00  0.00    +0.195 C 
ATOM     11  O   LIG    1       -9.104   0.436  -0.167  0.00  0.00    -0.287 OA
ATOM     12  C   LIG    1       -8.333   2.438  -1.126  0.00  0.00    +0.037 A 
ATOM     13  C   LIG    1       -9.622   2.942  -1.343  0.00  0.00    +0.012 A 
ATOM     14  C   LIG    1       -9.823   4.177  -1.921  0.00  0.00    +0.004 A 
ATOM     15  C   LIG    1       -8.721   4.914  -2.285  0.00  0.00    +0.046 A 
ATOM     16  C   LIG    1       -7.444   4.415  -2.071  0.00  0.00    +0.128 A 
ATOM     17  C   LIG    1       -7.237   3.186  -1.494  0.00  0.00    +0.075 A 
ATOM     18  C   LIG    1       -5.880   2.654  -1.260  0.00  0.00    +0.202 C 
ATOM     19  O   LIG    1       -4.916   3.356  -1.605  0.00  0.00    -0.286 OA
ATOM     20  C   LIG    1       -5.397  -1.154   0.547  0.00  0.00    -0.021 A 
ENDROOT
BRANCH   1  21
ATOM     21  C   LIG    1       -5.335  -3.540   0.091  0.00  0.00    +0.317 C 
ATOM     22  O   LIG    1       -4.373  -4.230  -0.244  0.00  0.00    -0.250 OA
BRANCH  21  23
ATOM     23  O   LIG    1       -6.545  -3.745  -0.557  0.00  0.00    -0.467 OA
ATOM     24  C   LIG    1       -6.741  -4.697  -1.579  0.00  0.00    +0.280 C 
ENDBRANCH  21  23
ENDBRANCH   1  21
BRANCH   2  25
ATOM     25  O   LIG    1       -4.603  -2.635   3.409  0.00  0.00    -0.387 OA
ATOM     26  H   LIG    1       -3.814  -2.708   4.000  0.00  0.00    +0.210 HD
ENDBRANCH   2  25
BRANCH  16  27
ATOM     27  O   LIG    1       -6.330   5.163  -2.445  0.00  0.00    -0.506 OA
ATOM     28  H   LIG    1       -6.475   6.084  -2.854  0.00  0.00    +0.292 HD
ENDBRANCH  16  27
BRANCH   6  29
ATOM     29  O   LIG    1       -3.279   1.494  -0.733  0.00  0.00    -0.506 OA
ATOM     30  H   LIG    1       -3.173   2.339  -1.141  0.00  0.00    +0.292 HD
ENDBRANCH   6  29
BRANCH   2  31
ATOM     31  C   LIG    1       -3.272  -3.925   1.992  0.00  0.00    +0.032 C 
ATOM     32  C   LIG    1       -4.074  -5.141   2.311  0.00  0.00    +0.007 C 
ENDBRANCH   2  31
BRANCH   4  33
ATOM     33  O   LIG    1       -1.932  -0.156   0.398  0.00  0.00    -0.343 OA
BRANCH  33  34
ATOM     34  C   LIG    1       -0.826  -0.563  -0.291  0.00  0.00    +0.253 C 
ATOM     35  O   LIG    1        0.189  -0.646   0.726  0.00  0.00    -0.346 OA
ATOM     36  C   LIG    1        0.278   0.676   1.210  0.00  0.00    +0.149 C 
ATOM     37  C   LIG    1        0.786   0.788   2.604  0.00  0.00    +0.041 C 
ATOM     38  C   LIG    1        1.220   1.355   0.183  0.00  0.00    +0.167 C 
ATOM     39  C   LIG    1        0.343   1.552  -1.028  0.00  0.00    +0.092 C 
ATOM     40  C   LIG    1       -0.353   0.265  -1.423  0.00  0.00    +0.083 C 
BRANCH  39  41
ATOM     41  N   LIG    1        1.045   2.079  -2.179  0.00  0.00    -0.303 NA
ATOM     42  C   LIG    1        1.793   3.280  -1.836  0.00  0.00    +0.105 C 
ATOM     43  C   LIG    1        0.114   2.370  -3.265  0.00  0.00    +0.105 C 
ENDBRANCH  39  41
BRANCH  38  44
ATOM     44  O   LIG    1        2.244   0.445   0.021  0.00  0.00    -0.344 OA
BRANCH  44  45
ATOM     45  C   LIG    1        3.511   0.928   0.319  0.00  0.00    +0.254 C 
ATOM     46  C   LIG    1        4.067   0.321   1.589  0.00  0.00    +0.095 C 
ATOM     47  C   LIG    1        5.548   0.291   1.685  0.00  0.00    +0.151 C 
ATOM     48  C   LIG    1        6.234   0.165   0.343  0.00  0.00    +0.178 C 
ATOM     49  C   LIG    1        5.616   1.096  -0.676  0.00  0.00    +0.150 C 
ATOM     50  C   LIG    1        5.936   2.544  -0.431  0.00  0.00    +0.041 C 
ATOM     51  O   LIG    1        4.288   0.801  -0.785  0.00  0.00    -0.346 OA
BRANCH  47  52
ATOM     52  O   LIG    1        5.985   1.515   2.217  0.00  0.00    -0.389 OA
ATOM     53  H   LIG    1        5.592   1.565   3.144  0.00  0.00    +0.210 HD
ENDBRANCH  47  52
BRANCH  48  54
ATOM     54  O   LIG    1        7.588   0.366   0.370  0.00  0.00    -0.343 OA
BRANCH  54  55
ATOM     55  C   LIG    1        8.321  -0.772  -0.006  0.00  0.00    +0.252 C 
ATOM     56  O   LIG    1        9.164  -1.169   0.994  0.00  0.00    -0.341 OA
ATOM     57  C   LIG    1        9.969  -2.242   0.660  0.00  0.00    +0.184 C 
ATOM     58  C   LIG    1        9.250  -3.485   0.268  0.00  0.00    +0.046 C 
ATOM     59  C   LIG    1       10.879  -1.829  -0.474  0.00  0.00    +0.162 C 
ATOM     60  O   LIG    1       11.734  -2.566  -0.831  0.00  0.00    -0.295 OA
ATOM     61  C   LIG    1       10.554  -0.464  -1.021  0.00  0.00    +0.082 C 
ATOM     62  C   LIG    1        9.064  -0.460  -1.272  0.00  0.00    +0.069 C 
ENDBRANCH  54  55
ENDBRANCH  48  54
ENDBRANCH  44  45
ENDBRANCH  38  44
ENDBRANCH  33  34
ENDBRANCH   4  33
TORSDOF 14
