REMARK  Name = molecules/UTVSLCROIUPVOX-YUVXSKOASA-N.pdb
REMARK                            x       y       z     vdW  Elec       q    Type
REMARK                         _______ _______ _______ _____ _____    ______ ____
ROOT
ATOM      1  C   LIG    1       -1.103  -0.188   0.351  0.00  0.00    +0.095 C 
ATOM      2  C   LIG    1       -0.292  -0.155   1.663  0.00  0.00    +0.047 C 
ENDROOT
BRANCH   1   3
ATOM      3  C   LIG    1       -2.199   0.771   0.635  0.00  0.00    +0.033 C 
ATOM      4  C   LIG    1       -1.782   2.144   1.100  0.00  0.00    +0.015 C 
ATOM      5  C   LIG    1       -2.868   3.073   0.578  0.00  0.00    +0.012 C 
ATOM      6  C   LIG    1       -4.037   2.076   0.461  0.00  0.00    +0.015 C 
ATOM      7  C   LIG    1       -2.604   3.269  -0.848  0.00  0.00    -0.027 C 
ATOM      8  C   LIG    1       -2.699   2.068  -1.403  0.00  0.00    -0.027 C 
ATOM      9  C   LIG    1       -3.212   1.071  -0.388  0.00  0.00    +0.018 C 
ENDBRANCH   1   3
BRANCH   1  10
ATOM     10  C   LIG    1       -1.747  -1.542   0.221  0.00  0.00    -0.016 A 
ATOM     11  C   LIG    1       -1.749  -2.378   1.309  0.00  0.00    +0.006 A 
ATOM     12  C   LIG    1       -2.331  -3.654   1.238  0.00  0.00    +0.000 A 
ATOM     13  C   LIG    1       -2.906  -4.061   0.054  0.00  0.00    +0.000 A 
ATOM     14  C   LIG    1       -2.888  -3.180  -1.037  0.00  0.00    +0.000 A 
ATOM     15  C   LIG    1       -2.311  -1.933  -0.944  0.00  0.00    +0.006 A 
ENDBRANCH   1  10
BRANCH   1  16
ATOM     16  O   LIG    1       -0.310   0.129  -0.673  0.00  0.00    -0.371 OA
BRANCH  16  17
ATOM     17  C   LIG    1        0.665  -0.574  -1.185  0.00  0.00    +0.143 C 
BRANCH  17  18
ATOM     18  C   LIG    1        1.920  -0.974  -0.568  0.00  0.00    -0.047 C 
BRANCH  18  19
ATOM     19  N   LIG    1        2.863   0.002  -0.120  0.00  0.00    +0.379 N 
ATOM     20  C   LIG    1        4.030   0.038  -1.049  0.00  0.00    -0.092 C 
BRANCH  19  21
ATOM     21  C   LIG    1        3.385  -0.449   1.183  0.00  0.00    -0.079 C 
ATOM     22  C   LIG    1        3.962  -1.809   1.174  0.00  0.00    -0.016 C 
ENDBRANCH  19  21
BRANCH  19  23
ATOM     23  C   LIG    1        2.397   1.337   0.078  0.00  0.00    -0.079 C 
ATOM     24  C   LIG    1        3.364   2.384  -0.501  0.00  0.00    -0.016 C 
ENDBRANCH  19  23
ENDBRANCH  18  19
ENDBRANCH  17  18
ENDBRANCH  16  17
ENDBRANCH   1  16
TORSDOF 8
