REMARK  Name = molecules/UUCMDZWCRNZCOY-UHFFFAOYSA-N.pdb
REMARK                            x       y       z     vdW  Elec       q    Type
REMARK                         _______ _______ _______ _____ _____    ______ ____
ROOT
ATOM      1  C   LIG    1        1.333   0.104  -0.144  0.00  0.00    +0.291 A 
ATOM      2  N   LIG    1        0.626   1.221   0.050  0.00  0.00    -0.195 NA
ATOM      3  C   LIG    1       -0.686   0.842   0.125  0.00  0.00    +0.119 A 
ATOM      4  C   LIG    1       -0.733  -0.515  -0.027  0.00  0.00    +0.165 A 
ATOM      5  O   LIG    1        0.532  -0.906  -0.189  0.00  0.00    -0.424 OA
ENDROOT
BRANCH   3   6
ATOM      6  C   LIG    1       -1.813   1.735   0.319  0.00  0.00    +0.004 A 
ATOM      7  C   LIG    1       -2.101   2.186   1.576  0.00  0.00    +0.010 A 
ATOM      8  C   LIG    1       -3.178   3.056   1.803  0.00  0.00    +0.001 A 
ATOM      9  C   LIG    1       -3.952   3.458   0.741  0.00  0.00    +0.000 A 
ATOM     10  C   LIG    1       -3.648   2.997  -0.507  0.00  0.00    +0.001 A 
ATOM     11  C   LIG    1       -2.584   2.135  -0.733  0.00  0.00    +0.010 A 
ENDBRANCH   3   6
BRANCH   4  12
ATOM     12  C   LIG    1       -1.880  -1.407  -0.020  0.00  0.00    +0.020 A 
ATOM     13  C   LIG    1       -1.931  -2.422   0.944  0.00  0.00    +0.011 A 
ATOM     14  C   LIG    1       -2.967  -3.308   1.018  0.00  0.00    +0.001 A 
ATOM     15  C   LIG    1       -4.008  -3.224   0.131  0.00  0.00    +0.000 A 
ATOM     16  C   LIG    1       -3.989  -2.239  -0.825  0.00  0.00    +0.001 A 
ATOM     17  C   LIG    1       -2.938  -1.356  -0.886  0.00  0.00    +0.011 A 
ENDBRANCH   4  12
BRANCH   1  18
ATOM     18  N   LIG    1        2.738  -0.017  -0.281  0.00  0.00    -0.281 N 
BRANCH  18  19
ATOM     19  C   LIG    1        3.516  -0.452   0.851  0.00  0.00    +0.137 C 
BRANCH  19  20
ATOM     20  C   LIG    1        4.385   0.632   1.425  0.00  0.00    +0.175 C 
BRANCH  20  21
ATOM     21  O   LIG    1        5.080   0.100   2.496  0.00  0.00    -0.393 OA
ATOM     22  H   LIG    1        4.550  -0.642   2.863  0.00  0.00    +0.209 HD
ENDBRANCH  20  21
ENDBRANCH  19  20
ENDBRANCH  18  19
BRANCH  18  23
ATOM     23  C   LIG    1        3.387   0.289  -1.515  0.00  0.00    +0.137 C 
BRANCH  23  24
ATOM     24  C   LIG    1        3.988  -0.954  -2.195  0.00  0.00    +0.175 C 
BRANCH  24  25
ATOM     25  O   LIG    1        4.584  -0.481  -3.377  0.00  0.00    -0.393 OA
ATOM     26  H   LIG    1        4.277  -0.985  -4.174  0.00  0.00    +0.209 HD
ENDBRANCH  24  25
ENDBRANCH  23  24
ENDBRANCH  18  23
ENDBRANCH   1  18
TORSDOF 9
