REMARK  Name = molecules/UULSDCUWMKTMND-UHFFFAOYSA-N.pdb
REMARK                            x       y       z     vdW  Elec       q    Type
REMARK                         _______ _______ _______ _____ _____    ______ ____
ROOT
ATOM      1 AS   LIG    1       -3.854  -0.579   0.814  0.00  0.00    +0.000 As
ATOM      2  O   LIG    1       -3.977  -1.311   2.274  0.00  0.00    +0.000 OA
ENDROOT
BRANCH   1   3
ATOM      3  O   LIG    1       -4.488   1.153   1.025  0.00  0.00    +0.000 OA
ATOM      4  H   LIG    1       -4.083   1.754   0.340  0.00  0.00    +0.000 HD
ENDBRANCH   1   3
BRANCH   1   5
ATOM      5  O   LIG    1       -4.928  -1.446  -0.392  0.00  0.00    +0.000 OA
ATOM      6  H   LIG    1       -5.253  -0.792  -1.074  0.00  0.00    +0.000 HD
ENDBRANCH   1   5
TORSDOF 2
REMARK  Name = molecules/UULSDCUWMKTMND-UHFFFAOYSA-N.pdb
REMARK                            x       y       z     vdW  Elec       q    Type
REMARK                         _______ _______ _______ _____ _____    ______ ____
ROOT
ATOM      1  N   LIG    1        2.041  -0.402  -1.094  0.00  0.00    +0.000 N 
ATOM      2  H   LIG    1        2.212  -0.584  -2.117  0.00  0.00    +0.000 HD
ENDROOT
BRANCH   1   6
ATOM      3  C   LIG    1       -2.012  -0.524   0.198  0.00  0.00    +0.000 A 
ATOM      4  C   LIG    1       -0.991  -0.352   1.107  0.00  0.00    +0.000 A 
ATOM      5  C   LIG    1        0.347  -0.309   0.692  0.00  0.00    +0.000 A 
ATOM      6  C   LIG    1        0.688  -0.436  -0.638  0.00  0.00    +0.000 A 
ATOM      7  C   LIG    1       -0.350  -0.607  -1.530  0.00  0.00    +0.000 A 
ATOM      8  C   LIG    1       -1.671  -0.651  -1.131  0.00  0.00    +0.000 A 
ENDBRANCH   1   6
BRANCH   1   9
ATOM      9  C   LIG    1        3.149  -0.135  -0.223  0.00  0.00    +0.000 C 
BRANCH   9  10
ATOM     10  C   LIG    1        3.111   1.220   0.383  0.00  0.00    +0.000 C 
ATOM     11  N   LIG    1        4.150   1.591   1.265  0.00  0.00    +0.000 N 
ATOM     12  H   LIG    1        3.918   1.884   2.234  0.00  0.00    +0.000 HD
ATOM     13  H   LIG    1        5.146   1.579   0.971  0.00  0.00    +0.000 HD
ATOM     14  O   LIG    1        2.157   1.977   0.084  0.00  0.00    +0.000 OA
ENDBRANCH   9  10
ENDBRANCH   1   9
TORSDOF 3
