REMARK  Name = molecules/UUMLTINZBQPNGF-UWVGGRQHSA-N.pdb
REMARK                            x       y       z     vdW  Elec       q    Type
REMARK                         _______ _______ _______ _____ _____    ______ ____
ROOT
ATOM      1  C   LIG    1       -1.097  -1.046  -0.580  0.00  0.00    +0.064 A 
ATOM      2  C   LIG    1        0.212  -1.103  -0.159  0.00  0.00    +0.049 A 
ATOM      3  C   LIG    1        0.909   0.063   0.210  0.00  0.00    +0.065 A 
ATOM      4  C   LIG    1        0.211   1.238   0.126  0.00  0.00    +0.040 A 
ATOM      5  I   LIG    1        1.125   3.010   0.855  0.00  0.00    -0.042 I 
ATOM      6  C   LIG    1       -1.097   1.347  -0.294  0.00  0.00    +0.065 A 
ATOM      7  I   LIG    1        1.304  -2.927  -0.092  0.00  0.00    -0.041 I 
ATOM      8  C   LIG    1       -1.758   0.161  -0.654  0.00  0.00    +0.049 A 
ATOM      9  I   LIG    1       -3.748   0.242  -1.366  0.00  0.00    -0.041 I 
ENDROOT
BRANCH   3  10
ATOM     10  C   LIG    1        2.259  -0.102   0.666  0.00  0.00    +0.246 C 
ATOM     11  O   LIG    1        2.540  -1.239   1.228  0.00  0.00    -0.270 OA
ATOM     12  N   LIG    1        3.341   0.780   0.596  0.00  0.00    -0.309 N 
ATOM     13  H   LIG    1        3.165   1.697   0.100  0.00  0.00    +0.149 HD
BRANCH  12  14
ATOM     14  C   LIG    1        4.669   0.585   1.064  0.00  0.00    +0.138 C 
BRANCH  14  15
ATOM     15  C   LIG    1        5.455  -0.525   0.436  0.00  0.00    +0.157 C 
BRANCH  15  16
ATOM     16  O   LIG    1        4.913  -1.784   0.595  0.00  0.00    -0.388 OA
ATOM     17  H   LIG    1        4.675  -2.210  -0.268  0.00  0.00    +0.210 HD
ENDBRANCH  15  16
BRANCH  15  18
ATOM     18  C   LIG    1        6.826  -0.581   1.132  0.00  0.00    +0.188 C 
BRANCH  18  19
ATOM     19  O   LIG    1        7.610  -1.554   0.524  0.00  0.00    -0.392 OA
ATOM     20  H   LIG    1        8.445  -1.136   0.197  0.00  0.00    +0.210 HD
ENDBRANCH  18  19
ENDBRANCH  15  18
ENDBRANCH  14  15
ENDBRANCH  12  14
ENDBRANCH   3  10
BRANCH   1  21
ATOM     21  N   LIG    1       -1.781  -2.263  -0.932  0.00  0.00    -0.267 N 
ATOM     22  C   LIG    1       -2.182  -2.403  -2.286  0.00  0.00    +0.217 C 
ATOM     23  C   LIG    1       -2.912  -3.600  -2.756  0.00  0.00    +0.109 C 
ATOM     24  O   LIG    1       -1.926  -1.511  -3.124  0.00  0.00    -0.276 OA
BRANCH  21  25
ATOM     25  C   LIG    1       -2.014  -3.242   0.080  0.00  0.00    +0.147 C 
BRANCH  25  26
ATOM     26  C   LIG    1       -3.289  -3.127   0.852  0.00  0.00    +0.157 C 
BRANCH  26  27
ATOM     27  O   LIG    1       -4.430  -3.140   0.092  0.00  0.00    -0.388 OA
ATOM     28  H   LIG    1       -5.135  -3.731   0.450  0.00  0.00    +0.210 HD
ENDBRANCH  26  27
BRANCH  26  29
ATOM     29  C   LIG    1       -3.255  -2.099   1.939  0.00  0.00    +0.188 C 
BRANCH  29  30
ATOM     30  O   LIG    1       -4.326  -2.322   2.838  0.00  0.00    -0.392 OA
ATOM     31  H   LIG    1       -4.447  -3.296   2.968  0.00  0.00    +0.210 HD
ENDBRANCH  29  30
ENDBRANCH  26  29
ENDBRANCH  25  26
ENDBRANCH  21  25
ENDBRANCH   1  21
BRANCH   6  32
ATOM     32  C   LIG    1       -1.893   2.542  -0.387  0.00  0.00    +0.246 C 
ATOM     33  O   LIG    1       -3.177   2.391  -0.255  0.00  0.00    -0.270 OA
ATOM     34  N   LIG    1       -1.495   3.868  -0.607  0.00  0.00    -0.309 N 
ATOM     35  H   LIG    1       -0.510   4.109  -0.770  0.00  0.00    +0.149 HD
BRANCH  34  36
ATOM     36  C   LIG    1       -2.440   4.976  -0.661  0.00  0.00    +0.132 C 
BRANCH  36  37
ATOM     37  C   LIG    1       -1.724   6.283  -0.914  0.00  0.00    +0.174 C 
BRANCH  37  38
ATOM     38  O   LIG    1       -0.796   6.574   0.086  0.00  0.00    -0.393 OA
ATOM     39  H   LIG    1       -0.449   7.488  -0.123  0.00  0.00    +0.209 HD
ENDBRANCH  37  38
ENDBRANCH  36  37
ENDBRANCH  34  36
ENDBRANCH   6  32
TORSDOF 16
