REMARK  Name = molecules/UUQMNUMQCIQDMZ-UHFFFAOYSA-N.pdb
REMARK                            x       y       z     vdW  Elec       q    Type
REMARK                         _______ _______ _______ _____ _____    ______ ____
ROOT
ATOM      1  C   LIG    1        0.836  -0.263   0.754  0.00  0.00    +0.042 A 
ATOM      2  N   LIG    1        1.187   1.042   0.778  0.00  0.00    -0.260 NA
ATOM      3  C   LIG    1        2.269   1.505   0.129  0.00  0.00    +0.111 A 
ATOM      4  C   LIG    1        3.097   0.684  -0.607  0.00  0.00    +0.020 A 
ATOM      5  C   LIG    1        2.767  -0.654  -0.652  0.00  0.00    +0.003 A 
ATOM      6  C   LIG    1        1.655  -1.098   0.022  0.00  0.00    +0.023 A 
ENDROOT
BRANCH   1   7
ATOM      7  C   LIG    1       -0.360  -0.747   1.478  0.00  0.00    +0.070 C 
BRANCH   7   8
ATOM      8  C   LIG    1       -1.602  -0.710   0.638  0.00  0.00    +0.087 C 
BRANCH   8  10
ATOM      9  C   LIG    1       -3.083   0.676  -0.604  0.00  0.00    +0.101 C 
ATOM     10  N   LIG    1       -1.885   0.641   0.205  0.00  0.00    -0.319 NA
ATOM     11  H   LIG    1       -1.091   1.128  -0.220  0.00  0.00    +0.122 HD
ENDBRANCH   8  10
ENDBRANCH   7   8
ENDBRANCH   1   7
TORSDOF 3
