REMARK  Name = molecules/UUTKICFRNVKFRG-WDSKDSINSA-N.pdb
REMARK                            x       y       z     vdW  Elec       q    Type
REMARK                         _______ _______ _______ _____ _____    ______ ____
ROOT
ATOM      1  C   LIG    1       -0.406  -0.730   0.710  0.00  0.00    +0.237 C 
ATOM      2  O   LIG    1       -0.860  -1.296   1.774  0.00  0.00    -0.274 OA
ATOM      3  N   LIG    1        0.942  -0.344   0.736  0.00  0.00    -0.276 N 
ATOM      4  C   LIG    1        1.815  -0.481   1.872  0.00  0.00    +0.178 C 
ATOM      5  SG  LIG    1        2.577   1.199   1.855  0.00  0.00    -0.139 S 
ATOM      6  CB  LIG    1        2.117   1.642   0.146  0.00  0.00    +0.104 C 
ATOM      7  CA  LIG    1        1.659   0.259  -0.345  0.00  0.00    +0.195 C 
ENDROOT
BRANCH   1   8
ATOM      8  CA  LIG    1       -1.334  -0.538  -0.438  0.00  0.00    +0.159 C 
ATOM      9  N   LIG    1       -2.619  -1.183  -0.129  0.00  0.00    -0.304 N 
ATOM     10  H   LIG    1       -2.750  -1.975   0.526  0.00  0.00    +0.149 HD
ATOM     11  C   LIG    1       -3.576  -0.488  -0.909  0.00  0.00    +0.214 C 
ATOM     12  C   LIG    1       -3.047   0.884  -1.227  0.00  0.00    +0.098 C 
ATOM     13  O   LIG    1       -4.691  -0.973  -1.265  0.00  0.00    -0.276 OA
ATOM     14  C   LIG    1       -1.754   0.916  -0.455  0.00  0.00    +0.041 C 
ENDBRANCH   1   8
BRANCH   7  15
ATOM     15  C   LIG    1        2.824  -0.540  -0.823  0.00  0.00    +0.326 C 
ATOM     16  O   LIG    1        3.515  -0.023  -1.737  0.00  0.00    -0.249 OA
BRANCH  15  17
ATOM     17  OXT LIG    1        3.195  -1.770  -0.356  0.00  0.00    -0.479 OA
ATOM     18  HXT LIG    1        4.084  -1.991   0.069  0.00  0.00    +0.295 HD
ENDBRANCH  15  17
ENDBRANCH   7  15
TORSDOF 3
