REMARK  Name = molecules/UVAZQQHAVMNMHE-XJKSGUPXSA-N.pdb
REMARK                            x       y       z     vdW  Elec       q    Type
REMARK                         _______ _______ _______ _____ _____    ______ ____
ROOT
ATOM      1  C   LIG    1       -0.260   0.144   0.144  0.00  0.00    +0.143 C 
ATOM      2  C   LIG    1       -0.726  -0.899   1.140  0.00  0.00    +0.068 C 
ATOM      3  C   LIG    1       -1.264  -2.069   0.298  0.00  0.00    +0.088 C 
ATOM      4  N   LIG    1       -2.369  -1.652  -0.508  0.00  0.00    -0.305 NA
ATOM      5  C   LIG    1       -2.687  -0.260  -0.306  0.00  0.00    +0.091 C 
ATOM      6  C   LIG    1       -3.511  -2.510  -0.443  0.00  0.00    +0.104 C 
ATOM      7  C   LIG    1       -1.493   0.583  -0.667  0.00  0.00    +0.048 C 
ATOM      8  C   LIG    1       -1.234   0.673  -2.111  0.00  0.00    +0.013 C 
ENDROOT
BRANCH   1   9
ATOM      9  C   LIG    1        0.295   1.333   0.797  0.00  0.00    -0.004 A 
ATOM     10  C   LIG    1       -0.004   1.645   2.112  0.00  0.00    +0.007 A 
ATOM     11  C   LIG    1        0.465   2.834   2.682  0.00  0.00    +0.000 A 
ATOM     12  C   LIG    1        1.228   3.709   1.944  0.00  0.00    +0.000 A 
ATOM     13  C   LIG    1        1.529   3.403   0.635  0.00  0.00    +0.000 A 
ATOM     14  C   LIG    1        1.057   2.229   0.096  0.00  0.00    +0.007 A 
ENDBRANCH   1   9
BRANCH   1  15
ATOM     15  O   LIG    1        0.661  -0.472  -0.690  0.00  0.00    -0.453 OA
BRANCH  15  16
ATOM     16  C   LIG    1        1.875  -0.949  -0.305  0.00  0.00    +0.308 C 
ATOM     17  O   LIG    1        2.316  -0.842   0.875  0.00  0.00    -0.251 OA
BRANCH  16  18
ATOM     18  C   LIG    1        2.821  -1.655  -1.256  0.00  0.00    +0.117 C 
ATOM     19  C   LIG    1        4.220  -1.195  -0.975  0.00  0.00    +0.015 C 
ENDBRANCH  16  18
ENDBRANCH  15  16
ENDBRANCH   1  15
TORSDOF 4
