REMARK  Name = molecules/UVCJGUGAGLDPAA-UHFFFAOYSA-N.pdb
REMARK                            x       y       z     vdW  Elec       q    Type
REMARK                         _______ _______ _______ _____ _____    ______ ____
ROOT
ATOM      1  C   LIG    1        3.431  -0.153   0.009  0.00  0.00    +0.119 A 
ATOM      2  C   LIG    1        2.364   0.476   0.602  0.00  0.00    +0.059 A 
ATOM      3  C   LIG    1        1.077   0.134   0.191  0.00  0.00    +0.091 A 
ATOM      4  N   LIG    1       -0.144   0.564   0.572  0.00  0.00    -0.228 NA
ATOM      5  C   LIG    1       -1.108  -0.079  -0.130  0.00  0.00    +0.139 A 
ATOM      6  N   LIG    1       -0.449  -0.913  -0.951  0.00  0.00    -0.338 N 
ATOM      7  H   LIG    1       -0.909  -1.560  -1.634  0.00  0.00    +0.167 HD
ATOM      8  C   LIG    1        0.879  -0.817  -0.790  0.00  0.00    +0.067 A 
ATOM      9  C   LIG    1        1.973  -1.454  -1.388  0.00  0.00    +0.030 A 
ATOM     10  C   LIG    1        3.222  -1.091  -0.958  0.00  0.00    +0.031 A 
ENDROOT
BRANCH   5  11
ATOM     11  C   LIG    1       -2.548   0.122   0.007  0.00  0.00    +0.017 A 
ATOM     12  C   LIG    1       -3.064   1.028   0.907  0.00  0.00    +0.011 A 
ATOM     13  C   LIG    1       -4.437   1.223   1.041  0.00  0.00    +0.001 A 
ATOM     14  C   LIG    1       -5.303   0.489   0.250  0.00  0.00    +0.000 A 
ATOM     15  C   LIG    1       -4.809  -0.423  -0.657  0.00  0.00    +0.001 A 
ATOM     16  C   LIG    1       -3.425  -0.595  -0.767  0.00  0.00    +0.011 A 
ENDBRANCH   5  11
BRANCH   1  17
ATOM     17  S   LIG    1        5.056   0.252   0.501  0.00  0.00    +0.110 S 
ATOM     18  O   LIG    1        5.122   0.551   1.971  0.00  0.00    -0.142 OA
ATOM     19  O   LIG    1        5.962  -0.946   0.267  0.00  0.00    -0.142 OA
BRANCH  17  20
ATOM     20  O   LIG    1        5.666   1.508  -0.423  0.00  0.00    -0.250 OA
ATOM     21  H   LIG    1        5.239   2.353  -0.135  0.00  0.00    +0.245 HD
ENDBRANCH  17  20
ENDBRANCH   1  17
TORSDOF 3
