REMARK  Name = molecules/UVCOILFBWYKHHB-UHFFFAOYSA-N.pdb
REMARK                            x       y       z     vdW  Elec       q    Type
REMARK                         _______ _______ _______ _____ _____    ______ ____
ROOT
ATOM      1 CL   LIG    1       -0.685   3.983   1.781  0.00  0.00    -0.084 Cl
ATOM      2  C   LIG    1       -1.260   2.614   0.850  0.00  0.00    +0.042 A 
ATOM      3  C   LIG    1       -0.470   1.492   0.844  0.00  0.00    +0.032 A 
ATOM      4  C   LIG    1       -0.897   0.393   0.109  0.00  0.00    +0.023 A 
ATOM      5  C   LIG    1        0.060  -0.688   0.163  0.00  0.00    +0.078 C 
ATOM      6  N   LIG    1       -0.309  -1.940   0.220  0.00  0.00    -0.273 NA
ATOM      7  C   LIG    1       -1.628  -2.566   0.236  0.00  0.00    +0.238 C 
ATOM      8  C   LIG    1       -2.474  -2.029  -0.873  0.00  0.00    +0.239 C 
ATOM      9  N   LIG    1       -2.701  -0.667  -1.281  0.00  0.00    -0.283 N 
ATOM     10  H   LIG    1       -3.294  -0.426  -2.062  0.00  0.00    +0.155 HD
ATOM     11  O   LIG    1       -3.069  -2.888  -1.539  0.00  0.00    -0.273 OA
ATOM     12  C   LIG    1       -2.112   0.457  -0.590  0.00  0.00    +0.043 A 
ATOM     13  C   LIG    1       -2.909   1.569  -0.592  0.00  0.00    +0.025 A 
ATOM     14  C   LIG    1       -2.456   2.652   0.144  0.00  0.00    +0.022 A 
ENDROOT
BRANCH   5  15
ATOM     15  C   LIG    1        1.464  -0.390   0.186  0.00  0.00    +0.036 A 
ATOM     16  C   LIG    1        2.392  -1.423   0.444  0.00  0.00    +0.133 A 
ATOM     17  F   LIG    1        1.851  -2.612   0.788  0.00  0.00    -0.205 F 
ATOM     18  C   LIG    1        3.744  -1.263   0.362  0.00  0.00    +0.039 A 
ATOM     19  C   LIG    1        4.281  -0.041   0.009  0.00  0.00    +0.003 A 
ATOM     20  C   LIG    1        3.421   0.996  -0.254  0.00  0.00    +0.001 A 
ATOM     21  C   LIG    1        2.025   0.798  -0.161  0.00  0.00    +0.013 A 
ENDBRANCH   5  15
TORSDOF 1
