REMARK  Name = molecules/UVIQSJCZCSLXRZ-UBUQANBQSA-N.pdb
REMARK                            x       y       z     vdW  Elec       q    Type
REMARK                         _______ _______ _______ _____ _____    ______ ____
ROOT
ATOM      1  C   LIG    1        2.511   1.121  -0.452  0.00  0.00    +0.015 C 
ATOM      2  C   LIG    1        3.368   1.028   0.779  0.00  0.00    +0.046 C 
ATOM      3  C   LIG    1        4.362  -0.101   0.726  0.00  0.00    +0.180 C 
ATOM      4  C   LIG    1        3.898  -1.247  -0.156  0.00  0.00    +0.075 C 
ATOM      5  C   LIG    1        2.436  -1.319  -0.259  0.00  0.00    -0.064 C 
ATOM      6  C   LIG    1        1.748  -2.417   0.020  0.00  0.00    -0.027 C 
ATOM      7  C   LIG    1        0.273  -2.551  -0.065  0.00  0.00    +0.031 C 
ATOM      8  C   LIG    1       -0.393  -1.299  -0.582  0.00  0.00    +0.001 C 
ATOM      9  C   LIG    1        0.369  -0.122   0.025  0.00  0.00    +0.003 C 
ATOM     10  C   LIG    1       -0.336   1.161  -0.154  0.00  0.00    +0.005 C 
ATOM     11  C   LIG    1       -1.795   1.173   0.268  0.00  0.00    +0.012 C 
ATOM     12  C   LIG    1       -2.502   0.061  -0.366  0.00  0.00    -0.003 C 
ATOM     13  C   LIG    1       -3.850  -0.303   0.102  0.00  0.00    -0.036 C 
ATOM     14  C   LIG    1       -4.004  -1.611  -0.199  0.00  0.00    -0.022 C 
ATOM     15  C   LIG    1       -2.751  -2.127  -0.864  0.00  0.00    +0.032 C 
ATOM     16  C   LIG    1       -2.583   0.336  -1.866  0.00  0.00    +0.016 C 
ATOM     17  C   LIG    1       -1.772  -1.242  -0.101  0.00  0.00    +0.007 C 
ATOM     18  C   LIG    1        1.693  -0.110  -0.695  0.00  0.00    -0.008 C 
ATOM     19  C   LIG    1        1.497  -0.239  -2.195  0.00  0.00    +0.016 C 
ENDROOT
BRANCH  13  20
ATOM     20  C   LIG    1       -4.925   0.425   0.753  0.00  0.00    -0.004 A 
ATOM     21  C   LIG    1       -4.868   1.724   1.186  0.00  0.00    +0.118 A 
ATOM     22  N   LIG    1       -5.910   2.351   1.808  0.00  0.00    -0.263 NA
ATOM     23  C   LIG    1       -7.080   1.742   2.048  0.00  0.00    +0.111 A 
ATOM     24  C   LIG    1       -7.191   0.439   1.634  0.00  0.00    +0.020 A 
ATOM     25  C   LIG    1       -6.146  -0.219   1.000  0.00  0.00    +0.011 A 
ENDBRANCH  13  20
BRANCH   3  26
ATOM     26  O   LIG    1        5.628   0.306   0.239  0.00  0.00    -0.461 OA
BRANCH  26  27
ATOM     27  C   LIG    1        6.759   0.174   1.039  0.00  0.00    +0.304 C 
ATOM     28  O   LIG    1        6.585  -0.316   2.186  0.00  0.00    -0.251 OA
ATOM     29  C   LIG    1        8.120   0.592   0.566  0.00  0.00    +0.136 C 
ENDBRANCH  26  27
ENDBRANCH   3  26
TORSDOF 3
