REMARK  Name = molecules/UVOIBTBFPOZKGP-AWEZNQCLSA-N.pdb
REMARK                            x       y       z     vdW  Elec       q    Type
REMARK                         _______ _______ _______ _____ _____    ______ ____
ROOT
ATOM      1  C   LIG    1        2.899   0.454  -0.152  0.00  0.00    +0.019 A 
ATOM      2  C   LIG    1        1.551   0.301   0.166  0.00  0.00    +0.036 A 
ATOM      3  C   LIG    1        0.597   1.273  -0.042  0.00  0.00    +0.049 A 
ATOM      4  N   LIG    1       -0.748   1.044   0.344  0.00  0.00    -0.297 N 
ATOM      5  C   LIG    1       -1.809   2.012   0.198  0.00  0.00    +0.048 A 
ATOM      6  C   LIG    1       -3.078   1.707   0.645  0.00  0.00    +0.024 A 
ATOM      7  C   LIG    1       -4.131   2.614   0.559  0.00  0.00    +0.002 A 
ATOM      8  C   LIG    1       -3.921   3.858   0.016  0.00  0.00    +0.001 A 
ATOM      9  C   LIG    1       -2.667   4.183  -0.434  0.00  0.00    +0.017 A 
ATOM     10  C   LIG    1       -1.652   3.268  -0.337  0.00  0.00    +0.034 A 
ATOM     11  S   LIG    1       -0.030   3.791  -0.961  0.00  0.00    -0.086 S 
ATOM     12  C   LIG    1        1.042   2.443  -0.598  0.00  0.00    +0.034 A 
ATOM     13  C   LIG    1        2.366   2.607  -0.919  0.00  0.00    +0.017 A 
ATOM     14  C   LIG    1        3.311   1.643  -0.711  0.00  0.00    +0.012 A 
ENDROOT
BRANCH   1  15
ATOM     15  C   LIG    1        3.840  -0.636   0.082  0.00  0.00    +0.163 C 
ATOM     16  O   LIG    1        3.469  -1.674   0.637  0.00  0.00    -0.292 OA
BRANCH  15  18
ATOM     17  C   LIG    1        5.986  -1.759  -0.011  0.00  0.00    +0.012 C 
ATOM     18  C   LIG    1        5.244  -0.480  -0.357  0.00  0.00    +0.076 C 
ENDBRANCH  15  18
ENDBRANCH   1  15
BRANCH   4  19
ATOM     19  C   LIG    1       -1.148  -0.248   0.858  0.00  0.00    +0.129 C 
BRANCH  19  20
ATOM     20  C   LIG    1       -1.415  -1.295  -0.165  0.00  0.00    +0.071 C 
ATOM     21  C   LIG    1       -2.437  -1.037  -1.222  0.00  0.00    +0.026 C 
BRANCH  20  22
ATOM     22  N   LIG    1       -1.757  -2.583   0.515  0.00  0.00    -0.304 NA
ATOM     23  C   LIG    1       -3.142  -2.889   0.439  0.00  0.00    +0.104 C 
ATOM     24  C   LIG    1       -0.982  -3.672  -0.019  0.00  0.00    +0.104 C 
ENDBRANCH  20  22
ENDBRANCH  19  20
ENDBRANCH   4  19
TORSDOF 5
