REMARK  Name = molecules/UVSMNLNDYGZFPF-MRVPVSSYSA-N.pdb
REMARK                            x       y       z     vdW  Elec       q    Type
REMARK                         _______ _______ _______ _____ _____    ______ ____
ROOT
ATOM      1  O   LIG    1       -0.630   1.658   1.175  0.00  0.00    -0.270 OA
ATOM      2  C   LIG    1        0.148   0.826   0.620  0.00  0.00    +0.255 C 
ATOM      3  C   LIG    1        1.623   0.889   0.710  0.00  0.00    +0.051 A 
ATOM      4  C   LIG    1        2.491   1.761   1.342  0.00  0.00    +0.014 A 
ATOM      5  C   LIG    1        3.857   1.579   1.258  0.00  0.00    +0.003 A 
ATOM      6  C   LIG    1        4.368   0.520   0.538  0.00  0.00    +0.023 A 
ATOM      7  C   LIG    1        3.477  -0.353  -0.096  0.00  0.00    +0.038 A 
ATOM      8  C   LIG    1        2.109  -0.177  -0.016  0.00  0.00    +0.070 A 
ATOM      9  C   LIG    1        0.972  -0.916  -0.565  0.00  0.00    +0.256 C 
ATOM     10  O   LIG    1        1.050  -1.946  -1.278  0.00  0.00    -0.269 OA
ATOM     11  N   LIG    1       -0.240  -0.287  -0.166  0.00  0.00    -0.222 N 
ENDROOT
BRANCH  11  12
ATOM     12  C   LIG    1       -1.617  -0.675  -0.478  0.00  0.00    +0.171 C 
ATOM     13  C   LIG    1       -2.370  -0.956   0.746  0.00  0.00    +0.240 C 
ATOM     14  O   LIG    1       -1.809  -1.524   1.708  0.00  0.00    -0.273 OA
ATOM     15  N   LIG    1       -3.733  -0.587   0.847  0.00  0.00    -0.255 N 
ATOM     16  H   LIG    1       -4.220  -0.733   1.753  0.00  0.00    +0.158 HD
ATOM     17  C   LIG    1       -4.451  -0.029  -0.246  0.00  0.00    +0.219 C 
ATOM     18  O   LIG    1       -5.628   0.407  -0.170  0.00  0.00    -0.275 OA
ATOM     19  C   LIG    1       -3.714   0.021  -1.546  0.00  0.00    +0.098 C 
ATOM     20  C   LIG    1       -2.299   0.419  -1.284  0.00  0.00    +0.041 C 
ENDBRANCH  11  12
BRANCH   7  21
ATOM     21  N   LIG    1        3.939  -1.456  -0.849  0.00  0.00    -0.357 N 
ATOM     22  H   LIG    1        4.059  -2.387  -0.415  0.00  0.00    +0.142 HD
ATOM     23  H   LIG    1        4.160  -1.331  -1.850  0.00  0.00    +0.142 HD
ENDBRANCH   7  21
TORSDOF 2
