REMARK  Name = molecules/UWFYSQMTEOIJJG-FDTZYFLXSA-N.pdb
REMARK                            x       y       z     vdW  Elec       q    Type
REMARK                         _______ _______ _______ _____ _____    ______ ____
ROOT
ATOM      1  C   LIG    1        2.756   1.062   1.776  0.00  0.00    +0.017 C 
ATOM      2  C   LIG    1        2.801  -0.014   0.681  0.00  0.00    +0.001 C 
ATOM      3  C   LIG    1        3.390  -1.227   1.289  0.00  0.00    +0.011 C 
ATOM      4  C   LIG    1        4.836  -1.195   1.582  0.00  0.00    +0.064 C 
ATOM      5  C   LIG    1        5.576  -0.102   0.943  0.00  0.00    +0.160 C 
ATOM      6  O   LIG    1        6.665   0.374   1.316  0.00  0.00    -0.292 OA
ATOM      7  C   LIG    1        4.959   0.485  -0.260  0.00  0.00    +0.052 C 
ATOM      8  C   LIG    1        4.229  -2.217   0.616  0.00  0.00    +0.016 C 
ATOM      9  C   LIG    1        1.407  -0.297   0.199  0.00  0.00    +0.007 C 
ATOM     10  C   LIG    1        0.464  -0.643   1.295  0.00  0.00    +0.005 C 
ATOM     11  C   LIG    1       -0.967  -0.797   0.899  0.00  0.00    +0.011 C 
ATOM     12  C   LIG    1       -1.405   0.409   0.095  0.00  0.00    +0.018 C 
ATOM     13  C   LIG    1       -1.402   1.663   0.885  0.00  0.00    +0.016 C 
ATOM     14  C   LIG    1       -2.754   0.230  -0.568  0.00  0.00    +0.176 C 
ATOM     15  C   LIG    1       -2.566   0.524  -2.040  0.00  0.00    +0.057 C 
ATOM     16  C   LIG    1       -1.179   1.202  -2.114  0.00  0.00    +0.009 C 
ATOM     17  C   LIG    1       -0.471   0.407  -1.101  0.00  0.00    +0.006 C 
ATOM     18  C   LIG    1        0.866   0.870  -0.639  0.00  0.00    +0.021 C 
ATOM     19  C   LIG    1        1.762   1.264  -1.719  0.00  0.00    -0.003 C 
ATOM     20  C   LIG    1        3.062   1.111  -1.619  0.00  0.00    +0.041 C 
ATOM     21 CL   LIG    1        4.151   1.592  -2.935  0.00  0.00    -0.084 Cl
ATOM     22  C   LIG    1        3.647   0.534  -0.403  0.00  0.00    -0.020 C 
ENDROOT
BRANCH  14  23
ATOM     23  C   LIG    1       -3.723   1.275  -0.074  0.00  0.00    +0.174 C 
ATOM     24  C   LIG    1       -4.926   0.983   0.722  0.00  0.00    +0.090 C 
ATOM     25  O   LIG    1       -3.533   2.474  -0.331  0.00  0.00    -0.293 OA
ENDBRANCH  14  23
BRANCH  14  26
ATOM     26  O   LIG    1       -3.220  -1.047  -0.276  0.00  0.00    -0.450 OA
BRANCH  26  27
ATOM     27  C   LIG    1       -4.400  -1.609  -0.717  0.00  0.00    +0.305 C 
ATOM     28  C   LIG    1       -4.789  -3.005  -0.318  0.00  0.00    +0.136 C 
ATOM     29  O   LIG    1       -5.139  -0.917  -1.462  0.00  0.00    -0.251 OA
ENDBRANCH  26  27
ENDBRANCH  14  26
TORSDOF 3
