REMARK  Name = molecules/UWWDHYUMIORJTA-HSQYWUDLSA-N.pdb
REMARK                            x       y       z     vdW  Elec       q    Type
REMARK                         _______ _______ _______ _____ _____    ______ ____
ROOT
ATOM      1  C   UNK A  1        0.393  -0.966   0.069  0.00  0.00    +0.233 C 
ATOM      2  O   UNK A  1       -0.368  -0.069   0.583  0.00  0.00    -0.274 OA
ATOM      3  N   UNK A  1        1.740  -0.958   0.483  0.00  0.00    -0.282 N 
ATOM      4  C   UNK A  1        2.169   0.059   1.413  0.00  0.00    +0.144 C 
ATOM      5  C   UNK A  1        3.350   0.748   0.789  0.00  0.00    -0.023 A 
ATOM      6  C   UNK A  1        3.568   2.091   0.850  0.00  0.00    +0.054 A 
ATOM      7  C   UNK A  1        4.671   2.671   0.241  0.00  0.00    +0.162 A 
ATOM      8  C   UNK A  1        5.529   1.832  -0.422  0.00  0.00    +0.162 A 
ATOM      9  C   UNK A  1        5.326   0.465  -0.495  0.00  0.00    +0.053 A 
ATOM     10  C   UNK A  1        4.226  -0.091   0.116  0.00  0.00    -0.037 A 
ATOM     11  C   UNK A  1        4.047  -1.536   0.042  0.00  0.00    +0.069 C 
ATOM     12  C   UNK A  1        2.626  -1.948  -0.004  0.00  0.00    +0.189 C 
ENDROOT
BRANCH   7  13
ATOM     13  O   UNK A  1        4.934   4.025   0.275  0.00  0.00    -0.491 OA
ATOM     14  C   UNK A  1        4.113   4.953   0.929  0.00  0.00    +0.277 C 
ENDBRANCH   7  13
BRANCH   8  15
ATOM     15  O   UNK A  1        6.638   2.379  -1.040  0.00  0.00    -0.491 OA
ATOM     16  C   UNK A  1        7.544   1.559  -1.730  0.00  0.00    +0.277 C 
ENDBRANCH   8  15
BRANCH  12  17
ATOM     17  C   UNK A  1        2.412  -3.282   0.643  0.00  0.00    +0.326 C 
ATOM     18  O   UNK A  1        1.595  -3.537   1.527  0.00  0.00    -0.249 OA
BRANCH  17  19
ATOM     19  O   UNK A  1        3.233  -4.306   0.174  0.00  0.00    -0.479 OA
ATOM     20  H   UNK A  1        2.995  -4.845  -0.661  0.00  0.00    +0.295 HD
ENDBRANCH  17  19
ENDBRANCH  12  17
BRANCH   1  21
ATOM     21  C   UNK A  1       -0.227  -1.903  -0.893  0.00  0.00    +0.138 C 
ATOM     22  C   UNK A  1       -0.087  -1.290  -2.280  0.00  0.00    +0.034 C 
BRANCH  21  23
ATOM     23  N   UNK A  1       -1.503  -2.284  -0.515  0.00  0.00    -0.294 NA
ATOM     24  H   UNK A  1       -1.768  -3.275  -0.732  0.00  0.00    +0.123 HD
BRANCH  23  25
ATOM     25  C   UNK A  0       -2.603  -1.435  -0.345  0.00  0.00    +0.164 C 
BRANCH  25  26
ATOM     26  C   UNK A  0       -3.757  -2.379   0.035  0.00  0.00    +0.324 C 
ATOM     27  O   UNK A  0       -3.531  -3.635   0.110  0.00  0.00    -0.249 OA
BRANCH  26  28
ATOM     28  O   UNK A  0       -5.027  -1.984   0.303  0.00  0.00    -0.464 OA
BRANCH  28  29
ATOM     29  C   UNK A  0       -6.077  -2.866   0.649  0.00  0.00    +0.229 C 
ATOM     30  C   UNK A  0       -7.313  -1.982   0.866  0.00  0.00    +0.048 C 
ENDBRANCH  28  29
ENDBRANCH  26  28
ENDBRANCH  25  26
BRANCH  25  31
ATOM     31  C   UNK A  0       -3.085  -0.681  -1.514  0.00  0.00    +0.035 C 
BRANCH  31  32
ATOM     32  C   UNK A  0       -4.223   0.246  -1.222  0.00  0.00    +0.037 C 
BRANCH  32  33
ATOM     33  C   UNK A  0       -3.875   1.312  -0.270  0.00  0.00    -0.047 A 
ATOM     34  C   UNK A  0       -4.052   1.161   1.067  0.00  0.00    +0.003 A 
ATOM     35  C   UNK A  0       -3.722   2.183   1.975  0.00  0.00    +0.000 A 
ATOM     36  C   UNK A  0       -3.208   3.370   1.533  0.00  0.00    +0.000 A 
ATOM     37  C   UNK A  0       -3.026   3.529   0.179  0.00  0.00    +0.000 A 
ATOM     38  C   UNK A  0       -3.350   2.529  -0.707  0.00  0.00    +0.003 A 
ENDBRANCH  32  33
ENDBRANCH  31  32
ENDBRANCH  25  31
ENDBRANCH  23  25
ENDBRANCH  21  23
ENDBRANCH   1  21
TORSDOF 13
