REMARK  Name = molecules/UXIGWFXRQKWHHA-UHFFFAOYSA-N.pdb
REMARK                            x       y       z     vdW  Elec       q    Type
REMARK                         _______ _______ _______ _____ _____    ______ ____
ROOT
ATOM      1  C   LIG    1        1.234  -0.137   0.430  0.00  0.00    +0.065 A 
ATOM      2  C   LIG    1       -0.045  -0.690   0.617  0.00  0.00    +0.049 A 
ATOM      3  I   LIG    1       -0.181  -2.807   0.761  0.00  0.00    -0.041 I 
ATOM      4  C   LIG    1       -1.190   0.068   0.705  0.00  0.00    +0.061 A 
ATOM      5  C   LIG    1       -1.117   1.438   0.607  0.00  0.00    +0.051 A 
ATOM      6  I   LIG    1       -2.831   2.658   0.730  0.00  0.00    -0.041 I 
ATOM      7  C   LIG    1        0.112   2.022   0.424  0.00  0.00    +0.088 A 
ATOM      8  C   LIG    1        1.261   1.223   0.340  0.00  0.00    +0.042 A 
ATOM      9  I   LIG    1        3.106   2.222   0.139  0.00  0.00    -0.042 I 
ENDROOT
BRANCH   1  10
ATOM     10  C   LIG    1        2.357  -1.042   0.291  0.00  0.00    +0.246 C 
ATOM     11  O   LIG    1        2.174  -2.199   0.858  0.00  0.00    -0.270 OA
ATOM     12  N   LIG    1        3.570  -0.845  -0.354  0.00  0.00    -0.314 N 
ATOM     13  C   LIG    1        4.559  -1.936  -0.344  0.00  0.00    +0.128 C 
ATOM     14  H   LIG    1        3.866  -0.016  -0.872  0.00  0.00    +0.149 HD
ENDBRANCH   1  10
BRANCH   4  15
ATOM     15  N   LIG    1       -2.457  -0.550   0.895  0.00  0.00    -0.284 N 
ATOM     16  H   LIG    1       -2.781  -0.702   1.874  0.00  0.00    +0.155 HD
ATOM     17  C   LIG    1       -3.270  -0.954  -0.171  0.00  0.00    +0.214 C 
ATOM     18  C   LIG    1       -4.579  -1.591   0.062  0.00  0.00    +0.109 C 
ATOM     19  O   LIG    1       -2.930  -0.796  -1.385  0.00  0.00    -0.276 OA
ENDBRANCH   4  15
BRANCH   7  20
ATOM     20  C   LIG    1        0.221   3.473   0.317  0.00  0.00    +0.339 C 
ATOM     21  O   LIG    1        1.364   4.009   0.147  0.00  0.00    -0.245 OA
BRANCH  20  22
ATOM     22  O   LIG    1       -0.842   4.325   0.387  0.00  0.00    -0.477 OA
ATOM     23  H   LIG    1       -1.311   4.763  -0.392  0.00  0.00    +0.295 HD
ENDBRANCH  20  22
ENDBRANCH   7  20
TORSDOF 4
