REMARK  Name = molecules/UXQDWARBDDDTKG-FXDBZKHDSA-N.pdb
REMARK                            x       y       z     vdW  Elec       q    Type
REMARK                         _______ _______ _______ _____ _____    ______ ____
ROOT
ATOM      1  N   LIG    1       -0.378  -0.263  -0.301  0.00  0.00    -0.308 N 
ATOM      2  C   LIG    1        0.584   0.670   0.106  0.00  0.00    +0.239 C 
ATOM      3  O   LIG    1        0.254   1.752   0.638  0.00  0.00    -0.273 OA
ATOM      4  H   LIG    1       -0.040  -1.149  -0.740  0.00  0.00    +0.149 HD
ENDROOT
BRANCH   1  14
ATOM      5  C   LIG    1       -2.171   0.100   1.302  0.00  0.00    +0.029 C 
ATOM      6  C   LIG    1       -3.644   0.386   1.422  0.00  0.00    -0.008 C 
ATOM      7  C   LIG    1       -4.449  -0.803   0.930  0.00  0.00    +0.007 C 
ATOM      8  C   LIG    1       -4.024  -1.044  -0.500  0.00  0.00    -0.008 C 
ATOM      9  C   LIG    1       -2.557  -1.308  -0.629  0.00  0.00    +0.029 C 
ATOM     10  C   LIG    1       -4.377   0.138  -1.383  0.00  0.00    +0.007 C 
ATOM     11  C   LIG    1       -3.705   1.355  -0.828  0.00  0.00    -0.008 C 
ATOM     12  C   LIG    1       -2.207   1.153  -0.907  0.00  0.00    +0.029 C 
ATOM     13  C   LIG    1       -4.075   1.578   0.609  0.00  0.00    +0.007 C 
ATOM     14  C   LIG    1       -1.797  -0.078  -0.155  0.00  0.00    +0.035 C 
ENDBRANCH   1  14
BRANCH   2  15
ATOM     15  C   LIG    1        2.073   0.458  -0.058  0.00  0.00    +0.255 C 
BRANCH  15  16
ATOM     16  O   LIG    1        2.379  -0.712  -0.584  0.00  0.00    -0.369 OA
BRANCH  16  17
ATOM     17  C   LIG    1        3.600  -1.096  -0.895  0.00  0.00    +0.175 C 
BRANCH  17  18
ATOM     18  C   LIG    1        4.712  -1.352   0.006  0.00  0.00    +0.112 C 
BRANCH  18  19
ATOM     19  N   LIG    1        5.321  -0.493   0.880  0.00  0.00    -0.306 NA
ATOM     20  C   LIG    1        4.782  -0.044   2.087  0.00  0.00    +0.104 C 
ATOM     21  C   LIG    1        6.223   0.487   0.301  0.00  0.00    +0.104 C 
ENDBRANCH  18  19
ENDBRANCH  17  18
ENDBRANCH  16  17
ENDBRANCH  15  16
ENDBRANCH   2  15
TORSDOF 6
