REMARK  Name = molecules/UXZFQZANDVDGMM-UHFFFAOYSA-N.pdb
REMARK                            x       y       z     vdW  Elec       q    Type
REMARK                         _______ _______ _______ _____ _____    ______ ____
ROOT
ATOM      1  C   LIG    1       -1.352  -0.995  -0.047  0.00  0.00    +0.156 A 
ATOM      2  C   LIG    1       -2.358  -0.098   0.246  0.00  0.00    +0.058 A 
ATOM      3  C   LIG    1       -2.007   1.205   0.467  0.00  0.00    +0.033 A 
ATOM      4  C   LIG    1       -0.687   1.593   0.396  0.00  0.00    +0.024 A 
ATOM      5  I   LIG    1       -0.103   3.589   0.730  0.00  0.00    -0.043 I 
ATOM      6  C   LIG    1        0.307   0.677   0.101  0.00  0.00    +0.017 A 
ATOM      7  C   LIG    1        1.636   1.007   0.018  0.00  0.00    +0.012 A 
ATOM      8  C   LIG    1        2.629   0.095  -0.277  0.00  0.00    +0.020 A 
ATOM      9  C   LIG    1        2.241  -1.216  -0.495  0.00  0.00    +0.111 A 
ATOM     10  N   LIG    1        0.940  -1.568  -0.420  0.00  0.00    -0.251 NA
ATOM     11  I   LIG    1       -4.380  -0.740   0.344  0.00  0.00    -0.040 I 
ATOM     12  C   LIG    1       -0.020  -0.655  -0.129  0.00  0.00    +0.114 A 
ENDROOT
BRANCH   1  13
ATOM     13  O   LIG    1       -1.712  -2.319  -0.272  0.00  0.00    -0.504 OA
ATOM     14  H   LIG    1       -1.029  -3.028  -0.490  0.00  0.00    +0.292 HD
ENDBRANCH   1  13
TORSDOF 1
