REMARK  Name = molecules/UYIFTLBWAOGQBI-BZDYCCQFSA-N.pdb
REMARK                            x       y       z     vdW  Elec       q    Type
REMARK                         _______ _______ _______ _____ _____    ______ ____
ROOT
ATOM      1  C   LIG    1       -3.531   1.554   0.186  0.00  0.00    +0.014 C 
ATOM      2  C   LIG    1       -4.013   0.203   0.683  0.00  0.00    -0.003 C 
ATOM      3  C   LIG    1       -3.374  -0.136   1.987  0.00  0.00    +0.010 C 
ATOM      4  C   LIG    1       -1.910  -0.364   1.904  0.00  0.00    +0.009 C 
ATOM      5  C   LIG    1       -1.441  -1.096   0.692  0.00  0.00    +0.023 C 
ATOM      6  C   LIG    1        0.007  -0.910   0.458  0.00  0.00    -0.041 A 
ATOM      7  C   LIG    1        0.808  -0.811   1.575  0.00  0.00    +0.008 A 
ATOM      8  C   LIG    1        2.190  -0.634   1.476  0.00  0.00    +0.046 A 
ATOM      9  C   LIG    1        2.725  -0.562   0.207  0.00  0.00    +0.132 A 
ATOM     10  C   LIG    1        1.918  -0.662  -0.906  0.00  0.00    +0.050 A 
ATOM     11  C   LIG    1        0.555  -0.836  -0.797  0.00  0.00    -0.040 A 
ATOM     12  C   LIG    1       -0.256  -0.936  -2.043  0.00  0.00    +0.036 C 
ATOM     13  C   LIG    1       -1.623  -1.506  -1.720  0.00  0.00    +0.009 C 
ATOM     14  C   LIG    1       -2.175  -0.705  -0.575  0.00  0.00    +0.000 C 
ATOM     15  C   LIG    1       -5.494   0.085   0.673  0.00  0.00    +0.121 C 
ATOM     16  C   LIG    1       -5.882  -0.551  -0.665  0.00  0.00    +0.032 C 
ATOM     17  C   LIG    1       -4.549  -0.682  -1.419  0.00  0.00    +0.007 C 
ATOM     18  C   LIG    1       -3.611  -0.905  -0.303  0.00  0.00    +0.001 C 
ENDROOT
BRANCH  15  19
ATOM     19  O   LIG    1       -6.020   1.397   0.628  0.00  0.00    -0.391 OA
ATOM     20  H   LIG    1       -6.926   1.447   0.977  0.00  0.00    +0.210 HD
ENDBRANCH  15  19
BRANCH   9  21
ATOM     21  O   LIG    1        4.101  -0.386   0.092  0.00  0.00    -0.422 OA
BRANCH  21  22
ATOM     22  C   LIG    1        4.647   0.870   0.038  0.00  0.00    +0.344 C 
ATOM     23  O   LIG    1        3.897   1.870   0.092  0.00  0.00    -0.245 OA
BRANCH  22  24
ATOM     24  C   LIG    1        6.073   1.056  -0.082  0.00  0.00    +0.059 A 
ATOM     25  C   LIG    1        6.620   2.311  -0.136  0.00  0.00    +0.015 A 
ATOM     26  C   LIG    1        7.984   2.495  -0.251  0.00  0.00    +0.001 A 
ATOM     27  C   LIG    1        8.807   1.394  -0.311  0.00  0.00    +0.000 A 
ATOM     28  C   LIG    1        8.270   0.118  -0.257  0.00  0.00    +0.001 A 
ATOM     29  C   LIG    1        6.903  -0.036  -0.143  0.00  0.00    +0.015 A 
ENDBRANCH  22  24
ENDBRANCH  21  22
ENDBRANCH   9  21
TORSDOF 4
