REMARK  Name = molecules/UYUXSRADSPPKRZ-SKNVOMKLSA-N.pdb
REMARK                            x       y       z     vdW  Elec       q    Type
REMARK                         _______ _______ _______ _____ _____    ______ ____
ROOT
ATOM      1  C   LIG    1       -0.404  -0.649   0.081  0.00  0.00    +0.243 C 
ATOM      2  C   LIG    1        0.848  -0.229   0.780  0.00  0.00    +0.197 C 
ATOM      3  C   LIG    1        1.901  -0.203  -0.331  0.00  0.00    +0.255 C 
ATOM      4  C   LIG    1        1.315  -1.165  -1.302  0.00  0.00    +0.339 C 
ATOM      5  O   LIG    1        1.938  -2.027  -2.010  0.00  0.00    -0.248 OA
ATOM      6  O   LIG    1       -0.052  -0.916  -1.264  0.00  0.00    -0.454 OA
ENDROOT
BRANCH   2   7
ATOM      7  O   LIG    1        0.758   0.978   1.424  0.00  0.00    -0.385 OA
ATOM      8  H   LIG    1        1.351   0.982   2.214  0.00  0.00    +0.210 HD
ENDBRANCH   2   7
BRANCH   3   9
ATOM      9  O   LIG    1        1.910   1.036  -0.910  0.00  0.00    -0.378 OA
ATOM     10  H   LIG    1        2.685   1.590  -0.719  0.00  0.00    +0.211 HD
ENDBRANCH   3   9
BRANCH   1  11
ATOM     11  C   LIG    1       -1.526   0.350   0.194  0.00  0.00    +0.220 C 
BRANCH  11  12
ATOM     12  O   LIG    1       -1.208   1.570  -0.373  0.00  0.00    -0.381 OA
ATOM     13  H   LIG    1       -1.904   2.218  -0.083  0.00  0.00    +0.211 HD
ENDBRANCH  11  12
BRANCH  11  14
ATOM     14  C   LIG    1       -2.755  -0.205  -0.387  0.00  0.00    +0.258 C 
ATOM     15  O   LIG    1       -3.345   0.414  -1.256  0.00  0.00    -0.298 OA
ENDBRANCH  11  14
ENDBRANCH   1  11
TORSDOF 5
