REMARK  Name = molecules/UZHSEJADLWPNLE-GRGSLBFTSA-N.pdb
REMARK                            x       y       z     vdW  Elec       q    Type
REMARK                         _______ _______ _______ _____ _____    ______ ____
ROOT
ATOM      1  C   LIG    1        0.308  -1.151   0.114  0.00  0.00    +0.096 C 
ATOM      2  C   LIG    1       -0.673  -0.259   0.782  0.00  0.00    +0.075 C 
ATOM      3  C   LIG    1       -1.724  -0.954   1.617  0.00  0.00    +0.252 C 
ATOM      4  O   LIG    1       -2.730   0.087   1.620  0.00  0.00    -0.476 OA
ATOM      5  C   LIG    1       -2.760   0.570   0.301  0.00  0.00    +0.167 A 
ATOM      6  C   LIG    1       -3.700   1.167  -0.525  0.00  0.00    +0.159 A 
ATOM      7  C   LIG    1       -3.344   1.515  -1.819  0.00  0.00    +0.049 A 
ATOM      8  C   LIG    1       -2.058   1.277  -2.310  0.00  0.00    +0.008 A 
ATOM      9  C   LIG    1       -1.114   0.674  -1.470  0.00  0.00    -0.038 A 
ATOM     10  C   LIG    1        0.259   0.381  -1.905  0.00  0.00    +0.057 C 
ATOM     11  C   LIG    1       -2.260  -2.060   0.808  0.00  0.00    +0.175 C 
ATOM     12  O   LIG    1       -3.462  -2.324   0.959  0.00  0.00    -0.293 OA
ATOM     13  C   LIG    1       -1.514  -2.874  -0.152  0.00  0.00    +0.081 C 
ATOM     14  C   LIG    1        0.031   0.828   1.540  0.00  0.00    +0.034 C 
ATOM     15  C   LIG    1        1.452   1.019   1.201  0.00  0.00    +0.086 C 
ATOM     16  N   LIG    1        1.823   0.773  -0.154  0.00  0.00    -0.293 NA
ATOM     17  C   LIG    1       -1.519   0.364  -0.237  0.00  0.00    +0.014 A 
ATOM     18  C   LIG    1       -0.243  -2.284  -0.647  0.00  0.00    +0.045 C 
ATOM     19  C   LIG    1        1.087  -0.229  -0.833  0.00  0.00    +0.094 C 
ENDROOT
BRANCH   1  20
ATOM     20  O   LIG    1        1.230  -1.569   1.078  0.00  0.00    -0.386 OA
ATOM     21  H   LIG    1        2.018  -2.000   0.710  0.00  0.00    +0.210 HD
ENDBRANCH   1  20
BRANCH   6  22
ATOM     22  O   LIG    1       -4.966   1.399  -0.038  0.00  0.00    -0.503 OA
ATOM     23  H   LIG    1       -5.270   1.168   0.881  0.00  0.00    +0.292 HD
ENDBRANCH   6  22
BRANCH  16  24
ATOM     24  C   LIG    1        3.244   0.629  -0.306  0.00  0.00    +0.111 C 
BRANCH  24  25
ATOM     25  C   LIG    1        4.020   1.660   0.391  0.00  0.00    -0.019 C 
ATOM     26  C   LIG    1        4.908   1.357   1.352  0.00  0.00    +0.005 C 
ENDBRANCH  24  25
ENDBRANCH  16  24
TORSDOF 4
