REMARK  Name = molecules/UZVHFVZFNXBMQJ-UHFFFAOYSA-N.pdb
REMARK                            x       y       z     vdW  Elec       q    Type
REMARK                         _______ _______ _______ _____ _____    ______ ____
ROOT
ATOM      1  C   LIG    1       -0.405  -0.545  -0.033  0.00  0.00    +0.127 C 
ATOM      2  C   LIG    1       -0.156  -1.724   0.823  0.00  0.00    +0.236 C 
ATOM      3  O   LIG    1        0.959  -2.120   1.239  0.00  0.00    -0.274 OA
ATOM      4  N   LIG    1       -1.308  -2.513   1.228  0.00  0.00    -0.239 N 
ATOM      5  H   LIG    1       -1.278  -3.040   2.128  0.00  0.00    +0.159 HD
ATOM      6  C   LIG    1       -2.447  -2.549   0.392  0.00  0.00    +0.312 C 
ATOM      7  O   LIG    1       -3.485  -3.223   0.696  0.00  0.00    -0.252 OA
ATOM      8  N   LIG    1       -2.450  -1.820  -0.820  0.00  0.00    -0.239 N 
ATOM      9  H   LIG    1       -3.266  -1.812  -1.478  0.00  0.00    +0.159 HD
ATOM     10  C   LIG    1       -1.307  -1.074  -1.159  0.00  0.00    +0.236 C 
ATOM     11  O   LIG    1       -0.965  -0.804  -2.324  0.00  0.00    -0.274 OA
ENDROOT
BRANCH   1  12
ATOM     12  C   LIG    1        0.783  -0.004  -0.684  0.00  0.00    +0.029 C 
BRANCH  12  13
ATOM     13  C   LIG    1        1.790   0.793   0.003  0.00  0.00    -0.016 C 
ATOM     14  C   LIG    1        2.592   0.215   1.107  0.00  0.00    +0.007 C 
ATOM     15  C   LIG    1        2.840   1.141  -1.090  0.00  0.00    +0.007 C 
ENDBRANCH  12  13
ENDBRANCH   1  12
BRANCH   1  16
ATOM     16  C   LIG    1       -1.312   0.484   0.615  0.00  0.00    +0.052 C 
BRANCH  16  17
ATOM     17  C   LIG    1       -1.820   1.464  -0.384  0.00  0.00    -0.033 C 
ATOM     18  C   LIG    1       -1.573   2.766  -0.277  0.00  0.00    +0.004 C 
ENDBRANCH  16  17
ENDBRANCH   1  16
TORSDOF 4
