REMARK  Name = molecules/VACCAVUAMIDAGB-UHFFFAOYSA-N.pdb
REMARK                            x       y       z     vdW  Elec       q    Type
REMARK                         _______ _______ _______ _____ _____    ______ ____
ROOT
ATOM      1  S   LIG    1       -0.223  -2.150   1.374  0.00  0.00    +0.074 S 
ATOM      2  O   LIG    1       -0.923  -2.772   2.546  0.00  0.00    -0.150 OA
ATOM      3  O   LIG    1        0.249  -3.223   0.408  0.00  0.00    -0.150 OA
ENDROOT
BRANCH   1   4
ATOM      4  C   LIG    1       -1.340  -1.094   0.543  0.00  0.00    +0.109 A 
ATOM      5  C   LIG    1       -2.312  -0.428   1.257  0.00  0.00    +0.030 A 
ATOM      6  C   LIG    1       -3.199   0.415   0.590  0.00  0.00    +0.024 A 
ATOM      7  C   LIG    1       -3.112   0.588  -0.773  0.00  0.00    +0.025 A 
ATOM      8  C   LIG    1       -2.146  -0.077  -1.464  0.00  0.00    +0.024 A 
ATOM      9  C   LIG    1       -1.268  -0.910  -0.820  0.00  0.00    +0.030 A 
BRANCH   7  10
ATOM     10  N   LIG    1       -4.008   1.440  -1.445  0.00  0.00    -0.358 N 
ATOM     11  H   LIG    1       -4.995   1.155  -1.553  0.00  0.00    +0.142 HD
ATOM     12  H   LIG    1       -3.720   2.357  -1.844  0.00  0.00    +0.142 HD
ENDBRANCH   7  10
ENDBRANCH   1   4
BRANCH   1  13
ATOM     13  N   LIG    1        1.113  -1.213   1.915  0.00  0.00    -0.192 N 
ATOM     14  H   LIG    1        1.313  -1.144   2.914  0.00  0.00    +0.176 HD
BRANCH  13  15
ATOM     15  C   LIG    1        1.956  -0.524   0.981  0.00  0.00    +0.201 A 
ATOM     16  S   LIG    1        3.332   0.464   1.256  0.00  0.00    -0.035 S 
ATOM     17  C   LIG    1        3.687   0.849  -0.370  0.00  0.00    +0.101 A 
ATOM     18  C   LIG    1        4.794   1.703  -0.924  0.00  0.00    +0.075 C 
ATOM     19  N   LIG    1        2.723   0.191  -1.003  0.00  0.00    -0.145 NA
ATOM     20  N   LIG    1        1.879  -0.478  -0.346  0.00  0.00    -0.125 NA
ENDBRANCH  13  15
ENDBRANCH   1  13
TORSDOF 4
