REMARK  Name = molecules/VAYOSLLFUXYJDT-RDTXWAMCSA-N.pdb
REMARK                            x       y       z     vdW  Elec       q    Type
REMARK                         _______ _______ _______ _____ _____    ______ ____
ROOT
ATOM      1  C   LIG    1        0.531  -3.261   0.265  0.00  0.00    +0.105 C 
ATOM      2  N   LIG    1        0.583  -1.972   0.868  0.00  0.00    -0.297 NA
ATOM      3  C   LIG    1       -0.546  -1.499   1.534  0.00  0.00    +0.101 C 
ATOM      4  C   LIG    1       -1.150  -0.225   0.974  0.00  0.00    +0.112 C 
ATOM      5  C   LIG    1       -0.071   0.782   0.730  0.00  0.00    -0.007 C 
ATOM      6  C   LIG    1        1.094   0.345   0.325  0.00  0.00    -0.025 C 
ATOM      7  C   LIG    1        2.144   1.325   0.070  0.00  0.00    -0.011 A 
ATOM      8  C   LIG    1        3.424   0.854  -0.025  0.00  0.00    +0.010 A 
ATOM      9  C   LIG    1        3.811  -0.443   0.097  0.00  0.00    -0.020 A 
ATOM     10  C   LIG    1        2.819  -1.475   0.351  0.00  0.00    +0.061 C 
ATOM     11  C   LIG    1        5.168  -0.443  -0.068  0.00  0.00    +0.087 A 
ATOM     12  N   LIG    1        5.620   0.828  -0.289  0.00  0.00    -0.360 N 
ATOM     13  H   LIG    1        6.579   1.152  -0.448  0.00  0.00    +0.165 HD
ATOM     14  C   LIG    1        4.522   1.633  -0.260  0.00  0.00    +0.047 A 
ATOM     15  C   LIG    1        4.283   2.990  -0.409  0.00  0.00    +0.026 A 
ATOM     16  C   LIG    1        2.978   3.492  -0.316  0.00  0.00    +0.003 A 
ATOM     17  C   LIG    1        1.886   2.685  -0.077  0.00  0.00    +0.009 A 
ATOM     18  C   LIG    1        1.385  -1.070   0.106  0.00  0.00    +0.091 C 
ENDROOT
BRANCH   4  19
ATOM     19  C   LIG    1       -1.885  -0.544  -0.256  0.00  0.00    +0.224 C 
ATOM     20  N   LIG    1       -2.931   0.233  -0.803  0.00  0.00    -0.301 N 
ATOM     21  O   LIG    1       -1.536  -1.606  -0.864  0.00  0.00    -0.275 OA
BRANCH  20  22
ATOM     22  C   LIG    1       -3.379   1.388  -0.101  0.00  0.00    +0.104 C 
ATOM     23  C   LIG    1       -4.498   1.108   0.872  0.00  0.00    +0.024 C 
ENDBRANCH  20  22
BRANCH  20  24
ATOM     24  C   LIG    1       -3.536  -0.197  -2.065  0.00  0.00    +0.104 C 
ATOM     25  C   LIG    1       -4.702  -1.121  -1.828  0.00  0.00    +0.024 C 
ENDBRANCH  20  24
ENDBRANCH   4  19
TORSDOF 3
