REMARK  Name = molecules/VBIZUNYMJSPHBH-OQLLNIDSSA-N.pdb
REMARK                            x       y       z     vdW  Elec       q    Type
REMARK                         _______ _______ _______ _____ _____    ______ ____
ROOT
ATOM      1  C   LIG    1        1.162   0.080   0.294  0.00  0.00    +0.142 C 
ATOM      2  N   LIG    1        0.457  -0.969   0.078  0.00  0.00    -0.187 NA
ENDROOT
BRANCH   1   3
ATOM      3  C   LIG    1        2.593   0.149   0.099  0.00  0.00    +0.036 A 
ATOM      4  C   LIG    1        3.214   1.371   0.382  0.00  0.00    +0.013 A 
ATOM      5  C   LIG    1        4.569   1.496   0.215  0.00  0.00    +0.001 A 
ATOM      6  C   LIG    1        5.343   0.454  -0.223  0.00  0.00    +0.004 A 
ATOM      7  C   LIG    1        4.761  -0.748  -0.504  0.00  0.00    +0.046 A 
ATOM      8  C   LIG    1        3.375  -0.876  -0.334  0.00  0.00    +0.125 A 
BRANCH   8   9
ATOM      9  O   LIG    1        2.856  -2.099  -0.632  0.00  0.00    -0.506 OA
ATOM     10  H   LIG    1        1.932  -2.374  -0.577  0.00  0.00    +0.292 HD
ENDBRANCH   8   9
ENDBRANCH   1   3
BRANCH   2  11
ATOM     11  N   LIG    1       -0.939  -1.007   0.278  0.00  0.00    -0.203 N 
ATOM     12  H   LIG    1       -1.293  -1.825   0.794  0.00  0.00    +0.178 HD
ATOM     13  C   LIG    1       -1.714   0.056  -0.236  0.00  0.00    +0.263 C 
ATOM     14  O   LIG    1       -1.173   1.026  -0.863  0.00  0.00    -0.268 OA
BRANCH  13  15
ATOM     15  C   LIG    1       -3.153   0.049  -0.049  0.00  0.00    +0.041 A 
ATOM     16  C   LIG    1       -3.777  -0.973   0.619  0.00  0.00    +0.033 A 
ATOM     17  C   LIG    1       -5.164  -0.937   0.775  0.00  0.00    +0.111 A 
ATOM     18  N   LIG    1       -5.857   0.091   0.271  0.00  0.00    -0.263 NA
ATOM     19  C   LIG    1       -5.257   1.102  -0.388  0.00  0.00    +0.111 A 
ATOM     20  C   LIG    1       -3.894   1.116  -0.569  0.00  0.00    +0.033 A 
ENDBRANCH  13  15
ENDBRANCH   2  11
TORSDOF 4
