REMARK  Name = molecules/VBSPHZOBAOWFCL-QFIPXVFZSA-N.pdb
REMARK                            x       y       z     vdW  Elec       q    Type
REMARK                         _______ _______ _______ _____ _____    ______ ____
ROOT
ATOM      1  C   LIG    1       -2.063   0.828  -0.317  0.00  0.00    +0.117 C 
ATOM      2  C   LIG    1       -2.155   1.971  -1.312  0.00  0.00    +0.052 C 
ENDROOT
BRANCH   1   3
ATOM      3  C   LIG    1       -3.151   1.069   0.702  0.00  0.00    -0.012 A 
ATOM      4  C   LIG    1       -3.420   0.123   1.669  0.00  0.00    +0.008 A 
ATOM      5  C   LIG    1       -4.413   0.335   2.615  0.00  0.00    +0.020 A 
ATOM      6  C   LIG    1       -5.164   1.485   2.628  0.00  0.00    +0.041 A 
ATOM      7 CL   LIG    1       -6.424   1.754   3.827  0.00  0.00    -0.084 Cl
ATOM      8  C   LIG    1       -4.880   2.417   1.653  0.00  0.00    +0.020 A 
ATOM      9  C   LIG    1       -3.900   2.233   0.703  0.00  0.00    +0.008 A 
ENDBRANCH   1   3
BRANCH   1  10
ATOM     10  C   LIG    1       -2.348  -0.479  -0.954  0.00  0.00    -0.012 A 
ATOM     11  C   LIG    1       -1.723  -1.619  -0.452  0.00  0.00    +0.007 A 
ATOM     12  C   LIG    1       -1.983  -2.840  -1.032  0.00  0.00    +0.000 A 
ATOM     13  C   LIG    1       -2.845  -2.953  -2.095  0.00  0.00    +0.000 A 
ATOM     14  C   LIG    1       -3.466  -1.839  -2.599  0.00  0.00    +0.000 A 
ATOM     15  C   LIG    1       -3.210  -0.607  -2.022  0.00  0.00    +0.007 A 
ENDBRANCH   1  10
BRANCH   1  16
ATOM     16  O   LIG    1       -0.874   0.838   0.372  0.00  0.00    -0.363 OA
BRANCH  16  17
ATOM     17  C   LIG    1        0.244   0.773  -0.479  0.00  0.00    +0.177 C 
BRANCH  17  18
ATOM     18  C   LIG    1        1.447   0.779   0.390  0.00  0.00    +0.112 C 
BRANCH  18  19
ATOM     19  N   LIG    1        2.708   0.716  -0.325  0.00  0.00    -0.300 NA
ATOM     20  C   LIG    1        3.782   0.766   0.479  0.00  0.00    +0.084 C 
ATOM     21  C   LIG    1        4.872   0.920   1.335  0.00  0.00    +0.015 C 
ATOM     22  C   LIG    1        5.692  -0.412   1.146  0.00  0.00    +0.001 C 
ATOM     23  C   LIG    1        5.242  -1.125  -0.139  0.00  0.00    +0.001 C 
ATOM     24  C   LIG    1        3.883  -1.492  -0.396  0.00  0.00    +0.015 C 
ATOM     25  C   LIG    1        2.833  -0.612  -1.031  0.00  0.00    +0.084 C 
ENDBRANCH  18  19
ENDBRANCH  17  18
ENDBRANCH  16  17
ENDBRANCH   1  16
TORSDOF 6
