REMARK  Name = molecules/VCKUSRYTPJJLNI-CQSZACIVSA-N.pdb
REMARK                            x       y       z     vdW  Elec       q    Type
REMARK                         _______ _______ _______ _____ _____    ______ ____
ROOT
ATOM      1  C   LIG    1       -5.320   0.500  -0.849  0.00  0.00    +0.164 A 
ATOM      2  C   LIG    1       -5.622  -0.101   0.354  0.00  0.00    +0.162 A 
ATOM      3  C   LIG    1       -4.639  -0.631   1.164  0.00  0.00    +0.062 A 
ATOM      4  C   LIG    1       -3.309  -0.580   0.803  0.00  0.00    +0.044 A 
ATOM      5  C   LIG    1       -2.330  -1.111   1.618  0.00  0.00    +0.129 A 
ATOM      6  N   LIG    1       -1.057  -1.020   1.193  0.00  0.00    -0.199 NA
ATOM      7  C   LIG    1       -0.744  -0.436   0.023  0.00  0.00    +0.220 A 
ATOM      8  N   LIG    1       -1.713   0.079  -0.763  0.00  0.00    -0.214 NA
ATOM      9  C   LIG    1       -3.011   0.026  -0.405  0.00  0.00    +0.082 A 
ATOM     10  C   LIG    1       -3.994   0.557  -1.219  0.00  0.00    +0.078 A 
ENDROOT
BRANCH   7  11
ATOM     11  N   LIG    1        0.635  -0.364  -0.387  0.00  0.00    -0.297 N 
ATOM     12  C   LIG    1        1.648  -0.929   0.483  0.00  0.00    +0.127 C 
ATOM     13  C   LIG    1        2.675   0.209   0.694  0.00  0.00    +0.127 C 
ATOM     14  N   LIG    1        3.236   0.438  -0.593  0.00  0.00    -0.296 N 
ATOM     15  C   LIG    1        4.515   0.153  -1.000  0.00  0.00    +0.245 C 
ATOM     16  O   LIG    1        4.887   0.417  -2.228  0.00  0.00    -0.273 OA
ATOM     17  C   LIG    1        2.293   1.041  -1.567  0.00  0.00    +0.127 C 
ATOM     18  C   LIG    1        1.023   0.250  -1.629  0.00  0.00    +0.127 C 
BRANCH  15  19
ATOM     19  C   LIG    1        5.585  -0.444  -0.196  0.00  0.00    +0.204 C 
ATOM     20  O   LIG    1        5.306  -0.716   1.090  0.00  0.00    -0.367 OA
ATOM     21  C   LIG    1        6.141  -0.028   1.905  0.00  0.00    +0.161 C 
ATOM     22  C   LIG    1        7.386   0.235   1.105  0.00  0.00    +0.031 C 
ATOM     23  C   LIG    1        6.760   0.549  -0.265  0.00  0.00    +0.043 C 
ENDBRANCH  15  19
ENDBRANCH   7  11
BRANCH   5  24
ATOM     24  N   LIG    1       -2.641  -1.732   2.859  0.00  0.00    -0.343 N 
ATOM     25  H   LIG    1       -2.384  -1.222   3.732  0.00  0.00    +0.144 HD
ATOM     26  H   LIG    1       -3.105  -2.655   2.959  0.00  0.00    +0.144 HD
ENDBRANCH   5  24
BRANCH   1  28
ATOM     27  C   LIG    1       -5.933   1.641  -2.894  0.00  0.00    +0.277 C 
ATOM     28  O   LIG    1       -6.316   1.038  -1.673  0.00  0.00    -0.491 OA
ENDBRANCH   1  28
BRANCH   2  29
ATOM     29  O   LIG    1       -6.982  -0.138   0.693  0.00  0.00    -0.491 OA
ATOM     30  C   LIG    1       -7.311  -0.750   1.920  0.00  0.00    +0.277 C 
ENDBRANCH   2  29
TORSDOF 5
