REMARK  Name = molecules/VCRQLDNIOXNDMT-UHFFFAOYSA-N.pdb
REMARK                            x       y       z     vdW  Elec       q    Type
REMARK                         _______ _______ _______ _____ _____    ______ ____
ROOT
ATOM      1  C   LIG    1        1.151  -0.346   0.211  0.00  0.00    +0.235 C 
ATOM      2  N   LIG    1       -0.124  -0.923   0.455  0.00  0.00    -0.253 N 
ATOM      3  C   LIG    1       -1.109  -0.164   1.222  0.00  0.00    +0.229 C 
ATOM      4  N   LIG    1       -2.398  -0.218   0.521  0.00  0.00    -0.251 N 
ATOM      5  C   LIG    1       -2.837  -1.468  -0.009  0.00  0.00    +0.254 C 
ATOM      6  O   LIG    1       -4.046  -1.699  -0.220  0.00  0.00    -0.270 OA
ATOM      7  C   LIG    1       -1.810  -2.463  -0.293  0.00  0.00    +0.059 A 
ATOM      8  C   LIG    1       -2.164  -3.701  -0.788  0.00  0.00    +0.015 A 
ATOM      9  C   LIG    1       -1.189  -4.642  -1.039  0.00  0.00    +0.001 A 
ATOM     10  C   LIG    1        0.154  -4.363  -0.800  0.00  0.00    +0.002 A 
ATOM     11  C   LIG    1        0.515  -3.132  -0.308  0.00  0.00    +0.024 A 
ATOM     12  C   LIG    1       -0.459  -2.196  -0.060  0.00  0.00    +0.050 A 
ATOM     13  O   LIG    1        1.962  -0.930  -0.533  0.00  0.00    -0.274 OA
ENDROOT
BRANCH   4  14
ATOM     14  C   LIG    1       -3.180   0.927   0.380  0.00  0.00    +0.038 A 
ATOM     15  C   LIG    1       -4.353   1.098   1.128  0.00  0.00    +0.023 A 
ATOM     16  C   LIG    1       -5.145   2.212   1.018  0.00  0.00    +0.002 A 
ATOM     17  C   LIG    1       -4.810   3.215   0.158  0.00  0.00    +0.000 A 
ATOM     18  C   LIG    1       -3.666   3.088  -0.596  0.00  0.00    +0.002 A 
ATOM     19  C   LIG    1       -2.870   1.962  -0.481  0.00  0.00    +0.023 A 
ENDBRANCH   4  14
BRANCH   1  20
ATOM     20  C   LIG    1        1.525   0.972   0.852  0.00  0.00    +0.181 C 
BRANCH  20  21
ATOM     21  N   LIG    1        2.849   1.294   0.445  0.00  0.00    -0.290 NA
ATOM     22  C   LIG    1        3.890   0.505   0.995  0.00  0.00    +0.113 C 
ATOM     23  C   LIG    1        5.251   1.147   0.811  0.00  0.00    +0.175 C 
ATOM     24  O   LIG    1        5.408   1.644  -0.479  0.00  0.00    -0.377 OA
ATOM     25  C   LIG    1        4.426   1.152  -1.339  0.00  0.00    +0.175 C 
ATOM     26  C   LIG    1        3.051   1.622  -0.917  0.00  0.00    +0.113 C 
ENDBRANCH  20  21
ENDBRANCH   1  20
TORSDOF 3
