REMARK  Name = molecules/VCVQSRCYSKKPBA-LBPRGKRZSA-N.pdb
REMARK                            x       y       z     vdW  Elec       q    Type
REMARK                         _______ _______ _______ _____ _____    ______ ____
ROOT
ATOM      1  C   LIG    1        1.016  -1.490   0.193  0.00  0.00    +0.261 C 
ENDROOT
BRANCH   1   2
ATOM      2  O   LIG    1        1.564  -0.231  -0.195  0.00  0.00    -0.488 OA
BRANCH   2   3
ATOM      3  C   LIG    1        2.914  -0.034  -0.308  0.00  0.00    +0.138 A 
ATOM      4  C   LIG    1        3.772  -1.097  -0.036  0.00  0.00    +0.047 A 
ATOM      5  C   LIG    1        5.114  -0.872  -0.157  0.00  0.00    +0.004 A 
ATOM      6  C   LIG    1        5.650   0.347  -0.532  0.00  0.00    +0.001 A 
ATOM      7  C   LIG    1        4.771   1.377  -0.794  0.00  0.00    +0.022 A 
ATOM      8  C   LIG    1        3.403   1.195  -0.685  0.00  0.00    +0.093 A 
BRANCH   8   9
ATOM      9  C   LIG    1        2.486   2.286  -0.963  0.00  0.00    +0.103 C 
ATOM     10  N   LIG    1        1.754   3.162  -1.174  0.00  0.00    -0.191 NA
ENDBRANCH   8   9
ENDBRANCH   2   3
ENDBRANCH   1   2
BRANCH   1  11
ATOM     11  C   LIG    1       -0.511  -1.347   0.218  0.00  0.00    +0.166 C 
BRANCH  11  12
ATOM     12  O   LIG    1       -1.010  -2.579   0.598  0.00  0.00    -0.387 OA
ATOM     13  H   LIG    1       -0.961  -2.753   1.557  0.00  0.00    +0.210 HD
ENDBRANCH  11  12
BRANCH  11  14
ATOM     14  C   LIG    1       -0.872  -0.271   1.189  0.00  0.00    +0.116 C 
BRANCH  14  15
ATOM     15  N   LIG    1       -2.248  -0.086   1.374  0.00  0.00    -0.309 NA
ATOM     16  H   LIG    1       -2.665  -0.929   1.821  0.00  0.00    +0.123 HD
BRANCH  15  17
ATOM     17  C   LIG    1       -3.065   0.439   0.364  0.00  0.00    +0.011 C 
ATOM     18  C   LIG    1       -4.470   0.612   1.004  0.00  0.00    +0.027 C 
ATOM     19  C   LIG    1       -2.695   1.839  -0.080  0.00  0.00    +0.027 C 
ATOM     20  C   LIG    1       -3.293  -0.392  -0.861  0.00  0.00    +0.027 C 
ENDBRANCH  15  17
ENDBRANCH  14  15
ENDBRANCH  11  14
ENDBRANCH   1  11
TORSDOF 8
