REMARK  Name = molecules/VCZPUGSOJXZKIP-WCQYABFASA-N.pdb
REMARK                            x       y       z     vdW  Elec       q    Type
REMARK                         _______ _______ _______ _____ _____    ______ ____
ROOT
ATOM      1  C   LIG    1       -0.186  -0.231   0.284  0.00  0.00    +0.104 C 
ATOM      2  C   LIG    1       -0.272  -1.649  -0.236  0.00  0.00    +0.040 C 
ATOM      3  C   LIG    1       -1.622  -2.137  -0.579  0.00  0.00    +0.003 C 
ATOM      4  C   LIG    1       -2.620  -1.409   0.260  0.00  0.00    +0.001 C 
ATOM      5  C   LIG    1       -2.588   0.026  -0.125  0.00  0.00    +0.018 C 
ATOM      6  C   LIG    1       -1.206   0.596  -0.367  0.00  0.00    +0.134 C 
ENDROOT
BRANCH   1   7
ATOM      7  C   LIG    1        1.216   0.160   0.082  0.00  0.00    -0.015 A 
ATOM      8  C   LIG    1        2.178  -0.609   0.742  0.00  0.00    +0.006 A 
ATOM      9  C   LIG    1        3.530  -0.317   0.609  0.00  0.00    +0.000 A 
ATOM     10  C   LIG    1        3.953   0.736  -0.176  0.00  0.00    +0.000 A 
ATOM     11  C   LIG    1        3.011   1.500  -0.831  0.00  0.00    +0.000 A 
ATOM     12  C   LIG    1        1.680   1.181  -0.676  0.00  0.00    +0.006 A 
ENDBRANCH   1   7
BRANCH   1  13
ATOM     13  O   LIG    1       -0.414  -0.189   1.682  0.00  0.00    -0.383 OA
ATOM     14  H   LIG    1        0.329   0.208   2.167  0.00  0.00    +0.211 HD
ENDBRANCH   1  13
BRANCH   6  15
ATOM     15  C   LIG    1       -1.289   1.990   0.109  0.00  0.00    +0.311 C 
ATOM     16  O   LIG    1       -0.537   2.400   1.013  0.00  0.00    -0.251 OA
BRANCH  15  17
ATOM     17  O   LIG    1       -2.213   2.852  -0.454  0.00  0.00    -0.480 OA
ATOM     18  H   LIG    1       -1.892   3.449  -1.204  0.00  0.00    +0.295 HD
ENDBRANCH  15  17
ENDBRANCH   6  15
TORSDOF 4
