REMARK  Name = molecules/VDJHFHXMUKFKET-WDUFCVPESA-N.pdb
REMARK                            x       y       z     vdW  Elec       q    Type
REMARK                         _______ _______ _______ _____ _____    ______ ____
ROOT
ATOM      1  C   LIG    1        0.382   0.445  -0.161  0.00  0.00    +0.086 C 
ATOM      2  C   LIG    1       -0.795   0.594   0.628  0.00  0.00    +0.152 C 
ATOM      3  C   LIG    1       -0.445   0.636   2.134  0.00  0.00    +0.179 C 
ATOM      4  C   LIG    1        0.596  -0.319   2.546  0.00  0.00    -0.017 C 
ATOM      5  C   LIG    1        1.879  -0.362   2.122  0.00  0.00    -0.012 C 
ATOM      6  C   LIG    1        2.537   0.658   1.202  0.00  0.00    +0.083 C 
ATOM      7  C   LIG    1        3.401   0.056   0.158  0.00  0.00    +0.013 C 
ATOM      8  C   LIG    1        4.175   0.976  -0.689  0.00  0.00    -0.028 C 
ATOM      9  C   LIG    1        3.936   2.424  -0.840  0.00  0.00    +0.011 C 
ATOM     10  C   LIG    1        5.662   0.613  -0.845  0.00  0.00    +0.011 C 
ATOM     11  C   LIG    1        3.108   0.034  -1.222  0.00  0.00    -0.000 C 
ATOM     12  C   LIG    1        1.949   0.384  -1.958  0.00  0.00    +0.009 C 
ATOM     13  C   LIG    1       -1.554  -0.706   0.471  0.00  0.00    +0.238 C 
ATOM     14  C   LIG    1       -0.495  -1.625   0.147  0.00  0.00    -0.033 C 
ATOM     15  C   LIG    1       -0.591  -3.128   0.195  0.00  0.00    +0.042 C 
ATOM     16  C   LIG    1        1.428   1.301   0.553  0.00  0.00    +0.153 C 
ATOM     17  O   LIG    1        1.190   2.461   0.482  0.00  0.00    -0.296 OA
ATOM     18  C   LIG    1        0.608  -0.986  -0.209  0.00  0.00    -0.007 C 
ATOM     19  C   LIG    1        0.666   0.967  -1.503  0.00  0.00    +0.006 C 
ATOM     20  C   LIG    1       -0.395   0.715  -2.563  0.00  0.00    +0.009 C 
ENDROOT
BRANCH   3  21
ATOM     21  O   LIG    1       -0.257   1.924   2.593  0.00  0.00    -0.384 OA
ATOM     22  H   LIG    1       -0.721   2.142   3.418  0.00  0.00    +0.210 HD
ENDBRANCH   3  21
BRANCH   2  23
ATOM     23  O   LIG    1       -1.533   1.700   0.294  0.00  0.00    -0.380 OA
ATOM     24  H   LIG    1       -1.820   2.149   1.113  0.00  0.00    +0.211 HD
ENDBRANCH   2  23
BRANCH   4  25
ATOM     25  C   LIG    1        0.272  -1.365   3.531  0.00  0.00    +0.189 C 
BRANCH  25  26
ATOM     26  O   LIG    1        1.354  -2.184   3.823  0.00  0.00    -0.391 OA
ATOM     27  H   LIG    1        1.485  -2.788   3.054  0.00  0.00    +0.210 HD
ENDBRANCH  25  26
ENDBRANCH   4  25
BRANCH  13  28
ATOM     28  O   LIG    1       -2.638  -0.484  -0.327  0.00  0.00    -0.451 OA
BRANCH  28  29
ATOM     29  C   LIG    1       -3.963  -0.665   0.050  0.00  0.00    +0.335 C 
ATOM     30  O   LIG    1       -4.063  -1.070   1.250  0.00  0.00    -0.245 OA
BRANCH  29  31
ATOM     31  C   LIG    1       -5.098  -0.432  -0.788  0.00  0.00    +0.029 C 
ATOM     32  C   LIG    1       -6.452  -0.692  -0.203  0.00  0.00    +0.051 C 
ATOM     33  C   LIG    1       -5.075  -0.008  -2.040  0.00  0.00    -0.020 C 
ATOM     34  C   LIG    1       -3.762   0.264  -2.667  0.00  0.00    +0.036 C 
ENDBRANCH  29  31
ENDBRANCH  28  29
ENDBRANCH  13  28
TORSDOF 7
