REMARK  Name = molecules/VDKMYSMWQCFYBQ-LJQANCHMSA-N.pdb
REMARK                            x       y       z     vdW  Elec       q    Type
REMARK                         _______ _______ _______ _____ _____    ______ ____
ROOT
ATOM      1  C   LIG    1        1.888   3.213   0.587  0.00  0.00    +0.059 A 
ATOM      2  C   LIG    1        1.816   4.536   0.894  0.00  0.00    +0.015 A 
ATOM      3  C   LIG    1        0.776   5.313   0.457  0.00  0.00    +0.001 A 
ATOM      4  C   LIG    1       -0.207   4.732  -0.307  0.00  0.00    +0.004 A 
ATOM      5  C   LIG    1       -0.141   3.379  -0.628  0.00  0.00    +0.046 A 
ATOM      6  C   LIG    1        0.899   2.594  -0.192  0.00  0.00    +0.131 A 
ENDROOT
BRANCH   1   7
ATOM      7  C   LIG    1        3.000   2.382   1.063  0.00  0.00    +0.167 C 
ATOM      8  O   LIG    1        3.889   2.975   1.765  0.00  0.00    -0.292 OA
BRANCH   7   9
ATOM      9  C   LIG    1        3.147   0.947   0.787  0.00  0.00    +0.084 C 
BRANCH   9  10
ATOM     10  C   LIG    1        4.439   0.470   1.460  0.00  0.00    +0.043 C 
BRANCH  10  11
ATOM     11  C   LIG    1        4.599  -0.979   1.184  0.00  0.00    -0.047 A 
ATOM     12  C   LIG    1        4.043  -1.872   2.073  0.00  0.00    +0.003 A 
ATOM     13  C   LIG    1        4.189  -3.238   1.820  0.00  0.00    +0.000 A 
ATOM     14  C   LIG    1        4.878  -3.651   0.700  0.00  0.00    +0.000 A 
ATOM     15  C   LIG    1        5.436  -2.773  -0.193  0.00  0.00    +0.000 A 
ATOM     16  C   LIG    1        5.281  -1.422   0.074  0.00  0.00    +0.003 A 
ENDBRANCH  10  11
ENDBRANCH   9  10
ENDBRANCH   7   9
ENDBRANCH   1   7
BRANCH   6  17
ATOM     17  O   LIG    1        1.019   1.279  -0.472  0.00  0.00    -0.489 OA
BRANCH  17  18
ATOM     18  C   LIG    1        0.315   0.347  -1.135  0.00  0.00    +0.261 C 
BRANCH  18  19
ATOM     19  C   LIG    1       -1.045   0.076  -0.478  0.00  0.00    +0.166 C 
BRANCH  19  20
ATOM     20  O   LIG    1       -0.736  -0.354   0.825  0.00  0.00    -0.387 OA
ATOM     21  H   LIG    1       -0.286   0.359   1.338  0.00  0.00    +0.210 HD
ENDBRANCH  19  20
BRANCH  19  22
ATOM     22  C   LIG    1       -1.644  -1.067  -1.256  0.00  0.00    +0.116 C 
BRANCH  22  23
ATOM     23  N   LIG    1       -2.820  -1.643  -0.776  0.00  0.00    -0.309 NA
ATOM     24  H   LIG    1       -2.882  -2.636  -1.153  0.00  0.00    +0.123 HD
BRANCH  23  25
ATOM     25  C   LIG    1       -4.052  -0.993  -0.805  0.00  0.00    +0.013 C 
ATOM     26  C   LIG    1       -4.063   0.230   0.080  0.00  0.00    +0.027 C 
ATOM     27  C   LIG    1       -4.532  -0.554  -2.166  0.00  0.00    +0.027 C 
BRANCH  25  28
ATOM     28  C   LIG    1       -5.175  -1.888  -0.249  0.00  0.00    +0.018 C 
ATOM     29  C   LIG    1       -5.348  -3.156  -1.010  0.00  0.00    +0.005 C 
ENDBRANCH  25  28
ENDBRANCH  23  25
ENDBRANCH  22  23
ENDBRANCH  19  22
ENDBRANCH  18  19
ENDBRANCH  17  18
ENDBRANCH   6  17
TORSDOF 12
