REMARK  Name = molecules/VDUWPHTZYNWKRN-UHFFFAOYSA-N.pdb
REMARK                            x       y       z     vdW  Elec       q    Type
REMARK                         _______ _______ _______ _____ _____    ______ ____
ROOT
ATOM      1  N   LIG    1       -1.099   0.752   0.314  0.00  0.00    -0.263 N 
ATOM      2  C   LIG    1        0.095   0.147   0.178  0.00  0.00    +0.075 A 
ATOM      3  C   LIG    1        1.293   0.788   0.405  0.00  0.00    +0.077 A 
ATOM      4  C   LIG    1        2.475   0.119   0.249  0.00  0.00    +0.168 A 
ATOM      5  O   LIG    1        3.789   0.528   0.412  0.00  0.00    -0.453 OA
ATOM      6  C   LIG    1        4.651  -0.591   0.241  0.00  0.00    +0.466 C 
ATOM      7  O   LIG    1        3.825  -1.644  -0.220  0.00  0.00    -0.453 OA
ATOM      8  C   LIG    1        2.526  -1.211  -0.137  0.00  0.00    +0.167 A 
ATOM      9  C   LIG    1        1.304  -1.845  -0.363  0.00  0.00    +0.063 A 
ATOM     10  C   LIG    1        0.094  -1.198  -0.215  0.00  0.00    +0.053 A 
ATOM     11  C   LIG    1       -1.073  -1.890  -0.456  0.00  0.00    +0.222 A 
ATOM     12  C   LIG    1       -2.262  -1.210  -0.298  0.00  0.00    +0.215 A 
ATOM     13  O   LIG    1       -1.113  -3.089  -0.808  0.00  0.00    -0.285 OA
ATOM     14  N   LIG    1       -2.207   0.072   0.078  0.00  0.00    -0.160 NA
ENDROOT
BRANCH   1  15
ATOM     15  C   LIG    1       -1.172   2.127   0.716  0.00  0.00    +0.141 C 
ATOM     16  C   LIG    1       -1.149   3.091  -0.450  0.00  0.00    +0.029 C 
ENDBRANCH   1  15
BRANCH  12  17
ATOM     17  C   LIG    1       -3.531  -1.860  -0.531  0.00  0.00    +0.361 C 
ATOM     18  O   LIG    1       -3.548  -3.054  -0.880  0.00  0.00    -0.243 OA
BRANCH  17  19
ATOM     19  O   LIG    1       -4.715  -1.151  -0.364  0.00  0.00    -0.476 OA
ATOM     20  H   LIG    1       -5.171  -1.279   0.550  0.00  0.00    +0.295 HD
ENDBRANCH  17  19
ENDBRANCH  12  17
TORSDOF 3
