REMARK  Name = molecules/VFKZTMPDYBFSTM-GUCUJZIJSA-N.pdb
REMARK                            x       y       z     vdW  Elec       q    Type
REMARK                         _______ _______ _______ _____ _____    ______ ____
ROOT
ATOM      1  C   LIG    1        0.626  -0.141  -0.693  0.00  0.00    +0.175 C 
ENDROOT
BRANCH   1   2
ATOM      2  O   LIG    1        0.307  -1.356  -1.357  0.00  0.00    -0.387 OA
ATOM      3  H   LIG    1        0.655  -2.099  -0.825  0.00  0.00    +0.210 HD
ENDBRANCH   1   2
BRANCH   1   4
ATOM      4  C   LIG    1       -0.517   0.089   0.280  0.00  0.00    +0.175 C 
BRANCH   4   5
ATOM      5  O   LIG    1       -0.375   1.255   1.017  0.00  0.00    -0.387 OA
ATOM      6  H   LIG    1       -0.469   1.095   1.989  0.00  0.00    +0.210 HD
ENDBRANCH   4   5
BRANCH   4   7
ATOM      7  C   LIG    1       -1.837   0.108  -0.488  0.00  0.00    +0.156 C 
BRANCH   7   8
ATOM      8  C   LIG    1       -2.989   0.191   0.488  0.00  0.00    +0.113 C 
ATOM      9 BR   LIG    1       -2.998  -1.330   1.696  0.00  0.00    -0.089 Br
ENDBRANCH   7   8
BRANCH   7  10
ATOM     10  O   LIG    1       -1.925   1.163  -1.364  0.00  0.00    -0.388 OA
ATOM     11  H   LIG    1       -2.444   0.916  -2.167  0.00  0.00    +0.210 HD
ENDBRANCH   7  10
ENDBRANCH   4   7
ENDBRANCH   1   4
BRANCH   1  12
ATOM     12  C   LIG    1        1.939  -0.380  -0.021  0.00  0.00    +0.156 C 
BRANCH  12  13
ATOM     13  C   LIG    1        2.517   0.787   0.705  0.00  0.00    +0.113 C 
ATOM     14 BR   LIG    1        4.213   0.181   1.468  0.00  0.00    -0.089 Br
ENDBRANCH  12  13
BRANCH  12  15
ATOM     15  O   LIG    1        2.865  -0.709  -1.038  0.00  0.00    -0.388 OA
ATOM     16  H   LIG    1        2.737  -1.673  -1.245  0.00  0.00    +0.210 HD
ENDBRANCH  12  15
ENDBRANCH   1  12
TORSDOF 9
