REMARK  Name = molecules/VFKZTMPDYBFSTM-KVTDHHQDSA-N.pdb
REMARK                            x       y       z     vdW  Elec       q    Type
REMARK                         _______ _______ _______ _____ _____    ______ ____
ROOT
ATOM      1  C   LIG    1       -0.473   0.035   0.223  0.00  0.00    +0.175 C 
ENDROOT
BRANCH   1   2
ATOM      2  O   LIG    1       -0.486  -0.411   1.525  0.00  0.00    -0.387 OA
ATOM      3  H   LIG    1       -0.138   0.257   2.163  0.00  0.00    +0.210 HD
ENDBRANCH   1   2
BRANCH   1   4
ATOM      4  C   LIG    1       -1.827  -0.228  -0.445  0.00  0.00    +0.156 C 
BRANCH   4   5
ATOM      5  C   LIG    1       -2.847   0.551   0.380  0.00  0.00    +0.113 C 
ATOM      6 BR   LIG    1       -2.364   2.423   0.325  0.00  0.00    -0.089 Br
ENDBRANCH   4   5
BRANCH   4   7
ATOM      7  O   LIG    1       -1.801   0.224  -1.749  0.00  0.00    -0.388 OA
ATOM      8  H   LIG    1       -2.361   1.029  -1.899  0.00  0.00    +0.210 HD
ENDBRANCH   4   7
ENDBRANCH   1   4
BRANCH   1   9
ATOM      9  C   LIG    1        0.579  -0.672  -0.605  0.00  0.00    +0.175 C 
BRANCH   9  10
ATOM     10  O   LIG    1        0.323  -2.050  -0.641  0.00  0.00    -0.387 OA
ATOM     11  H   LIG    1        0.529  -2.351  -1.576  0.00  0.00    +0.210 HD
ENDBRANCH   9  10
BRANCH   9  12
ATOM     12  C   LIG    1        1.931  -0.471   0.039  0.00  0.00    +0.156 C 
BRANCH  12  13
ATOM     13  O   LIG    1        1.963  -0.961   1.335  0.00  0.00    -0.388 OA
ATOM     14  H   LIG    1        2.616  -1.679   1.462  0.00  0.00    +0.210 HD
ENDBRANCH  12  13
BRANCH  12  15
ATOM     15  C   LIG    1        2.268   0.995   0.026  0.00  0.00    +0.113 C 
ATOM     16 BR   LIG    1        4.008   1.265   0.842  0.00  0.00    -0.089 Br
ENDBRANCH  12  15
ENDBRANCH   9  12
ENDBRANCH   1   9
TORSDOF 9
