REMARK  Name = molecules/VGGGPCQERPFHOB-RDBSUJKOSA-N.pdb
REMARK                            x       y       z     vdW  Elec       q    Type
REMARK                         _______ _______ _______ _____ _____    ______ ____
ROOT
ATOM      1  C   UNK A  0        0.866  -0.807   0.094  0.00  0.00    +0.217 C 
ENDROOT
BRANCH   1   2
ATOM      2  C   UNK A  0       -0.483  -0.710   0.692  0.00  0.00    +0.244 C 
ATOM      3  O   UNK A  0       -0.807  -1.639   1.469  0.00  0.00    -0.273 OA
ATOM      4  N   LEU A  1       -1.395   0.334   0.441  0.00  0.00    -0.300 N 
ATOM      5  H   LEU A  1       -1.084   1.106  -0.225  0.00  0.00    +0.150 HD
BRANCH   4   6
ATOM      6  CA  LEU A  1       -2.712   0.455   1.015  0.00  0.00    +0.182 C 
BRANCH   6   7
ATOM      7  C   LEU A  1       -2.646   0.043   2.474  0.00  0.00    +0.325 C 
ATOM      8  OXT LEU A  1       -1.573   0.049   3.120  0.00  0.00    -0.249 OA
BRANCH   7   9
ATOM      9  O   LEU A  1       -3.814  -0.349   3.078  0.00  0.00    -0.479 OA
ATOM     10  H   LEU A  1       -3.984  -1.290   3.425  0.00  0.00    +0.295 HD
ENDBRANCH   7   9
ENDBRANCH   6   7
BRANCH   6  11
ATOM     11  CB  LEU A  1       -3.780  -0.338   0.374  0.00  0.00    +0.036 C 
BRANCH  11  12
ATOM     12  CG  LEU A  1       -4.039  -0.059  -1.069  0.00  0.00    -0.015 C 
ATOM     13  CD2 LEU A  1       -4.423   1.350  -1.361  0.00  0.00    +0.007 C 
ATOM     14  CD1 LEU A  1       -2.893  -0.589  -1.891  0.00  0.00    +0.007 C 
ENDBRANCH  11  12
ENDBRANCH   6  11
ENDBRANCH   4   6
ENDBRANCH   1   2
BRANCH   1  15
ATOM     15  O   UNK A  0        1.103   0.259  -0.762  0.00  0.00    -0.381 OA
ATOM     16  H   UNK A  0        0.703   0.113  -1.653  0.00  0.00    +0.210 HD
ENDBRANCH   1  15
BRANCH   1  17
ATOM     17  C   UNK A  0        1.917  -0.891   1.182  0.00  0.00    +0.093 C 
BRANCH  17  18
ATOM     18  N   UNK A  0        1.963   0.322   1.951  0.00  0.00    -0.324 NA
ATOM     19  H   UNK A  0        1.040   0.510   2.373  0.00  0.00    +0.119 HD
ATOM     20  H   UNK A  0        2.201   1.137   1.360  0.00  0.00    +0.119 HD
ENDBRANCH  17  18
BRANCH  17  21
ATOM     21  C   UNK A  0        3.276  -1.278   0.663  0.00  0.00    +0.056 C 
BRANCH  21  22
ATOM     22  C   UNK A  0        3.824  -0.340  -0.341  0.00  0.00    -0.046 A 
ATOM     23  C   UNK A  0        4.606   0.746  -0.016  0.00  0.00    +0.004 A 
ATOM     24  C   UNK A  0        5.100   1.610  -0.966  0.00  0.00    +0.000 A 
ATOM     25  C   UNK A  0        4.819   1.409  -2.303  0.00  0.00    +0.000 A 
ATOM     26  C   UNK A  0        4.038   0.327  -2.642  0.00  0.00    +0.000 A 
ATOM     27  C   UNK A  0        3.550  -0.528  -1.693  0.00  0.00    +0.004 A 
ENDBRANCH  21  22
ENDBRANCH  17  21
ENDBRANCH   1  17
TORSDOF 11
