REMARK  Name = molecules/VGKDLMBJGBXTGI-SJCJKPOMSA-N.pdb
REMARK                            x       y       z     vdW  Elec       q    Type
REMARK                         _______ _______ _______ _____ _____    ______ ____
ROOT
ATOM      1  C   LIG    1       -2.175   0.738  -0.304  0.00  0.00    +0.084 C 
ATOM      2  C   LIG    1       -1.214   1.645   0.430  0.00  0.00    +0.024 C 
ATOM      3  C   LIG    1       -0.026   1.801  -0.492  0.00  0.00    +0.015 C 
ATOM      4  C   LIG    1        0.536   0.497  -0.950  0.00  0.00    +0.049 C 
ATOM      5  C   LIG    1       -0.228  -0.699  -0.584  0.00  0.00    -0.035 A 
ATOM      6  C   LIG    1        0.366  -1.933  -0.554  0.00  0.00    +0.004 A 
ATOM      7  C   LIG    1       -0.355  -3.085  -0.214  0.00  0.00    +0.000 A 
ATOM      8  C   LIG    1       -1.693  -2.962   0.096  0.00  0.00    +0.000 A 
ATOM      9  C   LIG    1       -2.296  -1.734   0.070  0.00  0.00    +0.005 A 
ATOM     10  C   LIG    1       -1.564  -0.609  -0.269  0.00  0.00    -0.027 A 
ENDROOT
BRANCH   4  11
ATOM     11  C   LIG    1        1.939   0.438  -0.421  0.00  0.00    -0.038 A 
ATOM     12  C   LIG    1        2.270   0.928   0.823  0.00  0.00    +0.006 A 
ATOM     13  C   LIG    1        3.582   0.855   1.282  0.00  0.00    +0.022 A 
ATOM     14  C   LIG    1        4.526   0.283   0.458  0.00  0.00    +0.059 A 
ATOM     15 CL   LIG    1        6.207   0.163   0.986  0.00  0.00    -0.082 Cl
ATOM     16  C   LIG    1        4.241  -0.222  -0.798  0.00  0.00    +0.060 A 
ATOM     17 CL   LIG    1        5.465  -0.945  -1.825  0.00  0.00    -0.082 Cl
ATOM     18  C   LIG    1        2.908  -0.121  -1.205  0.00  0.00    +0.025 A 
ENDBRANCH   4  11
BRANCH   1  19
ATOM     19  N   LIG    1       -3.515   0.830   0.133  0.00  0.00    -0.312 NA
ATOM     20  C   LIG    1       -3.782   0.469   1.482  0.00  0.00    +0.101 C 
ATOM     21  H   LIG    1       -3.899   1.768  -0.109  0.00  0.00    +0.122 HD
ENDBRANCH   1  19
TORSDOF 2
