REMARK  Name = molecules/VGLGVJVUHYTIIU-LLVKDONJSA-N.pdb
REMARK                            x       y       z     vdW  Elec       q    Type
REMARK                         _______ _______ _______ _____ _____    ______ ____
ROOT
ATOM      1  O   LIG    1       -1.269  -1.992   2.731  0.00  0.00    -0.153 OA
ATOM      2  S   LIG    1       -0.479  -1.389   1.607  0.00  0.00    +0.062 S 
ATOM      3  N   LIG    1        0.732  -0.317   2.270  0.00  0.00    -0.169 NA
ATOM      4  H   LIG    1        1.436  -0.831   2.820  0.00  0.00    +0.150 HD
ATOM      5  C   LIG    1        1.314   0.355   1.099  0.00  0.00    +0.169 C 
ATOM      6  N   LIG    1        0.332   1.282   0.592  0.00  0.00    -0.325 N 
ATOM      7  H   LIG    1        0.599   2.310   0.535  0.00  0.00    +0.148 HD
ATOM      8  C   LIG    1       -0.947   0.827   0.182  0.00  0.00    +0.056 A 
ATOM      9  C   LIG    1       -1.724   1.620  -0.637  0.00  0.00    +0.047 A 
ATOM     10  C   LIG    1       -2.986   1.203  -1.058  0.00  0.00    +0.069 A 
ATOM     11  C   LIG    1       -3.504  -0.014  -0.672  0.00  0.00    +0.125 A 
ATOM     12  C   LIG    1       -2.717  -0.800   0.149  0.00  0.00    +0.060 A 
ATOM     13 CL   LIG    1       -3.964   2.210  -2.096  0.00  0.00    -0.081 Cl
ATOM     14  O   LIG    1        0.164  -2.510   0.861  0.00  0.00    -0.153 OA
ATOM     15  C   LIG    1       -1.469  -0.390   0.567  0.00  0.00    +0.128 A 
ENDROOT
BRANCH  11  16
ATOM     16  S   LIG    1       -5.099  -0.521  -1.213  0.00  0.00    +0.057 S 
ATOM     17  O   LIG    1       -6.125   0.462  -0.671  0.00  0.00    -0.153 OA
ATOM     18  O   LIG    1       -5.124  -0.443  -2.699  0.00  0.00    -0.153 OA
BRANCH  16  19
ATOM     19  N   LIG    1       -5.505  -2.064  -0.597  0.00  0.00    -0.203 NA
ATOM     20  H   LIG    1       -5.169  -2.119   0.383  0.00  0.00    +0.144 HD
ATOM     21  H   LIG    1       -6.559  -2.114  -0.544  0.00  0.00    +0.144 HD
ENDBRANCH  16  19
ENDBRANCH  11  16
BRANCH   5  22
ATOM     22  C   LIG    1        2.585   1.075   1.493  0.00  0.00    +0.109 C 
BRANCH  22  23
ATOM     23  S   LIG    1        3.246   1.877   0.011  0.00  0.00    -0.153 S 
BRANCH  23  24
ATOM     24  C   LIG    1        3.746   0.535  -1.134  0.00  0.00    +0.095 C 
BRANCH  24  25
ATOM     25  C   LIG    1        4.872  -0.169  -0.491  0.00  0.00    -0.024 C 
ATOM     26  C   LIG    1        6.037  -0.219  -1.098  0.00  0.00    +0.005 C 
ENDBRANCH  24  25
ENDBRANCH  23  24
ENDBRANCH  22  23
ENDBRANCH   5  22
TORSDOF 6
