REMARK  Name = molecules/VGYFMXBACGZSIL-MCBHFWOFSA-N.pdb
REMARK                            x       y       z     vdW  Elec       q    Type
REMARK                         _______ _______ _______ _____ _____    ______ ____
ROOT
ATOM      1  C   LIG    1       -0.901  -0.577  -0.231  0.00  0.00    +0.005 A 
ATOM      2  C   LIG    1       -2.134  -0.653   0.443  0.00  0.00    +0.000 A 
ATOM      3  C   LIG    1       -2.999  -1.665   0.146  0.00  0.00    +0.009 A 
ATOM      4  C   LIG    1       -4.210  -1.735   0.801  0.00  0.00    +0.010 A 
ATOM      5  C   LIG    1       -5.108  -2.740   0.519  0.00  0.00    +0.001 A 
ATOM      6  C   LIG    1       -4.793  -3.685  -0.427  0.00  0.00    +0.002 A 
ATOM      7  C   LIG    1       -3.578  -3.613  -1.083  0.00  0.00    +0.028 A 
ATOM      8  C   LIG    1       -2.676  -2.610  -0.805  0.00  0.00    +0.072 A 
ATOM      9  N   LIG    1       -1.506  -2.524  -1.432  0.00  0.00    -0.251 NA
ATOM     10  C   LIG    1       -0.597  -1.518  -1.164  0.00  0.00    +0.053 A 
ENDROOT
BRANCH   2  11
ATOM     11  C   LIG    1       -2.482   0.340   1.417  0.00  0.00    -0.016 A 
ATOM     12  C   LIG    1       -2.019   0.396   2.703  0.00  0.00    +0.011 A 
ATOM     13  C   LIG    1       -2.416   1.417   3.569  0.00  0.00    +0.039 A 
ATOM     14  C   LIG    1       -3.286   2.408   3.170  0.00  0.00    +0.123 A 
ATOM     15  F   LIG    1       -3.690   3.421   4.005  0.00  0.00    -0.205 F 
ATOM     16  C   LIG    1       -3.760   2.362   1.875  0.00  0.00    +0.039 A 
ATOM     17  C   LIG    1       -3.366   1.353   1.024  0.00  0.00    +0.011 A 
ENDBRANCH   2  11
BRANCH  10  18
ATOM     18  C   LIG    1        0.700  -1.561  -1.879  0.00  0.00    +0.038 C 
ATOM     19  C   LIG    1        0.686  -2.451  -3.131  0.00  0.00    +0.010 C 
ATOM     20  C   LIG    1        0.816  -0.954  -3.232  0.00  0.00    +0.010 C 
ENDBRANCH  10  18
BRANCH   1  21
ATOM     21  C   LIG    1       -0.097   0.538   0.159  0.00  0.00    +0.008 C 
ATOM     22  C   LIG    1        1.052   0.901  -0.348  0.00  0.00    +0.005 C 
BRANCH  22  23
ATOM     23  C   LIG    1        1.738   2.137   0.230  0.00  0.00    +0.140 C 
BRANCH  23  24
ATOM     24  O   LIG    1        2.044   1.946   1.533  0.00  0.00    -0.388 OA
ATOM     25  H   LIG    1        1.374   2.253   2.181  0.00  0.00    +0.210 HD
ENDBRANCH  23  24
BRANCH  23  26
ATOM     26  C   LIG    1        2.928   2.531  -0.576  0.00  0.00    +0.067 C 
BRANCH  26  27
ATOM     27  C   LIG    1        3.981   1.485  -0.689  0.00  0.00    +0.128 C 
BRANCH  27  28
ATOM     28  O   LIG    1        5.065   2.088  -1.387  0.00  0.00    -0.391 OA
ATOM     29  H   LIG    1        5.410   2.778  -0.743  0.00  0.00    +0.210 HD
ENDBRANCH  27  28
BRANCH  27  30
ATOM     30  C   LIG    1        4.541   1.051   0.626  0.00  0.00    +0.151 C 
BRANCH  30  31
ATOM     31  C   LIG    1        5.599  -0.002   0.368  0.00  0.00    +0.307 C 
ATOM     32  O   LIG    1        5.888  -0.319  -0.810  0.00  0.00    -0.251 OA
BRANCH  31  33
ATOM     33  O   LIG    1        6.246  -0.615   1.411  0.00  0.00    -0.481 OA
ATOM     34  H   LIG    1        7.191  -0.446   1.662  0.00  0.00    +0.295 HD
ENDBRANCH  31  33
ENDBRANCH  30  31
ENDBRANCH  27  30
ENDBRANCH  26  27
ENDBRANCH  23  26
ENDBRANCH  22  23
ENDBRANCH   1  21
TORSDOF 11
