REMARK  Name = molecules/VGZSUPCWNCWDAN-UHFFFAOYSA-N.pdb
REMARK                            x       y       z     vdW  Elec       q    Type
REMARK                         _______ _______ _______ _____ _____    ______ ____
ROOT
ATOM      1  S   LIG    1        1.448   1.515  -1.637  0.00  0.00    +0.076 S 
ATOM      2  O   LIG    1        1.821   2.961  -1.794  0.00  0.00    -0.150 OA
ATOM      3  O   LIG    1        1.067   0.983  -2.993  0.00  0.00    -0.150 OA
ENDROOT
BRANCH   1   4
ATOM      4  N   LIG    1        0.143   1.295  -0.584  0.00  0.00    -0.169 N 
ATOM      5  H   LIG    1        0.197   1.654   0.398  0.00  0.00    +0.178 HD
ATOM      6  C   LIG    1       -1.046   0.636  -0.972  0.00  0.00    +0.319 C 
ATOM      7  N   LIG    1       -2.129   0.470  -0.071  0.00  0.00    -0.295 N 
ATOM      8  H   LIG    1       -2.018   0.850   0.895  0.00  0.00    +0.151 HD
ATOM      9  O   LIG    1       -1.201   0.164  -2.142  0.00  0.00    -0.251 OA
BRANCH   7  10
ATOM     10  C   LIG    1       -3.381  -0.185  -0.371  0.00  0.00    +0.074 C 
ATOM     11  C   LIG    1       -3.658  -1.318   0.586  0.00  0.00    +0.022 C 
ATOM     12  C   LIG    1       -5.122  -1.527   0.777  0.00  0.00    +0.002 C 
ATOM     13  C   LIG    1       -5.811  -0.310   1.389  0.00  0.00    +0.000 C 
ATOM     14  C   LIG    1       -5.288   0.965   0.815  0.00  0.00    +0.002 C 
ATOM     15  C   LIG    1       -4.521   0.801  -0.467  0.00  0.00    +0.022 C 
ENDBRANCH   7  10
ENDBRANCH   1   4
BRANCH   1  16
ATOM     16  C   LIG    1        2.880   0.645  -1.139  0.00  0.00    +0.109 A 
ATOM     17  C   LIG    1        3.684   1.220  -0.187  0.00  0.00    +0.029 A 
ATOM     18  C   LIG    1        4.824   0.610   0.290  0.00  0.00    +0.013 A 
ATOM     19  C   LIG    1        5.192  -0.624  -0.192  0.00  0.00    +0.017 A 
ATOM     20  C   LIG    1        4.379  -1.224  -1.169  0.00  0.00    +0.013 A 
ATOM     21  C   LIG    1        3.244  -0.586  -1.624  0.00  0.00    +0.029 A 
BRANCH  19  22
ATOM     22  C   LIG    1        6.384  -1.289   0.300  0.00  0.00    +0.160 C 
ATOM     23  C   LIG    1        7.213  -0.615   1.340  0.00  0.00    +0.091 C 
ATOM     24  O   LIG    1        6.774  -2.419  -0.096  0.00  0.00    -0.292 OA
ENDBRANCH  19  22
ENDBRANCH   1  16
TORSDOF 4
