REMARK  Name = molecules/VHFGEBVPHAGQPI-LXKZPTCJSA-N.pdb
REMARK                            x       y       z     vdW  Elec       q    Type
REMARK                         _______ _______ _______ _____ _____    ______ ____
ROOT
ATOM      1  C   LIG    1       -2.802   7.451   0.000  0.00  0.00    +0.258 A 
ATOM      2  O   LIG    1       -2.815   8.951   0.000  0.00  0.00    -0.358 OA
ATOM      3  N   LIG    1       -4.124   8.466   0.000  0.00  0.00    -0.190 N 
ATOM      4  C   LIG    1       -4.222   6.969   0.000  0.00  0.00    +0.144 A 
ENDROOT
BRANCH   3   5
ATOM      5  C   LIG    1       -5.371   9.299   0.000  0.00  0.00    +0.156 C 
BRANCH   5   6
ATOM      6  C   LIG    1       -5.273  10.796   0.000  0.00  0.00    +0.108 C 
BRANCH   6   7
ATOM      7  N   LIG    1       -6.770  10.894   0.000  0.00  0.00    -0.228 NA
ATOM      8  C   LIG    1       -7.433  12.239   0.000  0.00  0.00    +0.114 C 
ENDBRANCH   6   7
BRANCH   6   9
ATOM      9  C   LIG    1       -5.175  12.292   0.000  0.00  0.00    +0.030 C 
BRANCH   9  10
ATOM     10  C   LIG    1       -5.077  13.789   0.000  0.00  0.00    -0.028 C 
ATOM     11  C   LIG    1       -3.580  13.691   0.000  0.00  0.00    +0.011 C 
ATOM     12  C   LIG    1       -4.979  15.286   0.000  0.00  0.00    +0.011 C 
ENDBRANCH   9  10
ENDBRANCH   6   9
ENDBRANCH   5   6
ENDBRANCH   3   5
BRANCH   4  13
ATOM     13  C   LIG    1       -5.350   5.980   0.000  0.00  0.00    +0.176 C 
BRANCH  13  14
ATOM     14  C   LIG    1       -6.013   4.634   0.000  0.00  0.00    +0.018 C 
ATOM     15  C   LIG    1       -5.024   3.507   0.000  0.00  0.00    +0.007 C 
ATOM     16  C   LIG    1       -4.542   2.086   0.000  0.00  0.00    +0.007 C 
ATOM     17  C   LIG    1       -5.629   1.717   0.000  0.00  0.00    +0.021 C 
ATOM     18  C   LIG    1       -6.111   3.138   0.000  0.00  0.00    +0.013 C 
BRANCH  17  19
ATOM     19  C   LIG    1       -4.640   0.589   0.000  0.00  0.00    +0.136 C 
BRANCH  19  20
ATOM     20  O   LIG    1       -3.295  -0.074   0.000  0.00  0.00    -0.382 OA
ATOM     21  H   LIG    1       -2.740  -1.121   0.000  0.00  0.00    +0.210 HD
ENDBRANCH  19  20
ENDBRANCH  17  19
ENDBRANCH  13  14
BRANCH  13  22
ATOM     22  O   LIG    1       -5.832   7.400   0.000  0.00  0.00    -0.385 OA
ATOM     23  H   LIG    1       -5.367   7.938   0.000  0.00  0.00    +0.210 HD
ENDBRANCH  13  22
ENDBRANCH   4  13
BRANCH   1  24
ATOM     24  N   LIG    1       -1.305   7.353   0.000  0.00  0.00    -0.207 NA
BRANCH  24  25
ATOM     25  C   LIG    1        0.040   6.689   0.000  0.00  0.00    +0.146 C 
BRANCH  25  26
ATOM     26  C   LIG    1        1.029   5.561   0.000  0.00  0.00    +0.090 C 
BRANCH  26  28
ATOM     27  C   LIG    1        1.413   2.644   0.000  0.00  0.00    +0.090 C 
ATOM     28  N   LIG    1        1.512   4.141   0.000  0.00  0.00    -0.272 NA
ATOM     29  C   LIG    1        2.635   3.514   0.000  0.00  0.00    +0.105 C 
BRANCH  27  33
ATOM     30  C   LIG    1       -0.750  -1.299   0.000  0.00  0.00    +0.133 A 
ATOM     31  C   LIG    1       -1.500   0.000   0.000  0.00  0.00    +0.028 A 
ATOM     32  C   LIG    1       -0.750   1.299   0.000  0.00  0.00    +0.018 A 
ATOM     33  C   LIG    1        0.750   1.299   0.000  0.00  0.00    -0.014 A 
ATOM     34  C   LIG    1        1.500   0.000   0.000  0.00  0.00    -0.000 A 
ATOM     35  C   LIG    1        0.750  -1.299   0.000  0.00  0.00    +0.036 A 
BRANCH  30  36
ATOM     36  O   LIG    1       -1.500  -2.598   0.000  0.00  0.00    -0.506 OA
ATOM     37  H   LIG    1       -1.403  -3.394   0.000  0.00  0.00    +0.292 HD
ENDBRANCH  30  36
ENDBRANCH  27  33
ENDBRANCH  26  28
ENDBRANCH  25  26
ENDBRANCH  24  25
ENDBRANCH   1  24
TORSDOF 16
REMARK  Name = molecules/VHFGEBVPHAGQPI-LXKZPTCJSA-N.pdb
REMARK                            x       y       z     vdW  Elec       q    Type
REMARK                         _______ _______ _______ _____ _____    ______ ____
ROOT
ATOM      1  O   HOH    1        1.575  -2.790   0.000  0.00  0.00    -0.253 OA
ATOM      2  H   HOH    0        1.520  -3.776   0.000  0.00  0.00    +0.253 HD
ENDROOT
TORSDOF 0
REMARK  Name = molecules/VHFGEBVPHAGQPI-LXKZPTCJSA-N.pdb
REMARK                            x       y       z     vdW  Elec       q    Type
REMARK                         _______ _______ _______ _____ _____    ______ ____
ROOT
ATOM      1  C   LIG    1        2.846  -3.586   0.000  0.00  0.00    -0.005 C 
ATOM      2  C   LIG    1        2.819  -4.526   0.000  0.00  0.00    -0.026 C 
ATOM      3  C   LIG    1        2.069  -5.825   0.000  0.00  0.00    +0.031 C 
ENDROOT
TORSDOF 0
REMARK  Name = molecules/VHFGEBVPHAGQPI-LXKZPTCJSA-N.pdb
REMARK                            x       y       z     vdW  Elec       q    Type
REMARK                         _______ _______ _______ _____ _____    ______ ____
ROOT
ATOM      1  C   LIG    1        4.068  -2.716   0.000  0.00  0.00    +0.000 C 
ENDROOT
TORSDOF 0
REMARK  Name = molecules/VHFGEBVPHAGQPI-LXKZPTCJSA-N.pdb
REMARK                            x       y       z     vdW  Elec       q    Type
REMARK                         _______ _______ _______ _____ _____    ______ ____
ROOT
ATOM      1  C   LIG    1        5.530  -2.380   0.000  0.00  0.00    +0.004 C 
ATOM      2  C   LIG    1        5.787  -3.499   0.000  0.00  0.00    +0.004 C 
ATOM      3  C   LIG    1        4.325  -3.835   0.000  0.00  0.00    +0.000 C 
ATOM      4  C   LIG    1        7.009  -2.629   0.000  0.00  0.00    -0.012 C 
ENDROOT
BRANCH   4   5
ATOM      5  C   LIG    1        7.805  -1.357   0.000  0.00  0.00    +0.008 C 
BRANCH   5   6
ATOM      6  C   LIG    1        8.054   0.122   0.000  0.00  0.00    -0.004 C 
ATOM      7  C   LIG    1        9.447   0.406   0.000  0.00  0.00    -0.000 C 
ENDBRANCH   5   6
ENDBRANCH   4   5
TORSDOF 2
REMARK  Name = molecules/VHFGEBVPHAGQPI-LXKZPTCJSA-N.pdb
REMARK                            x       y       z     vdW  Elec       q    Type
REMARK                         _______ _______ _______ _____ _____    ______ ____
ROOT
ATOM      1  C   LIG    1       -3.889  -5.040   0.000  0.00  0.00    +0.148 C 
ATOM      2  C   LIG    1       -5.298  -4.526   0.000  0.00  0.00    +0.200 C 
ENDROOT
BRANCH   1   4
ATOM      3  C   LIG    1       -3.000  -2.598   0.000  0.00  0.00    +0.008 C 
ATOM      4  C   LIG    1       -2.740  -4.075   0.000  0.00  0.00    +0.067 C 
ENDBRANCH   1   4
BRANCH   1   5
ATOM      5  O   LIG    1       -4.639  -6.338   0.000  0.00  0.00    -0.507 OA
ATOM      6  H   LIG    1       -5.559  -6.004   0.000  0.00  0.00    +0.292 HD
ENDBRANCH   1   5
BRANCH   2   7
ATOM      7  O   LIG    1       -6.798  -4.526   0.000  0.00  0.00    -0.501 OA
ATOM      8  H   LIG    1       -6.968  -3.562   0.000  0.00  0.00    +0.292 HD
ENDBRANCH   2   7
BRANCH   2   9
ATOM      9  C   LIG    1       -5.559  -3.049   0.000  0.00  0.00    +0.199 C 
ATOM     10  C   LIG    1       -6.309  -1.750   0.000  0.00  0.00    +0.265 C 
BRANCH  10  11
ATOM     11  O   LIG    1       -7.059  -0.451   0.000  0.00  0.00    -0.389 OA
ATOM     12 CL   LIG    1       -6.928   0.967   0.000  0.00  0.00    +0.134 Cl
ENDBRANCH  10  11
BRANCH   9  13
ATOM     13  O   LIG    1       -4.410  -2.085   0.000  0.00  0.00    -0.501 OA
ATOM     14  H   LIG    1       -5.010  -1.000   0.000  0.00  0.00    +0.292 HD
ENDBRANCH   9  13
ENDBRANCH   2   9
TORSDOF 6
REMARK  Name = molecules/VHFGEBVPHAGQPI-LXKZPTCJSA-N.pdb
REMARK                            x       y       z     vdW  Elec       q    Type
REMARK                         _______ _______ _______ _____ _____    ______ ____
ROOT
ATOM      1 CL   LIG    1        3.453  -1.348   0.000  0.00  0.00    -0.145 Cl
ATOM      2  H   LIG    1        3.000   0.000   0.000  0.00  0.00    +0.145 HD
ENDROOT
TORSDOF 0
REMARK  Name = molecules/VHFGEBVPHAGQPI-LXKZPTCJSA-N.pdb
REMARK                            x       y       z     vdW  Elec       q    Type
REMARK                         _______ _______ _______ _____ _____    ______ ____
ROOT
ATOM      1  C   LIG    1       12.363  -3.684   0.000  0.00  0.00    +0.089 C 
ENDROOT
BRANCH   1   3
ATOM      2  C   LIG    1       12.681  -1.106   0.000  0.00  0.00    +0.237 C 
ATOM      3  C   LIG    1       13.266  -2.487   0.000  0.00  0.00    +0.041 C 
BRANCH   2   4
ATOM      4  O   LIG    1       11.193  -0.922   0.000  0.00  0.00    -0.313 OA
BRANCH   4   6
ATOM      5  O   LIG    1        9.267  -1.021   0.000  0.00  0.00    +0.008 OA
ATOM      6  O   LIG    1       10.210  -0.708   0.000  0.00  0.00    +0.020 OA
ENDBRANCH   4   6
ENDBRANCH   2   4
ENDBRANCH   1   3
BRANCH   1   7
ATOM      7  N   LIG    1       13.698  -4.367   0.000  0.00  0.00    -0.192 NA
ATOM      8  H   LIG    1       13.293  -5.730   0.000  0.00  0.00    +0.155 HD
BRANCH   7   9
ATOM      9  O   LIG    1       14.288  -3.585   0.000  0.00  0.00    -0.314 OA
ATOM     10  H   LIG    1       15.166  -4.056   0.000  0.00  0.00    +0.236 HD
ENDBRANCH   7   9
ENDBRANCH   1   7
BRANCH   1  11
ATOM     11  C   LIG    1       10.874  -3.500   0.000  0.00  0.00    +0.035 C 
ATOM     12  C   LIG    1       10.289  -2.119   0.000  0.00  0.00    -0.002 C 
ENDBRANCH   1  11
TORSDOF 6
REMARK  Name = molecules/VHFGEBVPHAGQPI-LXKZPTCJSA-N.pdb
REMARK                            x       y       z     vdW  Elec       q    Type
REMARK                         _______ _______ _______ _____ _____    ______ ____
ROOT
ATOM      1  C   LIG    1       14.143  -0.770   0.000  0.00  0.00    +0.000 C 
ENDROOT
TORSDOF 0
REMARK  Name = molecules/VHFGEBVPHAGQPI-LXKZPTCJSA-N.pdb
REMARK                            x       y       z     vdW  Elec       q    Type
REMARK                         _______ _______ _______ _____ _____    ______ ____
ROOT
ATOM      1  C   LIG    1       11.923  -5.119   0.000  0.00  0.00    -0.000 C 
ENDROOT
TORSDOF 0
REMARK  Name = molecules/VHFGEBVPHAGQPI-LXKZPTCJSA-N.pdb
REMARK                            x       y       z     vdW  Elec       q    Type
REMARK                         _______ _______ _______ _____ _____    ______ ____
ROOT
ATOM      1  N   LIG    1        7.718   1.584   0.000  0.00  0.00    -0.093 NA
ATOM      2  C   LIG    1        6.848   2.806   0.000  0.00  0.00    +0.290 C 
ATOM      3  O   LIG    1        7.877   3.897   0.000  0.00  0.00    -0.198 OA
ENDROOT
TORSDOF 0
REMARK  Name = molecules/VHFGEBVPHAGQPI-LXKZPTCJSA-N.pdb
REMARK                            x       y       z     vdW  Elec       q    Type
REMARK                         _______ _______ _______ _____ _____    ______ ____
ROOT
ATOM      1  C   LIG    1        5.576   3.602   0.000  0.00  0.00    +0.130 C 
ATOM      2  N   LIG    1        4.097   3.850   0.000  0.00  0.00    -0.130 NA
ENDROOT
TORSDOF 0
REMARK  Name = molecules/VHFGEBVPHAGQPI-LXKZPTCJSA-N.pdb
REMARK                            x       y       z     vdW  Elec       q    Type
REMARK                         _______ _______ _______ _____ _____    ______ ____
ROOT
ATOM      1  C   LIG    1       11.149   4.133   0.000  0.00  0.00    -0.010 C 
ATOM      2  C   LIG    1       10.279   5.355   0.000  0.00  0.00    +0.032 C 
ATOM      3  C   LIG    1        8.915   5.979   0.000  0.00  0.00    +0.007 C 
ATOM      4  C   LIG    1        8.110   7.279   0.000  0.00  0.00    +0.167 C 
ATOM      5  O   LIG    1        9.065   8.436   0.000  0.00  0.00    -0.170 OA
ATOM      6  O   LIG    1       10.032   7.942   0.000  0.00  0.00    -0.334 OA
ATOM      7  C   LIG    1        6.631   7.528   0.000  0.00  0.00    +0.048 C 
ATOM      8  C   LIG    1        7.422   5.836   0.000  0.00  0.00    -0.014 C 
ATOM      9  C   LIG    1        6.200   4.966   0.000  0.00  0.00    +0.029 C 
ATOM     10  C   LIG    1       10.902   6.720   0.000  0.00  0.00    +0.174 C 
ATOM     11  C   LIG    1       12.396   6.862   0.000  0.00  0.00    +0.054 C 
ENDROOT
BRANCH   1  13
ATOM     12  N   LIG    1       10.668   1.276   0.000  0.00  0.00    -0.307 NA
ATOM     13  C   LIG    1       11.292   2.640   0.000  0.00  0.00    +0.106 C 
ATOM     14  H   LIG    1        9.498   0.528   0.000  0.00  0.00    +0.186 HD
ENDBRANCH   1  13
BRANCH   1  15
ATOM     15  C   LIG    1       12.642   4.276   0.000  0.00  0.00    +0.027 C 
ATOM     16  C   LIG    1       12.646   3.285   0.000  0.00  0.00    +0.005 C 
ENDBRANCH   1  15
TORSDOF 2
REMARK  Name = molecules/VHFGEBVPHAGQPI-LXKZPTCJSA-N.pdb
REMARK                            x       y       z     vdW  Elec       q    Type
REMARK                         _______ _______ _______ _____ _____    ______ ____
ROOT
ATOM      1  C   LIG    1       13.266   5.640   0.000  0.00  0.00    +0.279 C 
ATOM      2  O   LIG    1       12.765   4.780   0.000  0.00  0.00    -0.279 OA
ENDROOT
TORSDOF 0
REMARK  Name = molecules/VHFGEBVPHAGQPI-LXKZPTCJSA-N.pdb
REMARK                            x       y       z     vdW  Elec       q    Type
REMARK                         _______ _______ _______ _____ _____    ______ ____
ROOT
ATOM      1  O   HOH    1       14.759   5.783   0.000  0.00  0.00    -0.253 OA
ATOM      2  H   HOH    0       14.235   5.078   0.000  0.00  0.00    +0.253 HD
ENDROOT
TORSDOF 0
REMARK  Name = molecules/VHFGEBVPHAGQPI-LXKZPTCJSA-N.pdb
REMARK                            x       y       z     vdW  Elec       q    Type
REMARK                         _______ _______ _______ _____ _____    ______ ____
ROOT
ATOM      1  C   LIG    1        5.676   6.372   0.000  0.00  0.00    -0.000 C 
ENDROOT
TORSDOF 0
REMARK  Name = molecules/VHFGEBVPHAGQPI-LXKZPTCJSA-N.pdb
REMARK                            x       y       z     vdW  Elec       q    Type
REMARK                         _______ _______ _______ _____ _____    ______ ____
ROOT
ATOM      1  O   HOH    1        2.552   5.012   0.000  0.00  0.00    -0.410 OA
ATOM      2  H   HOH    0        2.272   5.910   0.000  0.00  0.00    +0.205 HD
ATOM      3  H   HOH    0        2.999   4.337   0.000  0.00  0.00    +0.205 HD
ENDROOT
TORSDOF 0
REMARK  Name = molecules/VHFGEBVPHAGQPI-LXKZPTCJSA-N.pdb
REMARK                            x       y       z     vdW  Elec       q    Type
REMARK                         _______ _______ _______ _____ _____    ______ ____
ROOT
ATOM      1  O   LIG    1        2.410   6.148   0.000  0.00  0.00    -0.217 OA
ATOM      2  C   LIG    1        1.461   7.171   0.000  0.00  0.00    +0.217 C 
ENDROOT
TORSDOF 0
REMARK  Name = molecules/VHFGEBVPHAGQPI-LXKZPTCJSA-N.pdb
REMARK                            x       y       z     vdW  Elec       q    Type
REMARK                         _______ _______ _______ _____ _____    ______ ____
ROOT
ATOM      1  C   LIG    1        2.881   7.654   0.000  0.00  0.00    +0.249 C 
ATOM      2  N   LIG    1        3.174   9.125   0.000  0.00  0.00    -0.096 NA
ENDROOT
BRANCH   1   3
ATOM      3  O   LIG    1        3.880   6.535   0.000  0.00  0.00    -0.365 OA
ATOM      4  H   LIG    1        4.053   5.350   0.000  0.00  0.00    +0.212 HD
ENDBRANCH   1   3
TORSDOF 1
REMARK  Name = molecules/VHFGEBVPHAGQPI-LXKZPTCJSA-N.pdb
REMARK                            x       y       z     vdW  Elec       q    Type
REMARK                         _______ _______ _______ _____ _____    ______ ____
ROOT
ATOM      1  O   HOH    1       -6.716   8.635   0.000  0.00  0.00    -0.410 OA
ATOM      2  H   HOH    0       -7.603   9.646   0.000  0.00  0.00    +0.205 HD
ATOM      3  H   HOH    0       -7.303   7.693   0.000  0.00  0.00    +0.205 HD
ENDROOT
TORSDOF 0
REMARK  Name = molecules/VHFGEBVPHAGQPI-LXKZPTCJSA-N.pdb
REMARK                            x       y       z     vdW  Elec       q    Type
REMARK                         _______ _______ _______ _____ _____    ______ ____
ROOT
ATOM      1  O   HOH    1       -1.990  -5.374   0.000  0.00  0.00    -0.253 OA
ATOM      2  H   HOH    0       -2.866  -6.136   0.000  0.00  0.00    +0.253 HD
ENDROOT
TORSDOF 0
REMARK  Name = molecules/VHFGEBVPHAGQPI-LXKZPTCJSA-N.pdb
REMARK                            x       y       z     vdW  Elec       q    Type
REMARK                         _______ _______ _______ _____ _____    ______ ____
ROOT
ATOM      1  C   LIG    1       -0.229 -11.734   0.000  0.00  0.00    -0.009 A 
ATOM      2  C   LIG    1        1.181 -12.247   0.000  0.00  0.00    +0.010 A 
ATOM      3  C   LIG    1        1.441 -13.725   0.000  0.00  0.00    +0.009 A 
ATOM      4  C   LIG    1        0.292 -14.689   0.000  0.00  0.00    -0.018 A 
ATOM      5  C   LIG    1       -1.118 -14.176   0.000  0.00  0.00    +0.009 A 
ATOM      6  C   LIG    1       -1.378 -12.698   0.000  0.00  0.00    +0.010 A 
ENDROOT
BRANCH   4   7
ATOM      7  C   LIG    1        0.552 -16.166   0.000  0.00  0.00    -0.018 A 
ATOM      8  C   LIG    1        1.962 -16.679   0.000  0.00  0.00    +0.010 A 
ATOM      9  C   LIG    1        2.222 -18.156   0.000  0.00  0.00    +0.020 A 
ATOM     10  C   LIG    1        1.073 -19.120   0.000  0.00  0.00    +0.041 A 
ATOM     11 CL   LIG    1        1.334 -20.598   0.000  0.00  0.00    -0.084 Cl
ATOM     12  C   LIG    1       -0.336 -18.607   0.000  0.00  0.00    +0.020 A 
ATOM     13  C   LIG    1       -0.597 -17.130   0.000  0.00  0.00    +0.010 A 
ENDBRANCH   4   7
BRANCH   1  15
ATOM     14  N   LIG    1       -0.750  -8.780   0.000  0.00  0.00    -0.376 N 
ATOM     15  C   LIG    1       -0.489 -10.257   0.000  0.00  0.00    +0.087 C 
ATOM     16  H   LIG    1       -1.653  -8.050   0.000  0.00  0.00    +0.160 HD
BRANCH  14  17
ATOM     17  C   LIG    1        0.399  -7.816   0.000  0.00  0.00    +0.119 C 
BRANCH  17  19
ATOM     18  C   LIG    1       -0.489  -5.374   0.000  0.00  0.00    +0.249 C 
ATOM     19  C   LIG    1       -0.750  -6.851   0.000  0.00  0.00    +0.049 C 
ATOM     20  O   LIG    1        0.920  -4.861   0.000  0.00  0.00    -0.297 OA
ENDBRANCH  17  19
ENDBRANCH  14  17
ENDBRANCH   1  15
TORSDOF 4
REMARK  Name = molecules/VHFGEBVPHAGQPI-LXKZPTCJSA-N.pdb
REMARK                            x       y       z     vdW  Elec       q    Type
REMARK                         _______ _______ _______ _____ _____    ______ ____
ROOT
ATOM      1  C   LIG    1        1.809  -7.303   0.000  0.00  0.00    +0.000 C 
ENDROOT
TORSDOF 0
REMARK  Name = molecules/VHFGEBVPHAGQPI-LXKZPTCJSA-N.pdb
REMARK                            x       y       z     vdW  Elec       q    Type
REMARK                         _______ _______ _______ _____ _____    ______ ____
ROOT
ATOM      1  O   HOH    1        3.309  -7.303   0.000  0.00  0.00    -0.253 OA
ATOM      2  H   HOH    0        3.479  -6.338   0.000  0.00  0.00    +0.253 HD
ENDROOT
TORSDOF 0
REMARK  Name = molecules/VHFGEBVPHAGQPI-LXKZPTCJSA-N.pdb
REMARK                            x       y       z     vdW  Elec       q    Type
REMARK                         _______ _______ _______ _____ _____    ______ ____
ROOT
ATOM      1  C   LIG    1        1.149  -9.115   0.000  0.00  0.00    -0.000 C 
ENDROOT
TORSDOF 0
REMARK  Name = molecules/VHFGEBVPHAGQPI-LXKZPTCJSA-N.pdb
REMARK                            x       y       z     vdW  Elec       q    Type
REMARK                         _______ _______ _______ _____ _____    ______ ____
ROOT
ATOM      1  O   HOH    1       13.769   2.290   0.000  0.00  0.00    -0.253 OA
ATOM      2  H   HOH    0       13.655   3.169   0.000  0.00  0.00    +0.253 HD
ENDROOT
TORSDOF 0
REMARK  Name = molecules/VHFGEBVPHAGQPI-LXKZPTCJSA-N.pdb
REMARK                            x       y       z     vdW  Elec       q    Type
REMARK                         _______ _______ _______ _____ _____    ______ ____
ROOT
ATOM      1  H   UNK    1       15.605  -0.434   0.000  0.00  0.00    +0.000 HD
ENDROOT
TORSDOF 0
REMARK  Name = molecules/VHFGEBVPHAGQPI-LXKZPTCJSA-N.pdb
REMARK                            x       y       z     vdW  Elec       q    Type
REMARK                         _______ _______ _______ _____ _____    ______ ____
ROOT
ATOM      1  H   UNK    1       13.807   0.692   0.000  0.00  0.00    +0.000 HD
ENDROOT
TORSDOF 0
REMARK  Name = molecules/VHFGEBVPHAGQPI-LXKZPTCJSA-N.pdb
REMARK                            x       y       z     vdW  Elec       q    Type
REMARK                         _______ _______ _______ _____ _____    ______ ____
ROOT
ATOM      1  H   UNK    1       15.698  -3.073   0.000  0.00  0.00    +0.000 HD
ENDROOT
TORSDOF 0
REMARK  Name = molecules/VHFGEBVPHAGQPI-LXKZPTCJSA-N.pdb
REMARK                            x       y       z     vdW  Elec       q    Type
REMARK                         _______ _______ _______ _____ _____    ______ ____
ROOT
ATOM      1  H   UNK    1       13.958  -5.844   0.000  0.00  0.00    +0.000 HD
ENDROOT
TORSDOF 0
REMARK  Name = molecules/VHFGEBVPHAGQPI-LXKZPTCJSA-N.pdb
REMARK                            x       y       z     vdW  Elec       q    Type
REMARK                         _______ _______ _______ _____ _____    ______ ____
ROOT
ATOM      1  H   UNK    1        9.086   2.199   0.000  0.00  0.00    +0.000 HD
ENDROOT
TORSDOF 0
REMARK  Name = molecules/VHFGEBVPHAGQPI-LXKZPTCJSA-N.pdb
REMARK                            x       y       z     vdW  Elec       q    Type
REMARK                         _______ _______ _______ _____ _____    ______ ____
ROOT
ATOM      1  H   UNK    1       11.933   0.469   0.000  0.00  0.00    +0.000 HD
ENDROOT
TORSDOF 0
REMARK  Name = molecules/VHFGEBVPHAGQPI-LXKZPTCJSA-N.pdb
REMARK                            x       y       z     vdW  Elec       q    Type
REMARK                         _______ _______ _______ _____ _____    ______ ____
ROOT
ATOM      1  H   UNK    1       15.382   7.147   0.000  0.00  0.00    +0.000 HD
ENDROOT
TORSDOF 0
REMARK  Name = molecules/VHFGEBVPHAGQPI-LXKZPTCJSA-N.pdb
REMARK                            x       y       z     vdW  Elec       q    Type
REMARK                         _______ _______ _______ _____ _____    ______ ____
ROOT
ATOM      1  H   UNK    1       10.656   9.306   0.000  0.00  0.00    +0.000 HD
ENDROOT
TORSDOF 0
REMARK  Name = molecules/VHFGEBVPHAGQPI-LXKZPTCJSA-N.pdb
REMARK                            x       y       z     vdW  Elec       q    Type
REMARK                         _______ _______ _______ _____ _____    ______ ____
ROOT
ATOM      1  H   UNK    1        4.177   6.438   0.000  0.00  0.00    +0.000 HD
ENDROOT
TORSDOF 0
REMARK  Name = molecules/VHFGEBVPHAGQPI-LXKZPTCJSA-N.pdb
REMARK                            x       y       z     vdW  Elec       q    Type
REMARK                         _______ _______ _______ _____ _____    ______ ____
ROOT
ATOM      1  H   UNK    1        8.541   9.841   0.000  0.00  0.00    +0.000 HD
ENDROOT
TORSDOF 0
REMARK  Name = molecules/VHFGEBVPHAGQPI-LXKZPTCJSA-N.pdb
REMARK                            x       y       z     vdW  Elec       q    Type
REMARK                         _______ _______ _______ _____ _____    ______ ____
ROOT
ATOM      1  H   UNK    1       -0.917   8.802   0.000  0.00  0.00    +0.000 HD
ENDROOT
TORSDOF 0
REMARK  Name = molecules/VHFGEBVPHAGQPI-LXKZPTCJSA-N.pdb
REMARK                            x       y       z     vdW  Elec       q    Type
REMARK                         _______ _______ _______ _____ _____    ______ ____
ROOT
ATOM      1  H   UNK    1        0.979   8.592   0.000  0.00  0.00    +0.000 HD
ENDROOT
TORSDOF 0
REMARK  Name = molecules/VHFGEBVPHAGQPI-LXKZPTCJSA-N.pdb
REMARK                            x       y       z     vdW  Elec       q    Type
REMARK                         _______ _______ _______ _____ _____    ______ ____
ROOT
ATOM      1  H   UNK    1        4.594   9.607   0.000  0.00  0.00    +0.000 HD
ENDROOT
TORSDOF 0
REMARK  Name = molecules/VHFGEBVPHAGQPI-LXKZPTCJSA-N.pdb
REMARK                            x       y       z     vdW  Elec       q    Type
REMARK                         _______ _______ _______ _____ _____    ______ ____
ROOT
ATOM      1  H   UNK    1        2.046  10.114   0.000  0.00  0.00    +0.000 HD
ENDROOT
TORSDOF 0
REMARK  Name = molecules/VHFGEBVPHAGQPI-LXKZPTCJSA-N.pdb
REMARK                            x       y       z     vdW  Elec       q    Type
REMARK                         _______ _______ _______ _____ _____    ______ ____
ROOT
ATOM      1  H   UNK    1       -2.870   9.288   0.000  0.00  0.00    +0.000 HD
ENDROOT
TORSDOF 0
REMARK  Name = molecules/VHFGEBVPHAGQPI-LXKZPTCJSA-N.pdb
REMARK                            x       y       z     vdW  Elec       q    Type
REMARK                         _______ _______ _______ _____ _____    ______ ____
ROOT
ATOM      1  H   UNK    1       -8.097  13.584   0.000  0.00  0.00    +0.000 HD
ENDROOT
TORSDOF 0
REMARK  Name = molecules/VHFGEBVPHAGQPI-LXKZPTCJSA-N.pdb
REMARK                            x       y       z     vdW  Elec       q    Type
REMARK                         _______ _______ _______ _____ _____    ______ ____
ROOT
ATOM      1  H   UNK    1       -8.779  11.576   0.000  0.00  0.00    +0.000 HD
ENDROOT
TORSDOF 0
REMARK  Name = molecules/VHFGEBVPHAGQPI-LXKZPTCJSA-N.pdb
REMARK                            x       y       z     vdW  Elec       q    Type
REMARK                         _______ _______ _______ _____ _____    ______ ____
ROOT
ATOM      1  H   UNK    1       -6.574  13.887   0.000  0.00  0.00    +0.000 HD
ENDROOT
TORSDOF 0
REMARK  Name = molecules/VHFGEBVPHAGQPI-LXKZPTCJSA-N.pdb
REMARK                            x       y       z     vdW  Elec       q    Type
REMARK                         _______ _______ _______ _____ _____    ______ ____
ROOT
ATOM      1  H   UNK    1       -8.559  -0.451   0.000  0.00  0.00    +0.000 HD
ENDROOT
TORSDOF 0
REMARK  Name = molecules/VHFGEBVPHAGQPI-LXKZPTCJSA-N.pdb
REMARK                            x       y       z     vdW  Elec       q    Type
REMARK                         _______ _______ _______ _____ _____    ______ ____
ROOT
ATOM      1  H   UNK    1       -3.889  -7.638   0.000  0.00  0.00    +0.000 HD
ENDROOT
TORSDOF 0
REMARK  Name = molecules/VHFGEBVPHAGQPI-LXKZPTCJSA-N.pdb
REMARK                            x       y       z     vdW  Elec       q    Type
REMARK                         _______ _______ _______ _____ _____    ______ ____
ROOT
ATOM      1  H   UNK    1       -7.548  -5.825   0.000  0.00  0.00    +0.000 HD
ENDROOT
TORSDOF 0
REMARK  Name = molecules/VHFGEBVPHAGQPI-LXKZPTCJSA-N.pdb
REMARK                            x       y       z     vdW  Elec       q    Type
REMARK                         _______ _______ _______ _____ _____    ______ ____
ROOT
ATOM      1  H   UNK    1        4.017  -5.429   0.000  0.00  0.00    +0.000 HD
ENDROOT
TORSDOF 0
REMARK  Name = molecules/VHFGEBVPHAGQPI-LXKZPTCJSA-N.pdb
REMARK                            x       y       z     vdW  Elec       q    Type
REMARK                         _______ _______ _______ _____ _____    ______ ____
ROOT
ATOM      1  H   UNK    1        4.059  -8.602   0.000  0.00  0.00    +0.000 HD
ENDROOT
TORSDOF 0
REMARK  Name = molecules/VHFGEBVPHAGQPI-LXKZPTCJSA-N.pdb
REMARK                            x       y       z     vdW  Elec       q    Type
REMARK                         _______ _______ _______ _____ _____    ______ ____
ROOT
ATOM      1  H   UNK    1        1.899 -10.414   0.000  0.00  0.00    +0.000 HD
ENDROOT
TORSDOF 0
REMARK  Name = molecules/VHFGEBVPHAGQPI-LXKZPTCJSA-N.pdb
REMARK                            x       y       z     vdW  Elec       q    Type
REMARK                         _______ _______ _______ _____ _____    ______ ____
ROOT
ATOM      1  H   UNK    1        0.070 -10.157   0.000  0.00  0.00    +0.000 HD
ENDROOT
TORSDOF 0
REMARK  Name = molecules/VHFGEBVPHAGQPI-LXKZPTCJSA-N.pdb
REMARK                            x       y       z     vdW  Elec       q    Type
REMARK                         _______ _______ _______ _____ _____    ______ ____
ROOT
ATOM      1  H   UNK    1       -2.212  -8.443   0.000  0.00  0.00    +0.000 HD
ENDROOT
TORSDOF 0
