REMARK  Name = molecules/VHVPQPYKVGDNFY-DKYCYSLVSA-N.pdb
REMARK                            x       y       z     vdW  Elec       q    Type
REMARK                         _______ _______ _______ _____ _____    ______ ____
ROOT
ATOM      1  C   LIG    1       -3.408   1.494  -0.821  0.00  0.00    +0.121 A 
ATOM      2  C   LIG    1       -2.957   1.084   0.415  0.00  0.00    +0.047 A 
ATOM      3  C   LIG    1       -1.920   0.158   0.557  0.00  0.00    +0.027 A 
ATOM      4  C   LIG    1       -1.287  -0.399  -0.511  0.00  0.00    +0.030 A 
ATOM      5  C   LIG    1       -1.725   0.000  -1.768  0.00  0.00    +0.027 A 
ATOM      6  C   LIG    1       -2.732   0.898  -1.924  0.00  0.00    +0.047 A 
ENDROOT
BRANCH   4   7
ATOM      7  N   LIG    1       -0.226  -1.335  -0.460  0.00  0.00    -0.327 N 
ATOM      8  C   LIG    1        0.107  -2.047   0.756  0.00  0.00    +0.124 C 
ATOM      9  C   LIG    1        1.499  -1.635   1.122  0.00  0.00    +0.124 C 
ATOM     10  N   LIG    1        2.356  -1.799  -0.044  0.00  0.00    -0.327 N 
ATOM     11  C   LIG    1        1.771  -2.459  -1.184  0.00  0.00    +0.124 C 
ATOM     12  C   LIG    1        0.576  -1.637  -1.643  0.00  0.00    +0.124 C 
BRANCH  10  13
ATOM     13  C   LIG    1        3.709  -1.323  -0.003  0.00  0.00    +0.030 A 
ATOM     14  C   LIG    1        4.144  -0.565   1.082  0.00  0.00    +0.025 A 
ATOM     15  C   LIG    1        5.436  -0.097   1.173  0.00  0.00    +0.028 A 
ATOM     16  C   LIG    1        6.364  -0.365   0.180  0.00  0.00    +0.053 A 
ATOM     17  C   LIG    1        5.929  -1.115  -0.890  0.00  0.00    +0.028 A 
ATOM     18  C   LIG    1        4.609  -1.593  -0.985  0.00  0.00    +0.025 A 
BRANCH  16  19
ATOM     19  N   LIG    1        7.692   0.126   0.305  0.00  0.00    -0.250 N 
ATOM     20  C   LIG    1        8.291   0.420   1.496  0.00  0.00    +0.230 A 
ATOM     21  N   LIG    1        9.537   0.857   1.250  0.00  0.00    -0.157 NA
ATOM     22  N   LIG    1        9.763   0.856  -0.050  0.00  0.00    -0.210 N 
ATOM     23  C   LIG    1        8.626   0.406  -0.617  0.00  0.00    +0.351 A 
ATOM     24  O   LIG    1        8.457   0.266  -1.849  0.00  0.00    -0.244 OA
BRANCH  22  25
ATOM     25  C   LIG    1       10.998   1.261  -0.723  0.00  0.00    +0.109 C 
ATOM     26  C   LIG    1       11.228   0.384  -1.907  0.00  0.00    +0.033 C 
BRANCH  25  27
ATOM     27  C   LIG    1       12.158   1.263   0.249  0.00  0.00    +0.023 C 
ATOM     28  C   LIG    1       12.390  -0.095   0.849  0.00  0.00    +0.006 C 
ENDBRANCH  25  27
ENDBRANCH  22  25
ENDBRANCH  16  19
ENDBRANCH  10  13
ENDBRANCH   4   7
BRANCH   1  29
ATOM     29  O   LIG    1       -4.381   2.363  -1.038  0.00  0.00    -0.489 OA
BRANCH  29  30
ATOM     30  C   LIG    1       -5.284   3.153  -0.509  0.00  0.00    +0.263 C 
BRANCH  30  34
ATOM     31  C   LIG    1       -7.145   0.531   0.473  0.00  0.00    +0.219 C 
ATOM     32  O   LIG    1       -6.047   0.744   1.406  0.00  0.00    -0.341 OA
ATOM     33  C   LIG    1       -6.101   2.115   1.681  0.00  0.00    +0.198 C 
ATOM     34  C   LIG    1       -6.404   2.654   0.336  0.00  0.00    +0.185 C 
ATOM     35  O   LIG    1       -7.182   1.678  -0.272  0.00  0.00    -0.334 OA
BRANCH  31  36
ATOM     36  C   LIG    1       -8.363   0.364   1.275  0.00  0.00    +0.031 A 
ATOM     37  C   LIG    1       -8.255   0.108   2.645  0.00  0.00    +0.012 A 
ATOM     38  C   LIG    1       -9.339  -0.140   3.454  0.00  0.00    +0.020 A 
ATOM     39  C   LIG    1      -10.595  -0.137   2.884  0.00  0.00    +0.042 A 
ATOM     40 CL   LIG    1      -11.996  -0.447   3.875  0.00  0.00    -0.083 Cl
ATOM     41  C   LIG    1      -10.759   0.109   1.546  0.00  0.00    +0.040 A 
ATOM     42  C   LIG    1       -9.631   0.355   0.774  0.00  0.00    +0.051 A 
ATOM     43 CL   LIG    1       -9.925   0.755  -0.904  0.00  0.00    -0.083 Cl
ENDBRANCH  31  36
BRANCH  31  44
ATOM     44  C   LIG    1       -6.681  -0.641  -0.314  0.00  0.00    +0.215 C 
BRANCH  44  45
ATOM     45  N   LIG    1       -7.427  -1.056  -1.454  0.00  0.00    -0.246 N 
ATOM     46  N   LIG    1       -8.351  -2.014  -1.445  0.00  0.00    -0.158 NA
ATOM     47  C   LIG    1       -8.822  -2.192  -2.677  0.00  0.00    +0.244 A 
ATOM     48  N   LIG    1       -8.169  -1.320  -3.456  0.00  0.00    -0.223 NA
ATOM     49  C   LIG    1       -7.313  -0.615  -2.734  0.00  0.00    +0.219 A 
ENDBRANCH  44  45
ENDBRANCH  31  44
ENDBRANCH  30  34
ENDBRANCH  29  30
ENDBRANCH   1  29
TORSDOF 11
