REMARK  Name = molecules/VHXNKPBCCMUMSW-FQEVSTJZSA-N.pdb
REMARK                            x       y       z     vdW  Elec       q    Type
REMARK                         _______ _______ _______ _____ _____    ______ ____
ROOT
ATOM      1  O   LIG    1       -1.374   3.696  -0.906  0.00  0.00    -0.267 OA
ATOM      2  C   LIG    1       -1.337   2.462  -0.680  0.00  0.00    +0.259 A 
ATOM      3  C   LIG    1       -2.487   1.734  -0.511  0.00  0.00    +0.061 A 
ATOM      4  C   LIG    1       -2.473   0.378  -0.262  0.00  0.00    +0.008 A 
ATOM      5  C   LIG    1       -3.740  -0.323  -0.097  0.00  0.00    +0.188 C 
ATOM      6  C   LIG    1       -4.675   0.556   0.625  0.00  0.00    +0.344 C 
ATOM      7  O   LIG    1       -5.348   0.253   1.635  0.00  0.00    -0.247 OA
ATOM      8  O   LIG    1       -4.813   1.853   0.122  0.00  0.00    -0.457 OA
ATOM      9  C   LIG    1       -1.236  -0.227  -0.189  0.00  0.00    +0.035 A 
ATOM     10  C   LIG    1       -0.097   0.530  -0.363  0.00  0.00    +0.071 A 
ATOM     11  C   LIG    1        1.288   0.113  -0.333  0.00  0.00    +0.093 A 
ATOM     12  N   LIG    1        1.861  -1.087  -0.133  0.00  0.00    -0.245 NA
ATOM     13  C   LIG    1        3.180  -1.299  -0.140  0.00  0.00    +0.074 A 
ATOM     14  C   LIG    1        3.696  -2.554   0.061  0.00  0.00    +0.028 A 
ATOM     15  C   LIG    1        5.055  -2.748   0.039  0.00  0.00    +0.004 A 
ATOM     16  C   LIG    1        5.908  -1.707  -0.180  0.00  0.00    +0.033 A 
ATOM     17  C   LIG    1        5.383  -0.422  -0.386  0.00  0.00    +0.135 A 
ATOM     18  C   LIG    1        4.025  -0.210  -0.368  0.00  0.00    +0.031 A 
ATOM     19  C   LIG    1        3.465   1.024  -0.575  0.00  0.00    +0.019 A 
ATOM     20  C   LIG    1        2.086   1.199  -0.559  0.00  0.00    +0.000 A 
ATOM     21  C   LIG    1        1.204   2.371  -0.742  0.00  0.00    +0.162 C 
ATOM     22  C   LIG    1       -3.778   2.480  -0.610  0.00  0.00    +0.273 C 
ATOM     23  N   LIG    1       -0.122   1.844  -0.604  0.00  0.00    -0.302 N 
ENDROOT
BRANCH  17  24
ATOM     24  N   LIG    1        6.286   0.624  -0.612  0.00  0.00    +0.057 N 
ATOM     25  O   LIG    1        6.101   1.916  -0.291  0.00  0.00    -0.126 OA
ATOM     26  O   LIG    1        7.385   0.339  -1.176  0.00  0.00    -0.126 OA
ENDBRANCH  17  24
BRANCH   5  27
ATOM     27  C   LIG    1       -3.622  -1.672   0.544  0.00  0.00    +0.048 C 
ATOM     28  C   LIG    1       -5.004  -2.287   0.652  0.00  0.00    +0.007 C 
ENDBRANCH   5  27
BRANCH   5  29
ATOM     29  O   LIG    1       -4.288  -0.522  -1.383  0.00  0.00    -0.373 OA
ATOM     30  H   LIG    1       -3.548  -0.667  -2.004  0.00  0.00    +0.211 HD
ENDBRANCH   5  29
TORSDOF 3
