REMARK  Name = molecules/VILCJCGEZXAXTO-UHFFFAOYSA-N.pdb
REMARK                            x       y       z     vdW  Elec       q    Type
REMARK                         _______ _______ _______ _____ _____    ______ ____
ROOT
ATOM      1  C   LIG    1       -0.615  -0.773   0.491  0.00  0.00    +0.096 C 
ENDROOT
BRANCH   1   2
ATOM      2  N   LIG    1       -1.929  -1.320   0.153  0.00  0.00    -0.314 NA
ATOM      3  H   LIG    1       -1.982  -1.738  -0.787  0.00  0.00    +0.122 HD
BRANCH   2   4
ATOM      4  C   LIG    1       -2.893  -0.277   0.397  0.00  0.00    +0.096 C 
BRANCH   4   5
ATOM      5  C   LIG    1       -2.837   0.858  -0.575  0.00  0.00    +0.092 C 
BRANCH   5   6
ATOM      6  N   LIG    1       -3.841   1.837  -0.210  0.00  0.00    -0.329 NA
ATOM      7  H   LIG    1       -4.363   1.482   0.621  0.00  0.00    +0.118 HD
ATOM      8  H   LIG    1       -3.322   2.709   0.092  0.00  0.00    +0.118 HD
ENDBRANCH   5   6
ENDBRANCH   4   5
ENDBRANCH   2   4
ENDBRANCH   1   2
BRANCH   1   9
ATOM      9  C   LIG    1        0.502  -1.770   0.216  0.00  0.00    +0.096 C 
BRANCH   9  10
ATOM     10  N   LIG    1        1.739  -1.220   0.609  0.00  0.00    -0.314 NA
ATOM     11  H   LIG    1        2.486  -1.879   0.839  0.00  0.00    +0.122 HD
BRANCH  10  12
ATOM     12  C   LIG    1        2.143  -0.124  -0.214  0.00  0.00    +0.096 C 
BRANCH  12  13
ATOM     13  C   LIG    1        3.526   0.388   0.158  0.00  0.00    +0.092 C 
BRANCH  13  14
ATOM     14  N   LIG    1        3.986   1.490  -0.603  0.00  0.00    -0.329 NA
ATOM     15  H   LIG    1        3.289   2.223  -0.847  0.00  0.00    +0.118 HD
ATOM     16  H   LIG    1        4.634   1.232  -1.367  0.00  0.00    +0.118 HD
ENDBRANCH  13  14
ENDBRANCH  12  13
ENDBRANCH  10  12
ENDBRANCH   9  10
ENDBRANCH   1   9
TORSDOF 9
