REMARK  Name = molecules/VIROVYVQCGLCII-UHFFFAOYSA-N.pdb
REMARK                            x       y       z     vdW  Elec       q    Type
REMARK                         _______ _______ _______ _____ _____    ______ ____
ROOT
ATOM      1  C   LIG    1       -1.059  -0.250  -0.064  0.00  0.00    +0.123 C 
ATOM      2  C   LIG    1       -1.428  -1.106   1.077  0.00  0.00    +0.235 C 
ATOM      3  O   LIG    1       -0.582  -1.410   1.928  0.00  0.00    -0.274 OA
ATOM      4  N   LIG    1       -2.743  -1.577   1.198  0.00  0.00    -0.239 N 
ATOM      5  H   LIG    1       -3.167  -1.901   2.104  0.00  0.00    +0.159 HD
ATOM      6  C   LIG    1       -3.582  -1.636   0.062  0.00  0.00    +0.312 C 
ATOM      7  O   LIG    1       -4.788  -2.067   0.164  0.00  0.00    -0.252 OA
ATOM      8  N   LIG    1       -3.083  -1.217  -1.193  0.00  0.00    -0.239 N 
ATOM      9  H   LIG    1       -3.728  -1.270  -2.033  0.00  0.00    +0.159 HD
ATOM     10  C   LIG    1       -1.757  -0.745  -1.301  0.00  0.00    +0.235 C 
ATOM     11  O   LIG    1       -1.155  -0.725  -2.379  0.00  0.00    -0.274 OA
ENDROOT
BRANCH   1  12
ATOM     12  C   LIG    1       -1.667   1.116   0.201  0.00  0.00    +0.022 C 
ATOM     13  C   LIG    1       -1.547   2.052  -0.947  0.00  0.00    +0.005 C 
ENDBRANCH   1  12
BRANCH   1  14
ATOM     14  C   LIG    1        0.392  -0.192  -0.374  0.00  0.00    +0.026 C 
BRANCH  14  15
ATOM     15  C   LIG    1        1.297   0.386   0.647  0.00  0.00    +0.004 C 
BRANCH  15  16
ATOM     16  C   LIG    1        2.714   0.317   0.056  0.00  0.00    -0.017 C 
ATOM     17  C   LIG    1        3.705   1.046   0.893  0.00  0.00    +0.007 C 
ATOM     18  C   LIG    1        3.073  -1.111  -0.232  0.00  0.00    +0.007 C 
ENDBRANCH  15  16
ENDBRANCH  14  15
ENDBRANCH   1  14
TORSDOF 4
