REMARK  Name = molecules/VIZXMHCBZLGUET-UHFFFAOYSA-N.pdb
REMARK                            x       y       z     vdW  Elec       q    Type
REMARK                         _______ _______ _______ _____ _____    ______ ____
ROOT
ATOM      1  C   LIG    1       -2.646   0.288   0.001  0.00  0.00    +0.190 C 
ATOM      2  C   LIG    1       -1.369  -0.200  -0.110  0.00  0.00    -0.015 C 
ATOM      3  C   LIG    1       -1.059  -1.542  -0.049  0.00  0.00    +0.023 C 
ATOM      4  C   LIG    1        0.154  -2.042   0.443  0.00  0.00    -0.015 C 
ATOM      5  C   LIG    1        1.377  -1.383   0.545  0.00  0.00    +0.000 C 
ATOM      6  C   LIG    1        1.760  -0.154   0.035  0.00  0.00    -0.044 C 
ATOM      7  C   LIG    1        0.932   0.847  -0.431  0.00  0.00    +0.012 C 
ATOM      8  C   LIG    1       -2.089  -2.450  -0.560  0.00  0.00    +0.021 C 
ATOM      9  C   LIG    1       -0.423   0.938  -0.297  0.00  0.00    -0.019 C 
ATOM     10  C   LIG    1       -1.209   2.050  -0.286  0.00  0.00    -0.045 C 
ATOM     11  C   LIG    1       -0.641   3.422  -0.447  0.00  0.00    +0.044 C 
ATOM     12  C   LIG    1       -2.501   1.681  -0.114  0.00  0.00    +0.016 C 
ENDROOT
BRANCH   1  13
ATOM     13  S   LIG    1       -4.045  -0.666   0.232  0.00  0.00    +0.096 S 
ATOM     14  O   LIG    1       -4.208  -1.288   1.589  0.00  0.00    -0.146 OA
ATOM     15  O   LIG    1       -4.662  -1.373  -0.903  0.00  0.00    -0.146 OA
BRANCH  13  16
ATOM     16  O   LIG    1       -5.305   0.522   0.404  0.00  0.00    -0.253 OA
ATOM     17  H   LIG    1       -4.968   1.175   1.095  0.00  0.00    +0.245 HD
ENDBRANCH  13  16
ENDBRANCH   1  13
BRANCH   6  18
ATOM     18  C   LIG    1        3.186   0.173  -0.042  0.00  0.00    +0.013 C 
ATOM     19  C   LIG    1        3.773   0.205   1.364  0.00  0.00    +0.012 C 
ATOM     20  C   LIG    1        3.982  -0.813  -0.856  0.00  0.00    +0.012 C 
ENDBRANCH   6  18
TORSDOF 3
