REMARK  Name = molecules/VJJPUSNTGOMMGY-MRVIYFEKSA-N.pdb
REMARK                            x       y       z     vdW  Elec       q    Type
REMARK                         _______ _______ _______ _____ _____    ______ ____
ROOT
ATOM      1  O   LIG    1       -2.421  -1.518  -3.372  0.00  0.00    -0.250 OA
ATOM      2  C   LIG    1       -1.397  -1.120  -2.769  0.00  0.00    +0.312 C 
ATOM      3  C   LIG    1       -1.082  -1.076  -1.323  0.00  0.00    +0.118 C 
ATOM      4  C   LIG    1       -2.211  -1.179  -0.403  0.00  0.00    +0.064 C 
ATOM      5  C   LIG    1       -1.798  -0.622   0.929  0.00  0.00    -0.030 A 
ATOM      6  C   LIG    1       -2.640  -0.813   2.030  0.00  0.00    +0.054 A 
ATOM      7  C   LIG    1       -2.321  -0.330   3.285  0.00  0.00    +0.167 A 
ATOM      8  O   LIG    1       -2.958  -0.375   4.525  0.00  0.00    -0.453 OA
ATOM      9  C   LIG    1       -2.420   0.611   5.380  0.00  0.00    +0.466 C 
ATOM     10  O   LIG    1       -1.099   0.719   4.830  0.00  0.00    -0.453 OA
ATOM     11  C   LIG    1       -1.149   0.362   3.486  0.00  0.00    +0.167 A 
ATOM     12  C   LIG    1       -0.327   0.545   2.399  0.00  0.00    +0.056 A 
ATOM     13  C   LIG    1       -0.628   0.067   1.123  0.00  0.00    -0.011 A 
ATOM     14  C   LIG    1        0.370   0.345   0.029  0.00  0.00    +0.159 C 
ATOM     15  C   LIG    1       -0.299   0.216  -1.284  0.00  0.00    +0.075 C 
ATOM     16  C   LIG    1        0.666  -0.096  -2.427  0.00  0.00    +0.239 C 
ATOM     17  O   LIG    1       -0.260  -0.596  -3.409  0.00  0.00    -0.464 OA
ENDROOT
BRANCH   4  18
ATOM     18  C   LIG    1       -3.507  -0.640  -0.829  0.00  0.00    -0.032 A 
ATOM     19  C   LIG    1       -4.553  -1.528  -1.045  0.00  0.00    +0.054 A 
ATOM     20  C   LIG    1       -5.798  -1.104  -1.461  0.00  0.00    +0.165 A 
ATOM     21  C   LIG    1       -6.055   0.236  -1.680  0.00  0.00    +0.201 A 
ATOM     22  C   LIG    1       -5.031   1.127  -1.470  0.00  0.00    +0.165 A 
ATOM     23  C   LIG    1       -3.793   0.682  -1.054  0.00  0.00    +0.054 A 
BRANCH  22  24
ATOM     24  O   LIG    1       -5.279   2.476  -1.686  0.00  0.00    -0.491 OA
ATOM     25  C   LIG    1       -4.251   3.451  -1.488  0.00  0.00    +0.277 C 
ENDBRANCH  22  24
BRANCH  21  26
ATOM     26  O   LIG    1       -7.327   0.665  -2.104  0.00  0.00    -0.501 OA
ATOM     27  H   LIG    1       -8.044  -0.033  -2.243  0.00  0.00    +0.292 HD
ENDBRANCH  21  26
BRANCH  20  28
ATOM     28  O   LIG    1       -6.853  -1.971  -1.683  0.00  0.00    -0.491 OA
ATOM     29  C   LIG    1       -6.776  -3.375  -1.506  0.00  0.00    +0.277 C 
ENDBRANCH  20  28
ENDBRANCH   4  18
BRANCH  14  30
ATOM     30  O   LIG    1        1.476  -0.453   0.140  0.00  0.00    -0.340 OA
BRANCH  30  31
ATOM     31  C   LIG    1        2.603   0.315   0.404  0.00  0.00    +0.282 C 
ATOM     32  C   LIG    1        3.235  -0.112   1.677  0.00  0.00    +0.201 C 
ATOM     33  C   LIG    1        4.549  -0.773   1.606  0.00  0.00    +0.179 C 
ATOM     34  C   LIG    1        5.302  -0.642   0.332  0.00  0.00    +0.183 C 
ATOM     35  O   LIG    1        6.645  -0.543   0.577  0.00  0.00    -0.343 OA
ATOM     36  C   LIG    1        7.352   0.096  -0.434  0.00  0.00    +0.248 C 
ATOM     37  C   LIG    1        7.643   1.495   0.004  0.00  0.00    +0.070 C 
ATOM     38  O   LIG    1        6.719   0.025  -1.669  0.00  0.00    -0.349 OA
ATOM     39  C   LIG    1        5.514   0.696  -1.697  0.00  0.00    +0.197 C 
ATOM     40  C   LIG    1        4.745   0.571  -0.412  0.00  0.00    +0.178 C 
ATOM     41  O   LIG    1        3.426   0.227  -0.709  0.00  0.00    -0.340 OA
BRANCH  32  42
ATOM     42  O   LIG    1        3.344   1.013   2.520  0.00  0.00    -0.384 OA
ATOM     43  H   LIG    1        3.181   1.842   2.005  0.00  0.00    +0.210 HD
ENDBRANCH  32  42
BRANCH  33  44
ATOM     44  O   LIG    1        4.425  -2.159   1.868  0.00  0.00    -0.386 OA
ATOM     45  H   LIG    1        5.303  -2.609   1.756  0.00  0.00    +0.210 HD
ENDBRANCH  33  44
ENDBRANCH  30  31
ENDBRANCH  14  30
TORSDOF 8
