REMARK  Name = molecules/VJTXQHYNRDGLON-FQEVSTJZSA-N.pdb
REMARK                            x       y       z     vdW  Elec       q    Type
REMARK                         _______ _______ _______ _____ _____    ______ ____
ROOT
ATOM      1  C   LIG    1       -2.421   0.307   0.166  0.00  0.00    +0.021 C 
ATOM      2  C   LIG    1       -1.427   0.658   0.785  0.00  0.00    +0.015 C 
ATOM      3  C   LIG    1       -2.569  -0.122  -1.260  0.00  0.00    +0.062 C 
ENDROOT
BRANCH   1   4
ATOM      4  N   LIG    1       -3.740   0.289   0.843  0.00  0.00    -0.273 N 
ATOM      5  C   LIG    1       -3.804   0.811   2.144  0.00  0.00    +0.332 C 
ATOM      6  O   LIG    1       -4.871   0.750   2.838  0.00  0.00    -0.279 OA
BRANCH   4   7
ATOM      7  C   LIG    1       -4.869  -0.302   0.206  0.00  0.00    +0.153 C 
BRANCH   7  10
ATOM      8  N   LIG    1       -6.236   2.813  -1.287  0.00  0.00    -0.240 NA
ATOM      9  C   LIG    1       -5.417   1.998  -0.592  0.00  0.00    +0.121 A 
ATOM     10  C   LIG    1       -5.698   0.659  -0.538  0.00  0.00    +0.028 A 
ATOM     11  C   LIG    1       -6.815   0.213  -1.206  0.00  0.00    +0.124 A 
ATOM     12  N   LIG    1       -7.614   1.073  -1.897  0.00  0.00    -0.218 NA
ATOM     13  C   LIG    1       -7.328   2.385  -1.942  0.00  0.00    +0.128 A 
ATOM     14  C   LIG    1       -8.218   3.291  -2.698  0.00  0.00    +0.088 C 
BRANCH  11  15
ATOM     15  N   LIG    1       -7.152  -1.160  -1.188  0.00  0.00    -0.343 N 
ATOM     16  H   LIG    1       -7.862  -1.510  -0.527  0.00  0.00    +0.144 HD
ATOM     17  H   LIG    1       -6.679  -1.803  -1.845  0.00  0.00    +0.144 HD
ENDBRANCH  11  15
ENDBRANCH   7  10
ENDBRANCH   4   7
ENDBRANCH   1   4
BRANCH   2  18
ATOM     18  S   LIG    1       -0.178   0.404  -1.002  0.00  0.00    -0.060 S 
BRANCH  18  19
ATOM     19  S   LIG    1        0.086  -1.662  -0.965  0.00  0.00    -0.088 S 
BRANCH  19  20
ATOM     20  C   LIG    1        1.539  -2.265  -0.139  0.00  0.00    +0.082 C 
BRANCH  20  21
ATOM     21  C   LIG    1        2.830  -1.955  -0.869  0.00  0.00    +0.026 C 
BRANCH  21  22
ATOM     22  C   LIG    1        3.974  -2.512  -0.052  0.00  0.00    +0.055 C 
BRANCH  22  23
ATOM     23  S   LIG    1        5.504  -2.714  -0.947  0.00  0.00    -0.085 S 
BRANCH  23  24
ATOM     24  C   LIG    1        5.384  -3.980  -2.222  0.00  0.00    +0.187 C 
ATOM     25  C   LIG    1        4.108  -4.694  -2.463  0.00  0.00    +0.099 C 
ATOM     26  O   LIG    1        6.345  -4.245  -2.880  0.00  0.00    -0.286 OA
ENDBRANCH  23  24
ENDBRANCH  22  23
BRANCH  22  27
ATOM     27  C   LIG    1        4.121  -1.935   1.307  0.00  0.00    +0.014 C 
BRANCH  27  28
ATOM     28  C   LIG    1        4.332  -0.451   1.396  0.00  0.00    +0.002 C 
BRANCH  28  29
ATOM     29  C   LIG    1        5.560  -0.052   0.661  0.00  0.00    +0.011 C 
BRANCH  29  30
ATOM     30  C   LIG    1        5.898   1.420   0.744  0.00  0.00    +0.120 C 
BRANCH  30  31
ATOM     31  C   LIG    1        4.899   2.325   0.211  0.00  0.00    +0.307 C 
ATOM     32  O   LIG    1        3.842   1.907  -0.306  0.00  0.00    -0.251 OA
BRANCH  31  33
ATOM     33  O   LIG    1        5.117   3.688   0.275  0.00  0.00    -0.468 OA
ATOM     34  C   LIG    1        4.223   4.666  -0.208  0.00  0.00    +0.280 C 
ENDBRANCH  31  33
ENDBRANCH  30  31
ENDBRANCH  29  30
ENDBRANCH  28  29
ENDBRANCH  27  28
ENDBRANCH  22  27
ENDBRANCH  21  22
ENDBRANCH  20  21
ENDBRANCH  19  20
ENDBRANCH  18  19
ENDBRANCH   2  18
BRANCH   2  35
ATOM     35  C   LIG    1       -0.270   1.064   1.496  0.00  0.00    +0.072 C 
BRANCH  35  36
ATOM     36  C   LIG    1        0.129   0.217   2.706  0.00  0.00    +0.161 C 
BRANCH  36  37
ATOM     37  O   LIG    1       -0.880   0.283   3.646  0.00  0.00    -0.395 OA
ATOM     38  H   LIG    1       -1.421  -0.527   3.698  0.00  0.00    +0.209 HD
ENDBRANCH  36  37
ENDBRANCH  35  36
ENDBRANCH   2  35
TORSDOF 20
