REMARK  Name = molecules/VJUSDOIKMJHJPN-UHFFFAOYSA-N.pdb
REMARK                            x       y       z     vdW  Elec       q    Type
REMARK                         _______ _______ _______ _____ _____    ______ ____
ROOT
ATOM      1  N   LIG    1       -0.887  -2.652  -1.075  0.00  0.00    -0.216 N 
ATOM      2  H   LIG    1       -0.917  -3.226  -1.943  0.00  0.00    +0.174 HD
ENDROOT
BRANCH   1   3
ATOM      3  C   LIG    1        0.320  -2.069  -0.611  0.00  0.00    +0.048 A 
ATOM      4  C   LIG    1        0.682  -2.131   0.723  0.00  0.00    +0.026 A 
ATOM      5  C   LIG    1        1.857  -1.562   1.168  0.00  0.00    +0.030 A 
ATOM      6  C   LIG    1        2.723  -0.904   0.293  0.00  0.00    +0.105 A 
ATOM      7  C   LIG    1        2.366  -0.842  -1.032  0.00  0.00    +0.030 A 
ATOM      8  C   LIG    1        1.181  -1.417  -1.472  0.00  0.00    +0.026 A 
BRANCH   6   9
ATOM      9  S   LIG    1        4.205  -0.179   0.818  0.00  0.00    +0.058 S 
ATOM     10  O   LIG    1        4.643  -0.896   2.079  0.00  0.00    -0.153 OA
ATOM     11  O   LIG    1        5.313  -0.290  -0.161  0.00  0.00    -0.153 OA
BRANCH   9  12
ATOM     12  N   LIG    1        3.883   1.458   1.261  0.00  0.00    -0.193 NA
ATOM     13  H   LIG    1        3.332   1.521   2.133  0.00  0.00    +0.148 HD
ATOM     14  C   LIG    1        3.392   2.251   0.176  0.00  0.00    +0.127 C 
ENDBRANCH   9  12
ENDBRANCH   6   9
ENDBRANCH   1   3
BRANCH   1  15
ATOM     15  S   LIG    1       -2.362  -2.430  -0.210  0.00  0.00    +0.072 S 
ATOM     16  O   LIG    1       -2.245  -2.915   1.208  0.00  0.00    -0.150 OA
ATOM     17  O   LIG    1       -3.489  -3.168  -0.873  0.00  0.00    -0.150 OA
BRANCH  15  18
ATOM     18  C   LIG    1       -2.699  -0.711  -0.201  0.00  0.00    +0.109 A 
ATOM     19  C   LIG    1       -2.201   0.057   0.838  0.00  0.00    +0.030 A 
ATOM     20  C   LIG    1       -2.418   1.409   0.921  0.00  0.00    +0.024 A 
ATOM     21  C   LIG    1       -3.156   2.041  -0.056  0.00  0.00    +0.025 A 
ATOM     22  C   LIG    1       -3.669   1.288  -1.114  0.00  0.00    +0.024 A 
ATOM     23  C   LIG    1       -3.426  -0.067  -1.157  0.00  0.00    +0.030 A 
BRANCH  21  24
ATOM     24  N   LIG    1       -3.437   3.429  -0.062  0.00  0.00    -0.358 N 
ATOM     25  H   LIG    1       -4.356   3.802   0.255  0.00  0.00    +0.142 HD
ATOM     26  H   LIG    1       -2.666   4.064  -0.405  0.00  0.00    +0.142 HD
ENDBRANCH  21  24
ENDBRANCH  15  18
ENDBRANCH   1  15
TORSDOF 6
