REMARK  Name = molecules/VJYSBPDEJWLKKJ-NLIMODCCSA-N.pdb
REMARK                            x       y       z     vdW  Elec       q    Type
REMARK                         _______ _______ _______ _____ _____    ______ ____
ROOT
ATOM      1  N   LIG    1        0.513  -6.522   0.000  0.00  0.00    -0.236 NA
ATOM      2  C   LIG    1       -0.097  -5.152   0.000  0.00  0.00    +0.096 A 
ATOM      3  C   LIG    1       -1.589  -5.309   0.000  0.00  0.00    -0.008 A 
ATOM      4  C   LIG    1       -1.900  -6.776   0.000  0.00  0.00    +0.038 A 
ATOM      5  C   LIG    1       -0.601  -7.526   0.000  0.00  0.00    +0.061 A 
ENDROOT
BRANCH   2   6
ATOM      6  C   LIG    1       -0.409  -3.684   0.000  0.00  0.00    -0.012 C 
ATOM      7  C   LIG    1       -1.835  -3.221   0.000  0.00  0.00    -0.013 C 
ATOM      8  C   LIG    1       -2.147  -1.754   0.000  0.00  0.00    +0.027 C 
BRANCH   6   9
ATOM      9  C   LIG    1        0.706  -2.681   0.000  0.00  0.00    +0.030 C 
ATOM     10  C   LIG    1        0.394  -1.214   0.000  0.00  0.00    +0.037 C 
ATOM     11  C   LIG    1       -1.032  -0.750   0.000  0.00  0.00    +0.048 C 
BRANCH  10  12
ATOM     12  N   LIG    1        1.276   0.000   0.000  0.00  0.00    -0.225 NA
BRANCH  12  13
ATOM     13  C   LIG    1        0.394   1.214   0.000  0.00  0.00    +0.184 C 
BRANCH  13  14
ATOM     14  C   LIG    1        0.858   2.640   0.000  0.00  0.00    +0.119 C 
ATOM     15  C   LIG    1        1.608   3.939   0.000  0.00  0.00    +0.025 C 
ATOM     16  C   LIG    1        0.604   5.054   0.000  0.00  0.00    +0.018 C 
ATOM     17  C   LIG    1       -0.766   4.444   0.000  0.00  0.00    +0.103 C 
ATOM     18  N   LIG    1       -0.609   2.952   0.000  0.00  0.00    -0.233 NA
ENDBRANCH  13  14
BRANCH  13  19
ATOM     19  N   LIG    1       -1.032   0.750   0.000  0.00  0.00    -0.154 NA
ATOM     20  C   LIG    1       -1.724   1.948   0.000  0.00  0.00    +0.129 C 
BRANCH  19  21
ATOM     21  O   LIG    1       -1.776   0.449   0.000  0.00  0.00    -0.310 OA
ATOM     22  H   LIG    1       -2.611  -0.130   0.000  0.00  0.00    +0.237 HD
ENDBRANCH  19  21
ENDBRANCH  13  19
ENDBRANCH  12  13
ENDBRANCH  10  12
ENDBRANCH   6   9
ENDBRANCH   2   6
BRANCH   5  23
ATOM     23  C   LIG    1        0.513  -8.529   0.000  0.00  0.00    +0.061 C 
BRANCH  23  24
ATOM     24  C   LIG    1        0.202  -9.997   0.000  0.00  0.00    -0.011 C 
ATOM     25  C   LIG    1        1.316 -11.000   0.000  0.00  0.00    -0.020 C 
BRANCH  25  26
ATOM     26  C   LIG    1        2.743 -10.537   0.000  0.00  0.00    +0.114 C 
BRANCH  26  27
ATOM     27  N   LIG    1        3.624 -11.750   0.000  0.00  0.00    -0.212 NA
BRANCH  27  28
ATOM     28  C   LIG    1        2.743 -12.964   0.000  0.00  0.00    +0.099 C 
BRANCH  28  29
ATOM     29  C   LIG    1        3.206 -14.390   0.000  0.00  0.00    +0.085 C 
ATOM     30  C   LIG    1        3.956 -15.689   0.000  0.00  0.00    +0.022 C 
ATOM     31  C   LIG    1        2.953 -16.804   0.000  0.00  0.00    +0.017 C 
ATOM     32  C   LIG    1        1.582 -16.194   0.000  0.00  0.00    +0.088 C 
ATOM     33  N   LIG    1        1.739 -14.702   0.000  0.00  0.00    -0.263 NA
BRANCH  33  34
ATOM     34  C   LIG    1        0.624 -13.699   0.000  0.00  0.00    +0.216 C 
BRANCH  34  35
ATOM     35  O   LIG    1        0.597 -12.902   0.000  0.00  0.00    -0.233 OA
ATOM     36  N   LIG    1        1.316 -12.500   0.000  0.00  0.00    +0.043 NA
ENDBRANCH  34  35
BRANCH  34  37
ATOM     37  C   LIG    1       -0.802 -14.162   0.000  0.00  0.00    +0.169 C 
ATOM     38  N   LIG    1       -1.266 -12.736   0.000  0.00  0.00    -0.131 NA
BRANCH  37  39
ATOM     39  C   LIG    1       -2.229 -14.626   0.000  0.00  0.00    -0.001 C 
ATOM     40  C   LIG    1       -3.655 -15.089   0.000  0.00  0.00    -0.003 C 
ENDBRANCH  37  39
ENDBRANCH  34  37
ENDBRANCH  33  34
ENDBRANCH  28  29
ENDBRANCH  27  28
ENDBRANCH  26  27
ENDBRANCH  25  26
ENDBRANCH  23  24
ENDBRANCH   5  23
TORSDOF 17
REMARK  Name = molecules/VJYSBPDEJWLKKJ-NLIMODCCSA-N.pdb
REMARK                            x       y       z     vdW  Elec       q    Type
REMARK                         _______ _______ _______ _____ _____    ______ ____
ROOT
ATOM      1  C   LIG    1        1.981  -6.834   0.000  0.00  0.00    +0.000 C 
ATOM      2  C   LIG    1        1.940  -8.066   0.000  0.00  0.00    +0.000 C 
ENDROOT
TORSDOF 0
REMARK  Name = molecules/VJYSBPDEJWLKKJ-NLIMODCCSA-N.pdb
REMARK                            x       y       z     vdW  Elec       q    Type
REMARK                         _______ _______ _______ _____ _____    ______ ____
ROOT
ATOM      1  C   LIG    1        3.911  -8.572   0.000  0.00  0.00    +0.006 C 
ATOM      2  C   LIG    1        4.915  -7.458   0.000  0.00  0.00    +0.040 C 
ENDROOT
BRANCH   2   3
ATOM      3  N   LIG    1        6.382  -7.769   0.000  0.00  0.00    -0.306 N 
ATOM      4  C   LIG    1        6.846  -9.196   0.000  0.00  0.00    +0.111 C 
ATOM      5  C   LIG    1        8.313  -9.508   0.000  0.00  0.00    +0.027 C 
ATOM      6  C   LIG    1        9.317  -8.393   0.000  0.00  0.00    +0.018 C 
ATOM      7  C   LIG    1       10.641  -7.689   0.000  0.00  0.00    +0.004 C 
ATOM      8  C   LIG    1        8.853  -6.967   0.000  0.00  0.00    -0.008 C 
ATOM      9  C   LIG    1        7.386  -6.655   0.000  0.00  0.00    +0.071 C 
ENDBRANCH   2   3
BRANCH   2  10
ATOM     10  C   LIG    1        4.452  -6.031   0.000  0.00  0.00    +0.035 C 
ATOM     11  C   LIG    1        2.984  -5.719   0.000  0.00  0.00    +0.192 C 
ATOM     12  F   LIG    1        2.598  -6.718   0.000  0.00  0.00    -0.213 F 
ENDBRANCH   2  10
BRANCH   1  13
ATOM     13  C   LIG    1        3.055  -9.069   0.000  0.00  0.00    +0.019 C 
ATOM     14  C   LIG    1        2.444  -8.260   0.000  0.00  0.00    +0.004 C 
ENDBRANCH   1  13
TORSDOF 3
REMARK  Name = molecules/VJYSBPDEJWLKKJ-NLIMODCCSA-N.pdb
REMARK                            x       y       z     vdW  Elec       q    Type
REMARK                         _______ _______ _______ _____ _____    ______ ____
ROOT
ATOM      1  N   LIG    1       -3.614   0.985   0.000  0.00  0.00    -0.230 NA
ATOM      2  C   LIG    1       -5.081   0.673   0.000  0.00  0.00    +0.333 C 
ATOM      3  O   LIG    1       -5.545  -0.753   0.000  0.00  0.00    -0.260 OA
ENDROOT
BRANCH   1   4
ATOM      4  C   LIG    1       -3.151   2.412   0.000  0.00  0.00    +0.129 C 
ATOM      5  C   LIG    1       -4.577   2.875   0.000  0.00  0.00    +0.028 C 
ENDBRANCH   1   4
TORSDOF 1
REMARK  Name = molecules/VJYSBPDEJWLKKJ-NLIMODCCSA-N.pdb
REMARK                            x       y       z     vdW  Elec       q    Type
REMARK                         _______ _______ _______ _____ _____    ______ ____
ROOT
ATOM      1  O   LIG    1       -2.692 -13.199   0.000  0.00  0.00    -0.140 OA
ENDROOT
BRANCH   1   2
ATOM      2  C   LIG    1       -2.733 -12.424   0.000  0.00  0.00    +0.339 C 
BRANCH   2   3
ATOM      3  O   LIG    1       -3.019 -10.951   0.000  0.00  0.00    -0.353 OA
ATOM      4  H   LIG    1       -4.029 -11.393   0.000  0.00  0.00    +0.213 HD
ENDBRANCH   2   3
ENDBRANCH   1   2
BRANCH   1   5
ATOM      5  O   LIG    1       -3.737 -13.538   0.000  0.00  0.00    -0.341 OA
BRANCH   5   6
ATOM      6  C   LIG    1       -4.160 -12.887   0.000  0.00  0.00    +0.229 C 
ATOM      7  C   LIG    1       -5.204 -13.226   0.000  0.00  0.00    +0.053 C 
ENDBRANCH   5   6
ENDBRANCH   1   5
TORSDOF 4
REMARK  Name = molecules/VJYSBPDEJWLKKJ-NLIMODCCSA-N.pdb
REMARK                            x       y       z     vdW  Elec       q    Type
REMARK                         _______ _______ _______ _____ _____    ______ ____
ROOT
ATOM      1  O   LIG    1       -4.114   4.302   0.000  0.00  0.00    -0.398 OA
ATOM      2  C   LIG    1       -5.117   5.417   0.000  0.00  0.00    +0.189 C 
ATOM      3  H   LIG    1       -2.865   3.884   0.000  0.00  0.00    +0.209 HD
ENDROOT
TORSDOF 0
REMARK  Name = molecules/VJYSBPDEJWLKKJ-NLIMODCCSA-N.pdb
REMARK                            x       y       z     vdW  Elec       q    Type
REMARK                         _______ _______ _______ _____ _____    ______ ____
ROOT
ATOM      1  C   LIG    1       -6.004   3.339   0.000  0.00  0.00    +0.000 C 
ENDROOT
TORSDOF 0
REMARK  Name = molecules/VJYSBPDEJWLKKJ-NLIMODCCSA-N.pdb
REMARK                            x       y       z     vdW  Elec       q    Type
REMARK                         _______ _______ _______ _____ _____    ______ ____
ROOT
ATOM      1  O   HOH    1       -6.085   1.788   0.000  0.00  0.00    -0.410 OA
ATOM      2  H   HOH    0       -6.799   2.067   0.000  0.00  0.00    +0.205 HD
ATOM      3  H   HOH    0       -5.372   1.603   0.000  0.00  0.00    +0.205 HD
ENDROOT
TORSDOF 0
REMARK  Name = molecules/VJYSBPDEJWLKKJ-NLIMODCCSA-N.pdb
REMARK                            x       y       z     vdW  Elec       q    Type
REMARK                         _______ _______ _______ _____ _____    ______ ____
ROOT
ATOM      1  C   LIG    1       -7.552   1.476   0.000  0.00  0.00    +0.000 C 
ENDROOT
TORSDOF 0
REMARK  Name = molecules/VJYSBPDEJWLKKJ-NLIMODCCSA-N.pdb
REMARK                            x       y       z     vdW  Elec       q    Type
REMARK                         _______ _______ _______ _____ _____    ______ ____
ROOT
ATOM      1  C   LIG    1       13.290  -6.281   0.000  0.00  0.00    +0.120 C 
ATOM      2  F   LIG    1       14.614  -5.576   0.000  0.00  0.00    -0.206 F 
ATOM      3  C   LIG    1       12.018  -5.486   0.000  0.00  0.00    +0.016 C 
ATOM      4  C   LIG    1       10.694  -6.190   0.000  0.00  0.00    +0.029 C 
ENDROOT
BRANCH   1   5
ATOM      5  C   LIG    1       13.238  -7.780   0.000  0.00  0.00    +0.038 C 
ATOM      6  C   LIG    1       11.913  -8.484   0.000  0.00  0.00    +0.003 C 
ENDBRANCH   1   5
TORSDOF 1
REMARK  Name = molecules/VJYSBPDEJWLKKJ-NLIMODCCSA-N.pdb
REMARK                            x       y       z     vdW  Elec       q    Type
REMARK                         _______ _______ _______ _____ _____    ______ ____
ROOT
ATOM      1  F   LIG    1        4.375  -9.999   0.000  0.00  0.00    +0.000 F 
ENDROOT
TORSDOF 0
REMARK  Name = molecules/VJYSBPDEJWLKKJ-NLIMODCCSA-N.pdb
REMARK                            x       y       z     vdW  Elec       q    Type
REMARK                         _______ _______ _______ _____ _____    ______ ____
ROOT
ATOM      1  F   LIG    1        5.455  -4.916   0.000  0.00  0.00    -0.267 F 
ATOM      2  H   LIG    1        6.114  -5.860   0.000  0.00  0.00    +0.267 HD
ENDROOT
TORSDOF 0
REMARK  Name = molecules/VJYSBPDEJWLKKJ-NLIMODCCSA-N.pdb
REMARK                            x       y       z     vdW  Elec       q    Type
REMARK                         _______ _______ _______ _____ _____    ______ ____
ROOT
ATOM      1  F   LIG    1       -2.950  -4.225   0.000  0.00  0.00    -0.267 F 
ATOM      2  H   LIG    1       -3.080  -5.152   0.000  0.00  0.00    +0.267 HD
ENDROOT
TORSDOF 0
REMARK  Name = molecules/VJYSBPDEJWLKKJ-NLIMODCCSA-N.pdb
REMARK                            x       y       z     vdW  Elec       q    Type
REMARK                         _______ _______ _______ _____ _____    ______ ____
ROOT
ATOM      1  H   UNK    1        5.125 -11.750   0.000  0.00  0.00    +0.000 HD
ENDROOT
TORSDOF 0
REMARK  Name = molecules/VJYSBPDEJWLKKJ-NLIMODCCSA-N.pdb
REMARK                            x       y       z     vdW  Elec       q    Type
REMARK                         _______ _______ _______ _____ _____    ______ ____
ROOT
ATOM      1  H   UNK    1       -0.262 -11.621   0.000  0.00  0.00    +0.000 HD
ENDROOT
TORSDOF 0
REMARK  Name = molecules/VJYSBPDEJWLKKJ-NLIMODCCSA-N.pdb
REMARK                            x       y       z     vdW  Elec       q    Type
REMARK                         _______ _______ _______ _____ _____    ______ ____
ROOT
ATOM      1  H   UNK    1       -5.082 -15.553   0.000  0.00  0.00    +0.000 HD
ENDROOT
TORSDOF 0
REMARK  Name = molecules/VJYSBPDEJWLKKJ-NLIMODCCSA-N.pdb
REMARK                            x       y       z     vdW  Elec       q    Type
REMARK                         _______ _______ _______ _____ _____    ______ ____
ROOT
ATOM      1  H   UNK    1       -3.192 -16.516   0.000  0.00  0.00    +0.000 HD
ENDROOT
TORSDOF 0
REMARK  Name = molecules/VJYSBPDEJWLKKJ-NLIMODCCSA-N.pdb
REMARK                            x       y       z     vdW  Elec       q    Type
REMARK                         _______ _______ _______ _____ _____    ______ ____
ROOT
ATOM      1  H   UNK    1       -7.431   3.802   0.000  0.00  0.00    +0.000 HD
ENDROOT
TORSDOF 0
REMARK  Name = molecules/VJYSBPDEJWLKKJ-NLIMODCCSA-N.pdb
REMARK                            x       y       z     vdW  Elec       q    Type
REMARK                         _______ _______ _______ _____ _____    ______ ____
ROOT
ATOM      1  H   UNK    1       -6.671 -12.915   0.000  0.00  0.00    +0.000 HD
ENDROOT
TORSDOF 0
REMARK  Name = molecules/VJYSBPDEJWLKKJ-NLIMODCCSA-N.pdb
REMARK                            x       y       z     vdW  Elec       q    Type
REMARK                         _______ _______ _______ _____ _____    ______ ____
ROOT
ATOM      1  H   UNK    1       -5.516 -14.694   0.000  0.00  0.00    +0.000 HD
ENDROOT
TORSDOF 0
