REMARK  Name = molecules/VJZITPJGSQKZMX-XDPRQOKASA-N.pdb
REMARK                            x       y       z     vdW  Elec       q    Type
REMARK                         _______ _______ _______ _____ _____    ______ ____
ROOT
ATOM      1  C   LIG    1       -1.097   0.144   1.361  0.00  0.00    +0.157 C 
ATOM      2  C   LIG    1       -1.412  -1.147   2.051  0.00  0.00    +0.066 C 
ATOM      3  C   LIG    1       -1.160  -2.384   1.274  0.00  0.00    +0.082 C 
ATOM      4  C   LIG    1       -0.728  -2.170  -0.158  0.00  0.00    +0.069 C 
ATOM      5  C   LIG    1        0.332  -1.128  -0.199  0.00  0.00    +0.006 A 
ATOM      6  C   LIG    1        1.439  -1.338  -0.971  0.00  0.00    +0.132 A 
ATOM      7  C   LIG    1        2.396  -0.333  -0.970  0.00  0.00    +0.078 A 
ATOM      8  C   LIG    1        2.233   0.817  -0.226  0.00  0.00    +0.078 A 
ATOM      9  C   LIG    1        1.100   0.989   0.541  0.00  0.00    +0.134 A 
ATOM     10  C   LIG    1        3.304   1.799  -0.305  0.00  0.00    +0.198 C 
ATOM     11  O   LIG    1        3.259   2.867   0.323  0.00  0.00    -0.286 OA
ATOM     12  C   LIG    1        4.515   1.596  -1.136  0.00  0.00    +0.033 A 
ATOM     13  C   LIG    1        5.504   2.559  -1.178  0.00  0.00    +0.012 A 
ATOM     14  C   LIG    1        6.627   2.397  -1.934  0.00  0.00    +0.001 A 
ATOM     15  C   LIG    1        6.764   1.228  -2.673  0.00  0.00    +0.001 A 
ATOM     16  C   LIG    1        5.784   0.261  -2.638  0.00  0.00    +0.012 A 
ATOM     17  C   LIG    1        4.657   0.454  -1.863  0.00  0.00    +0.033 A 
ATOM     18  C   LIG    1        3.598  -0.543  -1.799  0.00  0.00    +0.198 C 
ATOM     19  O   LIG    1        3.763  -1.589  -2.487  0.00  0.00    -0.286 OA
ATOM     20  C   LIG    1        0.111  -0.014   0.560  0.00  0.00    +0.030 A 
ENDROOT
BRANCH   3  21
ATOM     21  C   LIG    1       -0.064  -3.148   1.943  0.00  0.00    +0.150 C 
ATOM     22  C   LIG    1       -0.262  -4.549   2.418  0.00  0.00    +0.088 C 
ATOM     23  O   LIG    1        1.011  -2.580   2.087  0.00  0.00    -0.296 OA
ENDBRANCH   3  21
BRANCH   3  24
ATOM     24  N   LIG    1       -2.338  -3.254   1.218  0.00  0.00    -0.318 NA
ATOM     25  H   LIG    1       -2.493  -3.588   2.176  0.00  0.00    +0.119 HD
ATOM     26  H   LIG    1       -2.170  -4.047   0.589  0.00  0.00    +0.119 HD
ENDBRANCH   3  24
BRANCH   9  27
ATOM     27  O   LIG    1        0.914   2.114   1.285  0.00  0.00    -0.506 OA
ATOM     28  H   LIG    1        1.482   2.879   1.381  0.00  0.00    +0.292 HD
ENDBRANCH   9  27
BRANCH   6  29
ATOM     29  O   LIG    1        1.679  -2.459  -1.746  0.00  0.00    -0.506 OA
ATOM     30  H   LIG    1        1.125  -3.259  -1.871  0.00  0.00    +0.292 HD
ENDBRANCH   6  29
BRANCH   1  31
ATOM     31  O   LIG    1       -2.213   0.546   0.661  0.00  0.00    -0.343 OA
BRANCH  31  32
ATOM     32  C   LIG    1       -2.805   1.695   1.125  0.00  0.00    +0.253 C 
ATOM     33  O   LIG    1       -4.174   1.493   1.420  0.00  0.00    -0.349 OA
ATOM     34  C   LIG    1       -4.646   0.627   0.436  0.00  0.00    +0.196 C 
ATOM     35  C   LIG    1       -4.669   1.266  -0.923  0.00  0.00    +0.169 C 
ATOM     36  C   LIG    1       -3.425   2.026  -1.253  0.00  0.00    +0.150 C 
ATOM     37  C   LIG    1       -2.802   2.694  -0.037  0.00  0.00    +0.095 C 
BRANCH  35  38
ATOM     38  O   LIG    1       -5.835   2.045  -1.102  0.00  0.00    -0.387 OA
ATOM     39  H   LIG    1       -5.584   2.950  -0.785  0.00  0.00    +0.210 HD
ENDBRANCH  35  38
BRANCH  36  40
ATOM     40  O   LIG    1       -3.753   2.997  -2.202  0.00  0.00    -0.389 OA
ATOM     41  H   LIG    1       -4.551   2.729  -2.716  0.00  0.00    +0.210 HD
ENDBRANCH  36  40
ENDBRANCH  31  32
ENDBRANCH   1  31
TORSDOF 8
