REMARK  Name = molecules/VKYKSIONXSXAKP-UHFFFAOYSA-N.pdb
REMARK                            x       y       z     vdW  Elec       q    Type
REMARK                         _______ _______ _______ _____ _____    ______ ____
ROOT
ATOM      1  C   LIG    1       -1.249  -0.802   0.848  0.00  0.00    +0.176 C 
ATOM      2  N   LIG    1       -1.099   0.627   0.801  0.00  0.00    -0.264 NA
ATOM      3  C   LIG    1        0.239   0.925   1.333  0.00  0.00    +0.176 C 
ATOM      4  N   LIG    1        1.267   0.303   0.545  0.00  0.00    -0.264 NA
ATOM      5  C   LIG    1        1.073  -1.130   0.552  0.00  0.00    +0.176 C 
ATOM      6  C   LIG    1        1.254   0.783  -0.817  0.00  0.00    +0.176 C 
ATOM      7  N   LIG    1       -0.067   0.580  -1.376  0.00  0.00    -0.264 NA
ATOM      8  C   LIG    1       -0.274  -0.878  -1.351  0.00  0.00    +0.176 C 
ATOM      9  C   LIG    1       -1.107   1.149  -0.556  0.00  0.00    +0.176 C 
ATOM     10  N   LIG    1       -0.248  -1.389   0.002  0.00  0.00    -0.264 NA
ENDROOT
TORSDOF 0
