REMARK  Name = molecules/VLPADTBFADIFKG-UHFFFAOYSA-N.pdb
REMARK                            x       y       z     vdW  Elec       q    Type
REMARK                         _______ _______ _______ _____ _____    ______ ____
ROOT
ATOM      1  O   LIG    1        1.727   3.224  -0.028  0.00  0.00    -0.281 OA
ATOM      2  C   LIG    1        0.977   2.204  -0.046  0.00  0.00    +0.253 C 
ATOM      3  C   LIG    1        1.519   0.866   0.131  0.00  0.00    +0.122 A 
ATOM      4  N   LIG    1        2.841   0.673   0.319  0.00  0.00    -0.251 NA
ATOM      5  C   LIG    1        3.388  -0.541   0.487  0.00  0.00    +0.111 A 
ATOM      6  C   LIG    1        2.600  -1.670   0.472  0.00  0.00    +0.020 A 
ATOM      7  C   LIG    1        1.241  -1.526   0.283  0.00  0.00    +0.012 A 
ATOM      8  C   LIG    1        0.726  -0.266   0.116  0.00  0.00    +0.014 A 
ATOM      9  C   LIG    1       -0.717  -0.077  -0.088  0.00  0.00    +0.014 A 
ATOM     10  C   LIG    1       -1.561  -1.178  -0.112  0.00  0.00    +0.012 A 
ATOM     11  C   LIG    1       -2.929  -1.010  -0.304  0.00  0.00    +0.020 A 
ATOM     12  C   LIG    1       -3.430   0.255  -0.469  0.00  0.00    +0.111 A 
ATOM     13  N   LIG    1       -2.604   1.344  -0.447  0.00  0.00    -0.251 NA
ATOM     14  C   LIG    1       -1.275   1.179  -0.260  0.00  0.00    +0.122 A 
ATOM     15  C   LIG    1       -0.448   2.391  -0.247  0.00  0.00    +0.253 C 
ATOM     16  O   LIG    1       -0.992   3.518  -0.408  0.00  0.00    -0.281 OA
ENDROOT
TORSDOF 0
