REMARK  Name = molecules/VLPIATFUUWWMKC-JTQLQIEISA-N.pdb
REMARK                            x       y       z     vdW  Elec       q    Type
REMARK                         _______ _______ _______ _____ _____    ______ ____
ROOT
ATOM      1  C   LIG    1       -1.011   0.018   0.128  0.00  0.00    +0.126 A 
ATOM      2  C   LIG    1       -1.684   1.159   0.531  0.00  0.00    -0.009 A 
ATOM      3  C   LIG    1       -0.939   2.205   1.279  0.00  0.00    +0.047 C 
ATOM      4  C   LIG    1       -3.024   1.314   0.239  0.00  0.00    +0.007 A 
ATOM      5  C   LIG    1       -3.688   0.328  -0.456  0.00  0.00    +0.001 A 
ATOM      6  C   LIG    1       -2.983  -0.793  -0.840  0.00  0.00    +0.007 A 
ATOM      7  C   LIG    1       -1.663  -0.993  -0.576  0.00  0.00    -0.009 A 
ATOM      8  C   LIG    1       -0.877  -2.182  -0.973  0.00  0.00    +0.047 C 
ENDROOT
BRANCH   1   9
ATOM      9  O   LIG    1        0.332  -0.126   0.427  0.00  0.00    -0.490 OA
BRANCH   9  10
ATOM     10  C   LIG    1        1.263   0.365  -0.513  0.00  0.00    +0.247 C 
BRANCH  10  11
ATOM     11  C   LIG    1        2.690   0.151  -0.079  0.00  0.00    +0.085 C 
ATOM     12  C   LIG    1        3.046  -1.306  -0.056  0.00  0.00    +0.027 C 
BRANCH  11  13
ATOM     13  N   LIG    1        2.969   0.822   1.179  0.00  0.00    -0.325 NA
ATOM     14  H   LIG    1        2.811   0.148   1.933  0.00  0.00    +0.119 HD
ATOM     15  H   LIG    1        3.926   1.218   1.225  0.00  0.00    +0.119 HD
ENDBRANCH  11  13
ENDBRANCH  10  11
ENDBRANCH   9  10
ENDBRANCH   1   9
TORSDOF 4
