REMARK  Name = molecules/VLSMHEGGTFMBBZ-OOZYFLPDSA-N.pdb
REMARK                            x       y       z     vdW  Elec       q    Type
REMARK                         _______ _______ _______ _____ _____    ______ ____
ROOT
ATOM      1  C   LIG    1        0.697   0.512   0.397  0.00  0.00    +0.036 C 
ATOM      2  C   LIG    1        0.017  -0.740  -0.132  0.00  0.00    +0.034 C 
ATOM      3  C   LIG    1        0.271  -0.641  -1.594  0.00  0.00    +0.089 C 
ATOM      4  N   LIG    1        1.407   0.274  -1.782  0.00  0.00    -0.303 NA
ATOM      5  H   LIG    1        2.056  -0.054  -2.515  0.00  0.00    +0.123 HD
ATOM      6  CA  LIG    1        1.971   0.419  -0.482  0.00  0.00    +0.168 C 
ENDROOT
BRANCH   2   7
ATOM      7  C   LIG    1       -1.324  -0.987   0.329  0.00  0.00    -0.075 C 
ATOM      8  C   LIG    1       -1.563  -1.107   1.817  0.00  0.00    +0.039 C 
ATOM      9  C   LIG    1       -2.348  -1.127  -0.460  0.00  0.00    +0.007 C 
ENDBRANCH   2   7
BRANCH   6  10
ATOM     10  C   LIG    1        2.762  -0.728  -0.036  0.00  0.00    +0.322 C 
ATOM     11  O   LIG    1        2.900  -1.719  -0.767  0.00  0.00    -0.249 OA
BRANCH  10  12
ATOM     12  OXT LIG    1        3.352  -0.686   1.214  0.00  0.00    -0.480 OA
ATOM     13  HXT LIG    1        3.150  -1.399   1.913  0.00  0.00    +0.295 HD
ENDBRANCH  10  12
ENDBRANCH   6  10
BRANCH   1  14
ATOM     14  C   LIG    1        0.057   1.787  -0.008  0.00  0.00    +0.126 C 
BRANCH  14  15
ATOM     15  C   LIG    1       -1.321   2.007   0.398  0.00  0.00    +0.305 C 
ATOM     16  O   LIG    1       -1.616   2.095   1.606  0.00  0.00    -0.251 OA
BRANCH  15  17
ATOM     17  O   LIG    1       -2.321   2.120  -0.544  0.00  0.00    -0.481 OA
ATOM     18  H   LIG    1       -2.786   2.987  -0.798  0.00  0.00    +0.295 HD
ENDBRANCH  15  17
ENDBRANCH  14  15
ENDBRANCH   1  14
TORSDOF 6
