REMARK  Name = molecules/VLYWMPOKSSWJAL-UHFFFAOYSA-N.pdb
REMARK                            x       y       z     vdW  Elec       q    Type
REMARK                         _______ _______ _______ _____ _____    ______ ____
ROOT
ATOM      1  S   LIG    1       -0.527   2.666   0.587  0.00  0.00    +0.074 S 
ATOM      2  O   LIG    1       -0.345   2.719   2.073  0.00  0.00    -0.150 OA
ATOM      3  O   LIG    1       -1.179   3.953   0.175  0.00  0.00    -0.150 OA
ENDROOT
BRANCH   1   4
ATOM      4  C   LIG    1       -1.690   1.386   0.246  0.00  0.00    +0.109 A 
ATOM      5  C   LIG    1       -1.794   0.279   1.060  0.00  0.00    +0.030 A 
ATOM      6  C   LIG    1       -2.718  -0.708   0.772  0.00  0.00    +0.024 A 
ATOM      7  C   LIG    1       -3.546  -0.605  -0.326  0.00  0.00    +0.025 A 
ATOM      8  C   LIG    1       -3.452   0.498  -1.148  0.00  0.00    +0.024 A 
ATOM      9  C   LIG    1       -2.531   1.483  -0.863  0.00  0.00    +0.030 A 
BRANCH   7  10
ATOM     10  N   LIG    1       -4.502  -1.642  -0.611  0.00  0.00    -0.358 N 
ATOM     11  H   LIG    1       -4.861  -2.223   0.178  0.00  0.00    +0.142 HD
ATOM     12  H   LIG    1       -4.784  -1.753  -1.606  0.00  0.00    +0.142 HD
ENDBRANCH   7  10
ENDBRANCH   1   4
BRANCH   1  13
ATOM     13  N   LIG    1        0.909   2.360  -0.261  0.00  0.00    -0.198 N 
ATOM     14  H   LIG    1        1.212   3.083  -0.980  0.00  0.00    +0.175 HD
BRANCH  13  15
ATOM     15  C   LIG    1        1.736   1.230  -0.096  0.00  0.00    +0.160 A 
ATOM     16  N   LIG    1        1.384   0.300   0.802  0.00  0.00    -0.129 NA
ATOM     17  N   LIG    1        2.104  -0.793   1.021  0.00  0.00    -0.110 NA
ATOM     18  C   LIG    1        3.233  -1.028   0.348  0.00  0.00    +0.234 A 
ATOM     19  C   LIG    1        3.671  -0.128  -0.592  0.00  0.00    +0.072 A 
ATOM     20  C   LIG    1        2.899   1.005  -0.799  0.00  0.00    +0.052 A 
BRANCH  18  21
ATOM     21  O   LIG    1        3.950  -2.174   0.605  0.00  0.00    -0.479 OA
ATOM     22  C   LIG    1        3.467  -3.073   1.578  0.00  0.00    +0.279 C 
ENDBRANCH  18  21
ENDBRANCH  13  15
ENDBRANCH   1  13
TORSDOF 5
