REMARK  Name = molecules/VMWNQDUVQKEIOC-CYBMUJFWSA-N.pdb
REMARK                            x       y       z     vdW  Elec       q    Type
REMARK                         _______ _______ _______ _____ _____    ______ ____
ROOT
ATOM      1  C   LIG    1       -3.037  -2.026   0.283  0.00  0.00    +0.105 C 
ATOM      2  N   LIG    1       -2.347  -0.796   0.510  0.00  0.00    -0.298 NA
ATOM      3  C   LIG    1       -3.192   0.324   0.701  0.00  0.00    +0.089 C 
ATOM      4  C   LIG    1       -2.985   1.425  -0.318  0.00  0.00    +0.051 C 
ATOM      5  C   LIG    1       -1.561   1.783  -0.218  0.00  0.00    -0.041 A 
ATOM      6  C   LIG    1       -1.129   3.075  -0.106  0.00  0.00    +0.004 A 
ATOM      7  C   LIG    1        0.249   3.331  -0.009  0.00  0.00    +0.001 A 
ATOM      8  C   LIG    1        1.177   2.307  -0.024  0.00  0.00    +0.009 A 
ATOM      9  C   LIG    1        0.739   1.010  -0.137  0.00  0.00    -0.009 A 
ATOM     10  C   LIG    1        1.671  -0.110  -0.144  0.00  0.00    +0.031 A 
ATOM     11  C   LIG    1        3.035   0.082  -0.060  0.00  0.00    +0.166 A 
ATOM     12  C   LIG    1        3.904  -1.019  -0.078  0.00  0.00    +0.159 A 
ATOM     13  C   LIG    1        3.352  -2.278  -0.180  0.00  0.00    +0.049 A 
ATOM     14  C   LIG    1        1.996  -2.475  -0.264  0.00  0.00    +0.008 A 
ATOM     15  C   LIG    1        1.127  -1.377  -0.246  0.00  0.00    -0.034 A 
ATOM     16  C   LIG    1       -0.289  -1.703  -0.333  0.00  0.00    +0.059 C 
ATOM     17  C   LIG    1       -0.643   0.751  -0.235  0.00  0.00    -0.019 A 
ATOM     18  C   LIG    1       -1.239  -0.580  -0.376  0.00  0.00    +0.092 C 
ENDROOT
BRANCH  11  19
ATOM     19  O   LIG    1        3.554   1.319   0.040  0.00  0.00    -0.503 OA
ATOM     20  H   LIG    1        4.451   1.693   0.109  0.00  0.00    +0.292 HD
ENDBRANCH  11  19
BRANCH  12  21
ATOM     21  O   LIG    1        5.250  -0.789   0.007  0.00  0.00    -0.503 OA
ATOM     22  H   LIG    1        5.619   0.131   0.081  0.00  0.00    +0.292 HD
ENDBRANCH  12  21
TORSDOF 2
