REMARK  Name = molecules/VMZMNAABQBOLAK-DBILLSOUSA-N.pdb
REMARK                            x       y       z     vdW  Elec       q    Type
REMARK                         _______ _______ _______ _____ _____    ______ ____
ROOT
ATOM      1  C   UNK A  1       -2.821   1.060  -0.555  0.00  0.00    +0.235 C 
ATOM      2  C   UNK A  1       -2.622   1.818   0.696  0.00  0.00    +0.166 C 
ATOM      3  C   UNK A  1       -3.954   2.331   1.296  0.00  0.00    +0.078 C 
ATOM      4  C   UNK A  1       -4.355   3.451   0.486  0.00  0.00    +0.198 C 
ATOM      5  C   UNK A  1       -3.029   3.724  -0.439  0.00  0.00    +0.153 C 
ATOM      6  N   UNK A  1       -2.040   3.158   0.419  0.00  0.00    -0.285 N 
ATOM      7  C   PHE A  6       -0.809   3.632   0.950  0.00  0.00    +0.237 C 
ATOM      8  O   PHE A  6       -0.866   4.680   1.714  0.00  0.00    -0.274 OA
ATOM      9  CA  PHE A  6        0.528   3.039   0.734  0.00  0.00    +0.163 C 
ATOM     10  N   PHE A  6        0.673   2.709  -0.691  0.00  0.00    -0.302 N 
ATOM     11  C   UNK A  5        1.816   1.922  -1.145  0.00  0.00    +0.234 C 
ATOM     12  C   UNK A  5        1.951   0.546  -0.523  0.00  0.00    +0.163 C 
ATOM     13  N   UNK A  5        2.002  -0.530  -1.494  0.00  0.00    -0.302 N 
ATOM     14  C   LYS A  4        1.462  -1.805  -1.425  0.00  0.00    +0.234 C 
ATOM     15  CA  LYS A  4        1.349  -2.647  -0.227  0.00  0.00    +0.159 C 
ATOM     16  N   LYS A  4        0.325  -2.407   0.712  0.00  0.00    -0.302 N 
ATOM     17  H   LYS A  4        0.430  -1.584   1.377  0.00  0.00    +0.150 HD
ATOM     18  C   TRP A  3       -0.834  -3.194   0.991  0.00  0.00    +0.234 C 
ATOM     19  O   TRP A  3       -1.014  -3.444   2.260  0.00  0.00    -0.274 OA
ATOM     20  CA  TRP A  3       -1.777  -3.682   0.043  0.00  0.00    +0.163 C 
ATOM     21  N   TRP A  3       -2.110  -2.935  -1.123  0.00  0.00    -0.302 N 
ATOM     22  C   UNK A  2       -3.222  -2.124  -1.383  0.00  0.00    +0.238 C 
ATOM     23  C   UNK A  2       -3.907  -1.240  -0.329  0.00  0.00    +0.190 C 
ATOM     24  O   UNK A  2       -3.769  -2.050  -2.514  0.00  0.00    -0.273 OA
ATOM     25  H   TRP A  3       -1.438  -3.044  -1.939  0.00  0.00    +0.150 HD
ATOM     26  O   LYS A  4        1.026  -2.261  -2.569  0.00  0.00    -0.274 OA
ATOM     27  H   UNK A  5        2.550  -0.278  -2.408  0.00  0.00    +0.150 HD
ATOM     28  O   UNK A  5        2.585   2.276  -1.973  0.00  0.00    -0.274 OA
ATOM     29  H   PHE A  6       -0.039   3.063  -1.358  0.00  0.00    +0.150 HD
ATOM     30  N   UNK A  2       -3.765   0.102  -0.923  0.00  0.00    -0.299 N 
ATOM     31  H   UNK A  2       -4.420   0.325  -1.684  0.00  0.00    +0.150 HD
ATOM     32  O   UNK A  1       -1.954   1.354  -1.486  0.00  0.00    -0.274 OA
ENDROOT
BRANCH  23  33
ATOM     33  C   UNK A  2       -5.328  -1.522  -0.277  0.00  0.00    -0.018 A 
ATOM     34  C   UNK A  2       -5.903  -2.053   0.875  0.00  0.00    +0.006 A 
ATOM     35  C   UNK A  2       -7.258  -2.521   0.895  0.00  0.00    +0.000 A 
ATOM     36  C   UNK A  2       -7.994  -2.483  -0.195  0.00  0.00    +0.000 A 
ATOM     37  C   UNK A  2       -7.428  -1.965  -1.315  0.00  0.00    +0.000 A 
ATOM     38  C   UNK A  2       -6.181  -1.477  -1.427  0.00  0.00    +0.006 A 
ENDBRANCH  23  33
BRANCH  15  39
ATOM     39  CB  LYS A  4        1.658  -4.106  -0.573  0.00  0.00    +0.032 C 
BRANCH  39  40
ATOM     40  CG  LYS A  4        2.138  -4.803   0.663  0.00  0.00    +0.003 C 
BRANCH  40  41
ATOM     41  CD  LYS A  4        2.578  -6.199   0.350  0.00  0.00    +0.015 C 
BRANCH  41  42
ATOM     42  CE  LYS A  4        3.079  -6.976   1.507  0.00  0.00    +0.077 C 
BRANCH  42  43
ATOM     43  NZ  LYS A  4        4.124  -6.259   2.285  0.00  0.00    -0.330 NA
ATOM     44  HZ1 LYS A  4        4.054  -6.479   3.301  0.00  0.00    +0.118 HD
ATOM     45  HZ2 LYS A  4        4.087  -5.233   2.119  0.00  0.00    +0.118 HD
ENDBRANCH  42  43
ENDBRANCH  41  42
ENDBRANCH  40  41
ENDBRANCH  39  40
ENDBRANCH  15  39
BRANCH  20  46
ATOM     46  CB  TRP A  3       -3.049  -4.349   0.684  0.00  0.00    +0.069 C 
BRANCH  46  47
ATOM     47  CG  TRP A  3       -3.488  -5.476  -0.133  0.00  0.00    -0.020 A 
ATOM     48  CD2 TRP A  3       -3.437  -6.845   0.268  0.00  0.00    +0.003 A 
ATOM     49  CE3 TRP A  3       -3.280  -7.309   1.573  0.00  0.00    +0.010 A 
ATOM     50  CZ3 TRP A  3       -3.326  -8.653   1.861  0.00  0.00    +0.001 A 
ATOM     51  CH2 TRP A  3       -3.547  -9.494   0.745  0.00  0.00    +0.002 A 
ATOM     52  CZ2 TRP A  3       -3.700  -9.052  -0.526  0.00  0.00    +0.026 A 
ATOM     53  CE2 TRP A  3       -3.649  -7.660  -0.793  0.00  0.00    +0.047 A 
ATOM     54  NE1 TRP A  3       -3.837  -6.889  -1.823  0.00  0.00    -0.360 N 
ATOM     55  HE1 TRP A  3       -4.044  -7.286  -2.805  0.00  0.00    +0.165 HD
ATOM     56  CD1 TRP A  3       -3.757  -5.564  -1.506  0.00  0.00    +0.087 A 
ENDBRANCH  46  47
ENDBRANCH  20  46
BRANCH  12  57
ATOM     57  C   UNK A  5        3.039   0.459   0.497  0.00  0.00    +0.067 C 
BRANCH  57  58
ATOM     58  C   UNK A  5        4.430   0.294   0.125  0.00  0.00    -0.045 A 
ATOM     59  C   UNK A  5        5.407   1.195   0.463  0.00  0.00    +0.007 A 
ATOM     60  C   UNK A  5        6.750   0.880   0.336  0.00  0.00    +0.046 A 
ATOM     61  C   UNK A  5        7.133  -0.330  -0.139  0.00  0.00    +0.121 A 
ATOM     62  C   UNK A  5        6.128  -1.261  -0.521  0.00  0.00    +0.046 A 
ATOM     63  C   UNK A  5        4.854  -0.934  -0.379  0.00  0.00    +0.007 A 
BRANCH  61  64
ATOM     64  O   UNK A  5        8.377  -0.786  -0.299  0.00  0.00    -0.487 OA
BRANCH  64  65
ATOM     65  C   UNK A  5        9.594  -0.290   0.073  0.00  0.00    +0.264 C 
BRANCH  65  66
ATOM     66  C   UNK A  5       10.011   1.027  -0.374  0.00  0.00    -0.010 A 
ATOM     67  C   UNK A  5       11.127   1.524   0.357  0.00  0.00    +0.007 A 
ATOM     68  C   UNK A  5       11.611   2.764  -0.007  0.00  0.00    +0.000 A 
ATOM     69  C   UNK A  5       11.057   3.503  -1.001  0.00  0.00    +0.000 A 
ATOM     70  C   UNK A  5        9.925   2.978  -1.699  0.00  0.00    +0.000 A 
ATOM     71  C   UNK A  5        9.454   1.745  -1.355  0.00  0.00    +0.007 A 
ENDBRANCH  65  66
ENDBRANCH  64  65
ENDBRANCH  61  64
ENDBRANCH  57  58
ENDBRANCH  12  57
BRANCH   9  72
ATOM     72  CB  PHE A  6        1.562   4.204   0.907  0.00  0.00    +0.067 C 
BRANCH  72  73
ATOM     73  CG  PHE A  6        1.108   5.444   0.283  0.00  0.00    -0.045 A 
ATOM     74  CD2 PHE A  6        0.770   6.515   1.188  0.00  0.00    +0.004 A 
ATOM     75  CE2 PHE A  6        0.202   7.664   0.715  0.00  0.00    +0.000 A 
ATOM     76  CZ  PHE A  6       -0.049   7.776  -0.677  0.00  0.00    +0.000 A 
ATOM     77  CE1 PHE A  6        0.280   6.741  -1.469  0.00  0.00    +0.000 A 
ATOM     78  CD1 PHE A  6        0.863   5.574  -1.026  0.00  0.00    +0.004 A 
ENDBRANCH  72  73
ENDBRANCH   9  72
BRANCH   4  79
ATOM     79  O   UNK A  1       -4.532   4.718   0.914  0.00  0.00    -0.445 OA
BRANCH  79  80
ATOM     80  C   UNK A  1       -5.106   5.583  -0.556  0.00  0.00    +0.401 C 
ATOM     81  N   UNK A  1       -5.131   6.678   0.161  0.00  0.00    -0.280 N 
ATOM     82  H   UNK A  1       -5.461   7.415  -0.984  0.00  0.00    +0.152 HD
ATOM     83  O   UNK A  1       -5.094   4.691  -1.169  0.00  0.00    -0.226 OA
BRANCH  81  84
ATOM     84  C   UNK A  1       -5.161   7.854   0.917  0.00  0.00    +0.122 C 
BRANCH  84  85
ATOM     85  C   UNK A  1       -6.417   8.623   0.896  0.00  0.00    +0.096 C 
BRANCH  85  86
ATOM     86  N   UNK A  1       -6.533   9.005  -0.531  0.00  0.00    -0.329 NA
ATOM     87  H   UNK A  1       -7.309   9.680  -0.598  0.00  0.00    +0.118 HD
ATOM     88  H   UNK A  1       -5.607   9.339  -0.887  0.00  0.00    +0.118 HD
ENDBRANCH  85  86
ENDBRANCH  84  85
ENDBRANCH  81  84
ENDBRANCH  79  80
ENDBRANCH   4  79
TORSDOF 20
