REMARK  Name = molecules/VMZUTJCNQWMAGF-UHFFFAOYSA-N.pdb
REMARK                            x       y       z     vdW  Elec       q    Type
REMARK                         _______ _______ _______ _____ _____    ______ ____
ROOT
ATOM      1  C   LIG    1        3.365  -2.873   0.799  0.00  0.00    +0.088 C 
ATOM      2  C   LIG    1        1.987  -3.373   0.478  0.00  0.00    +0.135 A 
ATOM      3  N   LIG    1        1.457  -4.603   0.597  0.00  0.00    -0.134 NA
ATOM      4  N   LIG    1        0.176  -4.600   0.176  0.00  0.00    -0.132 NA
ATOM      5  C   LIG    1       -0.137  -3.378  -0.218  0.00  0.00    +0.160 A 
ATOM      6  C   LIG    1       -1.427  -2.859  -0.787  0.00  0.00    +0.218 C 
ATOM      7  N   LIG    1       -1.844  -1.614  -0.192  0.00  0.00    -0.275 NA
ATOM      8  C   LIG    1       -1.207  -0.501   0.017  0.00  0.00    +0.077 C 
ATOM      9  C   LIG    1        0.213  -0.250  -0.352  0.00  0.00    +0.032 A 
ATOM     10  C   LIG    1        1.171  -1.235  -0.306  0.00  0.00    +0.097 A 
ATOM     11  S   LIG    1        2.602  -0.442  -0.750  0.00  0.00    -0.075 S 
ATOM     12  C   LIG    1        1.980   1.126  -0.996  0.00  0.00    -0.008 A 
ATOM     13  C   LIG    1        0.643   0.981  -0.718  0.00  0.00    +0.023 A 
ATOM     14  N   LIG    1        0.984  -2.638  -0.025  0.00  0.00    -0.275 N 
ENDROOT
BRANCH   8  15
ATOM     15  C   LIG    1       -1.986   0.529   0.650  0.00  0.00    +0.019 A 
ATOM     16  C   LIG    1       -1.531   1.703   1.190  0.00  0.00    +0.011 A 
ATOM     17  C   LIG    1       -2.332   2.603   1.869  0.00  0.00    +0.001 A 
ATOM     18  C   LIG    1       -3.665   2.312   2.019  0.00  0.00    +0.001 A 
ATOM     19  C   LIG    1       -4.177   1.142   1.499  0.00  0.00    +0.020 A 
ATOM     20  C   LIG    1       -3.357   0.291   0.841  0.00  0.00    +0.050 A 
ATOM     21 CL   LIG    1       -4.045  -1.204   0.179  0.00  0.00    -0.083 Cl
ENDBRANCH   8  15
BRANCH  12  22
ATOM     22  C   LIG    1        2.694   2.390  -1.417  0.00  0.00    +0.039 C 
ATOM     23  C   LIG    1        1.700   3.526  -1.492  0.00  0.00    +0.009 C 
ENDBRANCH  12  22
TORSDOF 2
