REMARK  Name = molecules/VNFAARJCGSAROU-CYBMUJFWSA-N.pdb
REMARK                            x       y       z     vdW  Elec       q    Type
REMARK                         _______ _______ _______ _____ _____    ______ ____
ROOT
ATOM      1  C   LIG    1        0.186  -0.828   0.734  0.00  0.00    +0.167 C 
ATOM      2  O   LIG    1       -0.025  -1.568   1.755  0.00  0.00    -0.292 OA
ENDROOT
BRANCH   1   3
ATOM      3  C   LIG    1        1.562  -0.721   0.295  0.00  0.00    +0.018 A 
ATOM      4  C   LIG    1        2.598  -1.349   0.954  0.00  0.00    +0.011 A 
ATOM      5  C   LIG    1        3.909  -1.264   0.533  0.00  0.00    +0.004 A 
ATOM      6  C   LIG    1        4.244  -0.532  -0.585  0.00  0.00    -0.048 A 
ATOM      7  C   LIG    1        3.231   0.101  -1.255  0.00  0.00    +0.004 A 
ATOM      8  C   LIG    1        1.919   0.012  -0.830  0.00  0.00    +0.011 A 
BRANCH   6   9
ATOM      9  C   LIG    1        5.663  -0.454  -1.017  0.00  0.00    +0.032 C 
ATOM     10  C   LIG    1        6.310   0.726  -0.361  0.00  0.00    +0.009 C 
ENDBRANCH   6   9
ENDBRANCH   1   3
BRANCH   1  11
ATOM     11  C   LIG    1       -0.956  -0.143   0.082  0.00  0.00    +0.071 C 
ATOM     12  C   LIG    1       -0.717   1.363   0.307  0.00  0.00    +0.017 C 
BRANCH  11  13
ATOM     13  C   LIG    1       -2.213  -0.567   0.811  0.00  0.00    +0.095 C 
BRANCH  13  14
ATOM     14  N   LIG    1       -3.404  -0.041   0.363  0.00  0.00    -0.302 NA
ATOM     15  C   LIG    1       -4.096   0.965   1.050  0.00  0.00    +0.084 C 
ATOM     16  C   LIG    1       -5.452   1.011   0.325  0.00  0.00    +0.017 C 
ATOM     17  C   LIG    1       -5.464  -0.243  -0.553  0.00  0.00    +0.017 C 
ATOM     18  C   LIG    1       -3.964  -0.362  -0.877  0.00  0.00    +0.084 C 
ENDBRANCH  13  14
ENDBRANCH  11  13
ENDBRANCH   1  11
TORSDOF 5
