REMARK  Name = molecules/VNFPBHJOKIVQEB-UHFFFAOYSA-N.pdb
REMARK                            x       y       z     vdW  Elec       q    Type
REMARK                         _______ _______ _______ _____ _____    ______ ____
ROOT
ATOM      1  C   LIG    1       -0.112  -0.147  -0.189  0.00  0.00    +0.123 C 
ENDROOT
BRANCH   1   2
ATOM      2  C   LIG    1       -1.121  -0.436   0.853  0.00  0.00    +0.006 A 
ATOM      3  C   LIG    1       -1.222   0.336   2.003  0.00  0.00    +0.047 A 
ATOM      4  C   LIG    1       -2.154   0.078   3.000  0.00  0.00    +0.020 A 
ATOM      5  C   LIG    1       -3.015  -0.968   2.867  0.00  0.00    +0.001 A 
ATOM      6  C   LIG    1       -2.930  -1.740   1.734  0.00  0.00    +0.000 A 
ATOM      7 CL   LIG    1       -0.190   1.709   2.242  0.00  0.00    -0.083 Cl
ATOM      8  C   LIG    1       -2.002  -1.486   0.739  0.00  0.00    +0.008 A 
ENDBRANCH   1   2
BRANCH   1   9
ATOM      9  C   LIG    1        1.283  -0.429   0.310  0.00  0.00    -0.013 A 
ATOM     10  C   LIG    1        1.569  -0.871   1.575  0.00  0.00    +0.006 A 
ATOM     11  C   LIG    1        2.855  -1.146   1.991  0.00  0.00    +0.000 A 
ATOM     12  C   LIG    1        3.921  -0.971   1.099  0.00  0.00    +0.000 A 
ATOM     13  C   LIG    1        3.665  -0.527  -0.183  0.00  0.00    +0.000 A 
ATOM     14  C   LIG    1        2.368  -0.262  -0.564  0.00  0.00    +0.006 A 
ENDBRANCH   1   9
BRANCH   1  15
ATOM     15  C   LIG    1       -0.190   1.256  -0.640  0.00  0.00    -0.013 A 
ATOM     16  C   LIG    1        0.828   2.159  -0.499  0.00  0.00    +0.006 A 
ATOM     17  C   LIG    1        0.742   3.481  -0.923  0.00  0.00    +0.000 A 
ATOM     18  C   LIG    1       -0.433   3.921  -1.520  0.00  0.00    +0.000 A 
ATOM     19  C   LIG    1       -1.476   3.039  -1.675  0.00  0.00    +0.000 A 
ATOM     20  C   LIG    1       -1.349   1.748  -1.245  0.00  0.00    +0.006 A 
ENDBRANCH   1  15
BRANCH   1  21
ATOM     21  N   LIG    1       -0.258  -1.105  -1.282  0.00  0.00    -0.319 N 
ATOM     22  C   LIG    1        0.089  -2.423  -1.161  0.00  0.00    +0.200 A 
ATOM     23  N   LIG    1       -0.134  -3.058  -2.316  0.00  0.00    -0.244 NA
ATOM     24  C   LIG    1       -0.627  -2.171  -3.206  0.00  0.00    +0.130 A 
ATOM     25  C   LIG    1       -0.692  -0.964  -2.530  0.00  0.00    +0.108 A 
ENDBRANCH   1  21
TORSDOF 4
