REMARK  Name = molecules/VNLOISSPTMDCIF-SOFGYWHQSA-N.pdb
REMARK                            x       y       z     vdW  Elec       q    Type
REMARK                         _______ _______ _______ _____ _____    ______ ____
ROOT
ATOM      1  C   LIG    1        0.388   0.272  -0.021  0.00  0.00    +0.020 A 
ATOM      2  C   LIG    1       -0.337   1.474   0.026  0.00  0.00    +0.015 A 
ATOM      3  C   LIG    1       -1.711   1.527  -0.067  0.00  0.00    +0.046 A 
ATOM      4  C   LIG    1       -2.458   0.399  -0.211  0.00  0.00    +0.124 A 
ATOM      5  C   LIG    1       -1.788  -0.797  -0.261  0.00  0.00    +0.091 A 
ATOM      6  C   LIG    1       -0.378  -0.855  -0.166  0.00  0.00    +0.131 A 
ENDROOT
BRANCH   1   7
ATOM      7  C   LIG    1        1.824   0.250   0.029  0.00  0.00    -0.033 C 
ATOM      8  C   LIG    1        2.566   1.492   0.456  0.00  0.00    +0.045 C 
ATOM      9  C   LIG    1        2.621  -0.769  -0.219  0.00  0.00    +0.095 C 
BRANCH   9  10
ATOM     10  C   LIG    1        4.076  -0.758  -0.110  0.00  0.00    +0.330 C 
ATOM     11  O   LIG    1        4.724  -1.832  -0.379  0.00  0.00    -0.246 OA
BRANCH  10  12
ATOM     12  O   LIG    1        4.811   0.333   0.265  0.00  0.00    -0.478 OA
ATOM     13  H   LIG    1        5.408   0.826  -0.401  0.00  0.00    +0.295 HD
ENDBRANCH  10  12
ENDBRANCH   9  10
ENDBRANCH   1   7
BRANCH   4  14
ATOM     14  O   LIG    1       -3.844   0.399  -0.309  0.00  0.00    -0.495 OA
ATOM     15  C   LIG    1       -4.623   1.564  -0.270  0.00  0.00    +0.277 C 
ENDBRANCH   4  14
BRANCH   6  16
ATOM     16  O   LIG    1        0.229  -2.093  -0.220  0.00  0.00    -0.494 OA
ATOM     17  C   LIG    1       -0.571  -3.241  -0.369  0.00  0.00    +0.277 C 
ENDBRANCH   6  16
TORSDOF 5
