REMARK  Name = molecules/VNQABZCSYCTZMS-UHFFFAOYSA-N.pdb
REMARK                            x       y       z     vdW  Elec       q    Type
REMARK                         _______ _______ _______ _____ _____    ______ ____
ROOT
ATOM      1  C   LIG    1        0.366  -0.016   0.150  0.00  0.00    +0.061 A 
ATOM      2  C   LIG    1       -0.507   1.047   0.132  0.00  0.00    +0.041 A 
ATOM      3  C   LIG    1       -1.877   0.812   0.009  0.00  0.00    +0.067 A 
ATOM      4  C   LIG    1       -2.368  -0.471  -0.093  0.00  0.00    +0.137 A 
ATOM      5  C   LIG    1       -1.474  -1.514  -0.072  0.00  0.00    +0.048 A 
ATOM      6  C   LIG    1       -0.113  -1.317   0.048  0.00  0.00    +0.018 A 
ENDROOT
BRANCH   3   7
ATOM      7  N   LIG    1       -2.725   1.949  -0.004  0.00  0.00    -0.355 N 
ATOM      8  H   LIG    1       -2.465   2.848   0.436  0.00  0.00    +0.142 HD
ATOM      9  H   LIG    1       -3.650   1.862  -0.481  0.00  0.00    +0.142 HD
ENDBRANCH   3   7
BRANCH   1  10
ATOM     10  C   LIG    1        1.790   0.247   0.279  0.00  0.00    +0.339 C 
ATOM     11  O   LIG    1        2.178   1.437   0.368  0.00  0.00    -0.245 OA
BRANCH  10  12
ATOM     12  O   LIG    1        2.736  -0.764   0.306  0.00  0.00    -0.464 OA
ATOM     13  C   LIG    1        4.093  -0.390   0.434  0.00  0.00    +0.280 C 
ENDBRANCH  10  12
ENDBRANCH   1  10
BRANCH   4  14
ATOM     14  O   LIG    1       -3.743  -0.687  -0.215  0.00  0.00    -0.505 OA
ATOM     15  H   LIG    1       -4.138  -1.605  -0.292  0.00  0.00    +0.292 HD
ENDBRANCH   4  14
TORSDOF 4
