REMARK  Name = molecules/VOBHXZCDAVEXEY-JSGCOSHPSA-N.pdb
REMARK                            x       y       z     vdW  Elec       q    Type
REMARK                         _______ _______ _______ _____ _____    ______ ____
ROOT
ATOM      1  N   LIG    1       -0.727  -1.414   0.187  0.00  0.00    -0.311 N 
ATOM      2  H   LIG    1       -0.674  -0.554   0.755  0.00  0.00    +0.149 HD
ATOM      3  C   LIG    1        0.406  -2.275   0.192  0.00  0.00    +0.230 C 
ATOM      4  O   LIG    1        0.318  -3.329  -0.512  0.00  0.00    -0.274 OA
ENDROOT
BRANCH   1   5
ATOM      5  C   LIG    1       -1.913  -1.701  -0.564  0.00  0.00    +0.074 C 
ATOM      6  C   LIG    1       -3.113  -1.946   0.335  0.00  0.00    +0.028 C 
BRANCH   5   7
ATOM      7  C   LIG    1       -2.269  -0.546  -1.457  0.00  0.00    +0.057 C 
BRANCH   7   8
ATOM      8  C   LIG    1       -2.508   0.654  -0.622  0.00  0.00    -0.046 A 
ATOM      9  C   LIG    1       -3.777   0.928  -0.130  0.00  0.00    +0.004 A 
ATOM     10  C   LIG    1       -3.979   2.043   0.642  0.00  0.00    +0.000 A 
ATOM     11  C   LIG    1       -2.943   2.880   0.927  0.00  0.00    +0.000 A 
ATOM     12  C   LIG    1       -1.686   2.635   0.457  0.00  0.00    +0.000 A 
ATOM     13  C   LIG    1       -1.482   1.519  -0.317  0.00  0.00    +0.004 A 
ENDBRANCH   7   8
ENDBRANCH   5   7
ENDBRANCH   1   5
BRANCH   3  14
ATOM     14  C   LIG    1        1.617  -1.987   0.955  0.00  0.00    +0.138 C 
BRANCH  14  15
ATOM     15  N   LIG    1        2.529  -3.114   0.846  0.00  0.00    -0.320 NA
ATOM     16  H   LIG    1        3.457  -2.906   1.253  0.00  0.00    +0.119 HD
ATOM     17  H   LIG    1        2.533  -3.555  -0.077  0.00  0.00    +0.119 HD
ENDBRANCH  14  15
BRANCH  14  18
ATOM     18  C   LIG    1        2.309  -0.693   0.578  0.00  0.00    +0.028 C 
BRANCH  18  19
ATOM     19  C   LIG    1        2.749  -0.647  -0.838  0.00  0.00    +0.003 C 
BRANCH  19  20
ATOM     20  C   LIG    1        3.445   0.657  -1.101  0.00  0.00    +0.015 C 
BRANCH  20  21
ATOM     21  C   LIG    1        2.535   1.820  -0.860  0.00  0.00    +0.077 C 
BRANCH  21  22
ATOM     22  N   LIG    1        3.268   3.070  -1.142  0.00  0.00    -0.330 NA
ATOM     23  H   LIG    1        2.834   3.860  -0.609  0.00  0.00    +0.118 HD
ATOM     24  H   LIG    1        4.256   2.901  -0.842  0.00  0.00    +0.118 HD
ENDBRANCH  21  22
ENDBRANCH  20  21
ENDBRANCH  19  20
ENDBRANCH  18  19
ENDBRANCH  14  18
ENDBRANCH   3  14
TORSDOF 10
