REMARK  Name = molecules/VOGJJBHRUDVEFM-YUMQZZPRSA-N.pdb
REMARK                            x       y       z     vdW  Elec       q    Type
REMARK                         _______ _______ _______ _____ _____    ______ ____
ROOT
ATOM      1  C   LIG    1        1.052   1.152  -0.188  0.00  0.00    +0.165 C 
ATOM      2  C   LIG    1        1.917   0.439   0.765  0.00  0.00    +0.254 C 
ATOM      3  O   LIG    1        2.029   0.713   1.982  0.00  0.00    -0.272 OA
ATOM      4  N   LIG    1        2.575  -0.586   0.051  0.00  0.00    -0.161 N 
ATOM      5  C   LIG    1        2.111  -0.567  -1.298  0.00  0.00    +0.319 C 
ATOM      6  O   LIG    1        2.479  -1.349  -2.244  0.00  0.00    -0.251 OA
ATOM      7  N   LIG    1        1.158   0.475  -1.436  0.00  0.00    -0.287 N 
ATOM      8  H   LIG    1        0.636   0.704  -2.295  0.00  0.00    +0.151 HD
ENDROOT
BRANCH   1   9
ATOM      9  C   LIG    1       -0.389   1.188   0.318  0.00  0.00    +0.018 C 
BRANCH   9  10
ATOM     10  C   LIG    1       -1.113   2.343  -0.213  0.00  0.00    +0.002 C 
ATOM     11  C   LIG    1       -2.325   2.738   0.649  0.00  0.00    +0.004 C 
ENDBRANCH   9  10
BRANCH   9  12
ATOM     12  C   LIG    1       -1.046  -0.108   0.488  0.00  0.00    +0.006 C 
BRANCH  12  13
ATOM     13  C   LIG    1       -1.636  -0.736  -0.736  0.00  0.00    +0.000 C 
BRANCH  13  14
ATOM     14  C   LIG    1       -2.255  -2.093  -0.401  0.00  0.00    -0.003 C 
ATOM     15  C   LIG    1       -3.331  -2.021   0.644  0.00  0.00    +0.004 C 
ENDBRANCH  13  14
ENDBRANCH  12  13
ENDBRANCH   9  12
ENDBRANCH   1   9
BRANCH   4  16
ATOM     16  S   LIG    1        3.761  -1.705   0.705  0.00  0.00    +0.008 S 
BRANCH  16  17
ATOM     17  C   LIG    1        5.444  -1.318   0.130  0.00  0.00    +0.255 C 
ATOM     18 CL   LIG    1        6.510  -2.511   0.923  0.00  0.00    -0.070 Cl
ATOM     19 CL   LIG    1        5.934   0.327   0.505  0.00  0.00    -0.070 Cl
ATOM     20 CL   LIG    1        5.610  -1.555  -1.619  0.00  0.00    -0.070 Cl
ENDBRANCH  16  17
ENDBRANCH   4  16
TORSDOF 7
