REMARK  Name = molecules/VOIFKEWOFUNPBN-QIUUJYRFSA-N.pdb
REMARK                            x       y       z     vdW  Elec       q    Type
REMARK                         _______ _______ _______ _____ _____    ______ ____
ROOT
ATOM      1  C   LIG    1        0.223  -1.048   0.004  0.00  0.00    +0.183 C 
ATOM      2  C   LIG    1       -1.006  -0.669   0.808  0.00  0.00    +0.179 C 
ATOM      3  C   LIG    1       -1.860   0.343   0.105  0.00  0.00    +0.201 C 
ATOM      4  C   LIG    1       -0.993   1.454  -0.440  0.00  0.00    +0.279 C 
ATOM      5  O   LIG    1        0.043   0.936  -1.221  0.00  0.00    -0.334 OA
ATOM      6  C   LIG    1        0.904   0.274  -0.353  0.00  0.00    +0.237 C 
ENDROOT
BRANCH   6   7
ATOM      7  C   LIG    1        2.250   0.094  -0.884  0.00  0.00    +0.242 C 
ATOM      8  N   LIG    1        3.225  -0.561  -0.108  0.00  0.00    -0.327 N 
ATOM      9  H   LIG    1        3.908  -0.022   0.442  0.00  0.00    +0.145 HD
ATOM     10  H   LIG    1        3.255  -1.591  -0.091  0.00  0.00    +0.145 HD
ATOM     11  O   LIG    1        2.557   0.515  -2.026  0.00  0.00    -0.273 OA
ENDBRANCH   6   7
BRANCH   1  12
ATOM     12  O   LIG    1        1.107  -1.737   0.832  0.00  0.00    -0.386 OA
ATOM     13  H   LIG    1        1.083  -2.722   0.624  0.00  0.00    +0.210 HD
ENDBRANCH   1  12
BRANCH   2  14
ATOM     14  O   LIG    1       -1.803  -1.773   1.095  0.00  0.00    -0.386 OA
ATOM     15  H   LIG    1       -2.317  -2.037   0.275  0.00  0.00    +0.210 HD
ENDBRANCH   2  14
BRANCH   3  16
ATOM     16  O   LIG    1       -2.740   0.900   1.035  0.00  0.00    -0.384 OA
ATOM     17  H   LIG    1       -2.234   1.512   1.637  0.00  0.00    +0.210 HD
ENDBRANCH   3  16
BRANCH   4  18
ATOM     18  O   LIG    1       -1.726   2.413  -1.097  0.00  0.00    -0.365 OA
ATOM     19  H   LIG    1       -1.220   2.888  -1.808  0.00  0.00    +0.213 HD
ENDBRANCH   4  18
TORSDOF 5
