REMARK  Name = molecules/VOJLELRQLPENHL-INIZCTEOSA-N.pdb
REMARK                            x       y       z     vdW  Elec       q    Type
REMARK                         _______ _______ _______ _____ _____    ______ ____
ROOT
ATOM      1  N   LIG    1        2.058   0.051  -0.458  0.00  0.00    -0.265 N 
ATOM      2  C   LIG    1        1.092   0.806   0.283  0.00  0.00    +0.046 A 
ATOM      3  C   LIG    1        1.579   1.944   0.866  0.00  0.00    +0.025 A 
ATOM      4  C   LIG    1        0.759   2.674   1.729  0.00  0.00    +0.022 A 
ATOM      5  C   LIG    1       -0.532   2.272   2.008  0.00  0.00    +0.042 A 
ATOM      6 CL   LIG    1       -1.578   3.164   3.089  0.00  0.00    -0.084 Cl
ATOM      7  C   LIG    1       -0.996   1.125   1.404  0.00  0.00    +0.032 A 
ATOM      8  C   LIG    1       -0.229   0.374   0.539  0.00  0.00    +0.023 A 
ATOM      9  C   LIG    1       -0.958  -0.713  -0.034  0.00  0.00    +0.081 C 
ATOM     10  N   LIG    1       -0.420  -1.865  -0.338  0.00  0.00    -0.243 NA
ATOM     11  C   LIG    1        0.952  -2.309  -0.198  0.00  0.00    +0.320 C 
ATOM     12  C   LIG    1        1.874  -1.331  -0.855  0.00  0.00    +0.271 C 
ATOM     13  O   LIG    1        2.568  -1.666  -1.826  0.00  0.00    -0.270 OA
ENDROOT
BRANCH   9  14
ATOM     14  C   LIG    1       -2.356  -0.536  -0.311  0.00  0.00    +0.036 A 
ATOM     15  C   LIG    1       -3.074   0.611  -0.365  0.00  0.00    +0.013 A 
ATOM     16  C   LIG    1       -4.380   0.610  -0.786  0.00  0.00    +0.001 A 
ATOM     17  C   LIG    1       -5.039  -0.528  -1.177  0.00  0.00    +0.003 A 
ATOM     18  C   LIG    1       -4.334  -1.700  -1.135  0.00  0.00    +0.039 A 
ATOM     19  C   LIG    1       -3.033  -1.705  -0.715  0.00  0.00    +0.133 A 
ATOM     20  F   LIG    1       -2.384  -2.908  -0.693  0.00  0.00    -0.205 F 
ENDBRANCH   9  14
BRANCH  11  21
ATOM     21  O   LIG    1        1.053  -3.528  -0.851  0.00  0.00    -0.364 OA
ATOM     22  H   LIG    1        0.200  -4.013  -0.666  0.00  0.00    +0.212 HD
ENDBRANCH  11  21
BRANCH   1  23
ATOM     23  C   LIG    1        3.247   0.707  -0.844  0.00  0.00    +0.141 C 
BRANCH  23  24
ATOM     24  C   LIG    1        4.444   0.519   0.053  0.00  0.00    +0.175 C 
BRANCH  24  25
ATOM     25  O   LIG    1        4.349   0.877   1.355  0.00  0.00    -0.393 OA
ATOM     26  H   LIG    1        3.735   0.227   1.822  0.00  0.00    +0.209 HD
ENDBRANCH  24  25
ENDBRANCH  23  24
ENDBRANCH   1  23
TORSDOF 5
