REMARK  Name = molecules/VOKSWYLNZZRQPF-GDIGMMSISA-N.pdb
REMARK                            x       y       z     vdW  Elec       q    Type
REMARK                         _______ _______ _______ _____ _____    ______ ____
ROOT
ATOM      1  C   LIG    1       -2.333   2.346   0.708  0.00  0.00    +0.016 C 
ATOM      2  C   LIG    1       -1.404   1.155   0.479  0.00  0.00    -0.002 C 
ATOM      3  C   LIG    1       -0.966   0.547   1.790  0.00  0.00    +0.014 C 
ATOM      4  C   LIG    1       -2.091  -0.021   2.573  0.00  0.00    +0.010 C 
ATOM      5  C   LIG    1        0.051  -0.513   1.471  0.00  0.00    +0.065 C 
ATOM      6  N   LIG    1        1.213   0.195   1.006  0.00  0.00    -0.295 NA
ATOM      7  C   LIG    1        1.028   0.939  -0.185  0.00  0.00    +0.086 C 
ATOM      8  C   LIG    1       -0.372  -1.477   0.418  0.00  0.00    +0.054 C 
ATOM      9  C   LIG    1       -1.691  -1.157  -0.188  0.00  0.00    -0.042 A 
ATOM     10  C   LIG    1       -2.441  -2.158  -0.799  0.00  0.00    +0.007 A 
ATOM     11  C   LIG    1       -3.665  -1.872  -1.364  0.00  0.00    +0.045 A 
ATOM     12  C   LIG    1       -4.207  -0.603  -1.357  0.00  0.00    +0.117 A 
ATOM     13  C   LIG    1       -3.454   0.384  -0.747  0.00  0.00    +0.049 A 
ATOM     14  C   LIG    1       -2.229   0.109  -0.180  0.00  0.00    -0.034 A 
ATOM     15  C   LIG    1       -0.285   1.581  -0.387  0.00  0.00    +0.027 C 
ENDROOT
BRANCH  12  16
ATOM     16  O   LIG    1       -5.443  -0.347  -1.935  0.00  0.00    -0.507 OA
ATOM     17  H   LIG    1       -6.276  -0.439  -1.339  0.00  0.00    +0.292 HD
ENDBRANCH  12  16
BRANCH   6  18
ATOM     18  C   LIG    1        2.419  -0.607   1.009  0.00  0.00    +0.112 C 
BRANCH  18  19
ATOM     19  C   LIG    1        3.543   0.226   0.506  0.00  0.00    -0.013 C 
ATOM     20  C   LIG    1        4.253  -0.079  -0.563  0.00  0.00    -0.078 C 
ATOM     21  C   LIG    1        5.359   0.803  -1.002  0.00  0.00    +0.038 C 
ATOM     22  C   LIG    1        3.946  -1.312  -1.324  0.00  0.00    +0.038 C 
ENDBRANCH  18  19
ENDBRANCH   6  18
TORSDOF 3
