REMARK  Name = molecules/VOVIALXJUBGFJZ-AMTWPJRWSA-N.pdb
REMARK                            x       y       z     vdW  Elec       q    Type
REMARK                         _______ _______ _______ _____ _____    ______ ____
ROOT
ATOM      1  C   LIG    1        1.911   0.195   0.870  0.00  0.00    +0.164 C 
ATOM      2  C   LIG    1        0.419   0.362   1.023  0.00  0.00    +0.012 C 
ATOM      3  C   LIG    1        0.074   0.337   2.484  0.00  0.00    +0.015 C 
ATOM      4  C   LIG    1       -0.128   1.543   0.302  0.00  0.00    +0.042 C 
ATOM      5  C   LIG    1       -1.630   1.522   0.313  0.00  0.00    +0.120 C 
ATOM      6  C   LIG    1       -2.169   0.238  -0.177  0.00  0.00    +0.035 C 
ATOM      7  C   LIG    1       -1.585  -1.008   0.435  0.00  0.00    -0.000 C 
ATOM      8  C   LIG    1       -1.987  -2.230  -0.355  0.00  0.00    +0.008 C 
ATOM      9  C   LIG    1       -3.418  -2.300  -0.738  0.00  0.00    +0.032 C 
ATOM     10  C   LIG    1       -4.050  -0.990  -0.983  0.00  0.00    -0.056 C 
ATOM     11  C   LIG    1       -4.913  -0.889  -1.977  0.00  0.00    +0.051 C 
ATOM     12  C   LIG    1       -5.560   0.410  -2.257  0.00  0.00    +0.179 C 
ATOM     13  C   LIG    1       -5.220   1.546  -1.418  0.00  0.00    +0.047 C 
ATOM     14  C   LIG    1       -4.367   1.399  -0.453  0.00  0.00    -0.012 C 
ATOM     15  O   LIG    1       -6.387   0.556  -3.190  0.00  0.00    -0.288 OA
ATOM     16  C   LIG    1       -3.676   0.139  -0.105  0.00  0.00    +0.013 C 
ATOM     17  C   LIG    1       -4.126  -0.233   1.303  0.00  0.00    +0.020 C 
ATOM     18  C   LIG    1       -0.095  -0.861   0.296  0.00  0.00    +0.004 C 
ATOM     19  C   LIG    1        0.738  -1.924   0.903  0.00  0.00    +0.039 C 
ATOM     20  C   LIG    1        2.122  -1.277   0.782  0.00  0.00    +0.161 C 
ATOM     21  O   LIG    1        2.561  -1.538  -0.513  0.00  0.00    -0.345 OA
ATOM     22  C   LIG    1        2.737  -0.324  -1.167  0.00  0.00    +0.252 C 
ATOM     23  O   LIG    1        2.353   0.693  -0.358  0.00  0.00    -0.334 OA
ENDROOT
BRANCH   1  24
ATOM     24  C   LIG    1        2.659   0.829   1.985  0.00  0.00    +0.193 C 
ATOM     25  O   LIG    1        2.587   0.403   3.116  0.00  0.00    -0.292 OA
BRANCH  24  26
ATOM     26  C   LIG    1        3.536   2.017   1.801  0.00  0.00    +0.233 C 
BRANCH  26  27
ATOM     27  O   LIG    1        3.525   2.548   0.538  0.00  0.00    -0.387 OA
ATOM     28  H   LIG    1        2.690   3.086   0.421  0.00  0.00    +0.210 HD
ENDBRANCH  26  27
ENDBRANCH  24  26
ENDBRANCH   1  24
BRANCH   5  29
ATOM     29  O   LIG    1       -2.096   1.917   1.565  0.00  0.00    -0.391 OA
ATOM     30  H   LIG    1       -2.238   2.889   1.635  0.00  0.00    +0.210 HD
ENDBRANCH   5  29
BRANCH  22  31
ATOM     31  C   LIG    1        4.119  -0.285  -1.727  0.00  0.00    +0.061 C 
BRANCH  31  32
ATOM     32  C   LIG    1        5.214  -0.303  -0.699  0.00  0.00    +0.002 C 
ATOM     33  C   LIG    1        6.582  -0.266  -1.368  0.00  0.00    +0.004 C 
ENDBRANCH  31  32
ENDBRANCH  22  31
TORSDOF 6
