REMARK  Name = molecules/VPBQKRKRYYPMOF-DHIUTWEWSA-N.pdb
REMARK                            x       y       z     vdW  Elec       q    Type
REMARK                         _______ _______ _______ _____ _____    ______ ____
ROOT
ATOM      1  C   LIG    1       -1.589  -1.454   1.303  0.00  0.00    +0.165 C 
ENDROOT
BRANCH   1   2
ATOM      2  C   LIG    1       -1.070  -0.854   0.006  0.00  0.00    +0.235 C 
ATOM      3  N   LIG    1        0.112  -0.113   0.027  0.00  0.00    -0.295 N 
ATOM      4  H   LIG    1        0.639   0.004   0.953  0.00  0.00    +0.151 HD
ATOM      5  O   LIG    1       -1.716  -1.037  -1.061  0.00  0.00    -0.274 OA
BRANCH   3   6
ATOM      6  C   LIG    1        0.747   0.535  -1.110  0.00  0.00    +0.164 C 
BRANCH   6   7
ATOM      7  N   LIG    1        1.181   1.859  -0.741  0.00  0.00    -0.299 N 
ATOM      8  H   LIG    1        1.758   1.978   0.140  0.00  0.00    +0.150 HD
ATOM      9  C   LIG    1        0.868   3.014  -1.487  0.00  0.00    +0.326 C 
ATOM     10  O   LIG    1        0.175   2.977  -2.546  0.00  0.00    -0.279 OA
ENDBRANCH   6   7
BRANCH   6  11
ATOM     11  C   LIG    1        1.933  -0.372  -1.487  0.00  0.00    +0.079 C 
BRANCH  11  12
ATOM     12  C   LIG    1        2.666   0.196  -2.654  0.00  0.00    -0.019 A 
ATOM     13  C   LIG    1        3.607   1.195  -2.730  0.00  0.00    +0.003 A 
ATOM     14  C   LIG    1        4.201   1.953  -1.755  0.00  0.00    +0.010 A 
ATOM     15  C   LIG    1        5.141   2.903  -2.106  0.00  0.00    +0.001 A 
ATOM     16  C   LIG    1        5.490   3.100  -3.429  0.00  0.00    +0.002 A 
ATOM     17  C   LIG    1        4.897   2.340  -4.429  0.00  0.00    +0.026 A 
ATOM     18  C   LIG    1        3.961   1.395  -4.054  0.00  0.00    +0.047 A 
ATOM     19  N   LIG    1        3.237   0.519  -4.790  0.00  0.00    -0.360 N 
ATOM     20  H   LIG    1        3.283   0.434  -5.822  0.00  0.00    +0.165 HD
ATOM     21  C   LIG    1        2.458  -0.208  -3.980  0.00  0.00    +0.087 A 
ENDBRANCH  11  12
ENDBRANCH   6  11
ENDBRANCH   3   6
ENDBRANCH   1   2
BRANCH   1  22
ATOM     22  N   LIG    1       -2.264  -2.700   1.007  0.00  0.00    -0.302 N 
ATOM     23  C   LIG    1       -1.652  -3.920   1.341  0.00  0.00    +0.233 C 
ATOM     24  O   LIG    1       -0.530  -3.919   1.887  0.00  0.00    -0.274 OA
ATOM     25  H   LIG    1       -3.187  -2.671   0.553  0.00  0.00    +0.150 HD
BRANCH  23  26
ATOM     26  C   LIG    1       -2.284  -5.241   1.072  0.00  0.00    +0.088 C 
ATOM     27  C   LIG    1       -3.445  -5.496   2.009  0.00  0.00    +0.037 C 
ATOM     28  C   LIG    1       -2.779  -5.260  -0.335  0.00  0.00    +0.037 C 
BRANCH  26  29
ATOM     29  N   LIG    1       -1.305  -6.279   1.279  0.00  0.00    -0.318 NA
ATOM     30  H   LIG    1       -1.283  -6.665   2.245  0.00  0.00    +0.119 HD
ATOM     31  H   LIG    1       -0.342  -5.947   0.966  0.00  0.00    +0.119 HD
ENDBRANCH  26  29
ENDBRANCH  23  26
ENDBRANCH   1  22
BRANCH   1  32
ATOM     32  C   LIG    1       -2.654  -0.534   1.866  0.00  0.00    +0.085 C 
BRANCH  32  33
ATOM     33  C   LIG    1       -2.191   0.829   2.154  0.00  0.00    +0.019 A 
ATOM     34  N   LIG    1       -1.720   1.354   3.284  0.00  0.00    -0.358 N 
ATOM     35  H   LIG    1       -1.593   0.823   4.188  0.00  0.00    +0.166 HD
ATOM     36  C   LIG    1       -1.417   2.651   3.153  0.00  0.00    +0.047 A 
ATOM     37  C   LIG    1       -0.918   3.643   3.973  0.00  0.00    +0.026 A 
ATOM     38  C   LIG    1       -0.710   4.933   3.542  0.00  0.00    +0.002 A 
ATOM     39  C   LIG    1       -1.019   5.247   2.212  0.00  0.00    +0.001 A 
ATOM     40  C   LIG    1       -1.516   4.295   1.357  0.00  0.00    +0.010 A 
ATOM     41  C   LIG    1       -1.706   3.006   1.852  0.00  0.00    -0.000 A 
ATOM     42  C   LIG    1       -2.188   1.882   1.226  0.00  0.00    +0.031 A 
ENDBRANCH  32  33
ENDBRANCH   1  32
TORSDOF 10
