REMARK  Name = molecules/VPGRYOFKCNULNK-ACXQXYJUSA-N.pdb
REMARK                            x       y       z     vdW  Elec       q    Type
REMARK                         _______ _______ _______ _____ _____    ______ ____
ROOT
ATOM      1  C   LIG    1        1.656  -1.279   0.646  0.00  0.00    +0.012 C 
ATOM      2  C   LIG    1        1.102  -0.254  -0.281  0.00  0.00    -0.019 C 
ATOM      3  C   LIG    1        0.634   0.976   0.395  0.00  0.00    +0.008 C 
ATOM      4  C   LIG    1       -0.751   0.910   0.934  0.00  0.00    +0.005 C 
ATOM      5  C   LIG    1       -1.690   0.266  -0.035  0.00  0.00    +0.002 C 
ATOM      6  C   LIG    1       -3.118   0.254   0.373  0.00  0.00    -0.007 C 
ATOM      7  C   LIG    1       -3.389  -0.691   1.515  0.00  0.00    +0.016 C 
ATOM      8  C   LIG    1       -3.497   1.653   0.837  0.00  0.00    +0.019 C 
ATOM      9  C   LIG    1       -5.003   1.690   1.031  0.00  0.00    +0.080 C 
ATOM     10  C   LIG    1       -5.631   1.460  -0.288  0.00  0.00    +0.156 C 
ATOM     11  O   LIG    1       -6.623   2.146  -0.613  0.00  0.00    -0.293 OA
ATOM     12  C   LIG    1       -5.051   0.436  -1.147  0.00  0.00    +0.046 C 
ATOM     13  C   LIG    1       -3.897  -0.119  -0.844  0.00  0.00    -0.060 C 
ATOM     14  C   LIG    1       -3.340  -1.147  -1.741  0.00  0.00    +0.032 C 
ATOM     15  C   LIG    1       -2.227  -1.926  -1.121  0.00  0.00    +0.008 C 
ATOM     16  C   LIG    1       -1.173  -1.126  -0.439  0.00  0.00    -0.003 C 
ATOM     17  C   LIG    1        0.042  -0.870  -1.222  0.00  0.00    -0.001 C 
ATOM     18  C   LIG    1        0.819  -2.002  -1.764  0.00  0.00    +0.005 C 
ATOM     19  C   LIG    1        2.211  -1.374  -1.974  0.00  0.00    +0.012 C 
ATOM     20  C   LIG    1        2.124   0.007  -1.379  0.00  0.00    +0.065 C 
ENDROOT
BRANCH  20  21
ATOM     21  C   LIG    1        3.368   0.621  -0.959  0.00  0.00    +0.174 C 
ATOM     22  O   LIG    1        3.614   1.732  -1.487  0.00  0.00    -0.293 OA
BRANCH  21  23
ATOM     23  C   LIG    1        4.374   0.137  -0.015  0.00  0.00    +0.306 C 
BRANCH  23  24
ATOM     24  O   LIG    1        5.447   1.087   0.043  0.00  0.00    -0.457 OA
BRANCH  24  25
ATOM     25  C   LIG    1        6.551   0.889   0.863  0.00  0.00    +0.304 C 
ATOM     26  O   LIG    1        6.560  -0.165   1.551  0.00  0.00    -0.251 OA
ATOM     27  C   LIG    1        7.671   1.866   0.933  0.00  0.00    +0.136 C 
ENDBRANCH  24  25
ENDBRANCH  23  24
ENDBRANCH  21  23
ENDBRANCH  20  21
TORSDOF 4
