REMARK  Name = molecules/VPHPQNGOVQYUMG-UHFFFAOYSA-N.pdb
REMARK                            x       y       z     vdW  Elec       q    Type
REMARK                         _______ _______ _______ _____ _____    ______ ____
ROOT
ATOM      1  C   LIG    1        1.183  -1.602   0.722  0.00  0.00    +0.241 C 
ATOM      2  S   LIG    1        1.676  -1.464   2.273  0.00  0.00    +0.007 S 
ENDROOT
BRANCH   1   3
ATOM      3  N   LIG    1        2.054  -1.416  -0.376  0.00  0.00    -0.253 N 
ATOM      4  C   LIG    1        1.542  -1.556  -1.720  0.00  0.00    +0.140 C 
BRANCH   3   5
ATOM      5  C   LIG    1        3.426  -1.095  -0.215  0.00  0.00    +0.132 A 
ATOM      6  C   LIG    1        4.349  -2.115  -0.120  0.00  0.00    +0.044 A 
ATOM      7  C   LIG    1        5.713  -1.844   0.040  0.00  0.00    +0.009 A 
ATOM      8  C   LIG    1        6.130  -0.522   0.103  0.00  0.00    +0.067 A 
ATOM      9  C   LIG    1        5.180   0.473   0.005  0.00  0.00    +0.216 A 
ATOM     10  N   LIG    1        3.879   0.168  -0.148  0.00  0.00    -0.198 NA
BRANCH   9  11
ATOM     11  O   LIG    1        5.614   1.790   0.070  0.00  0.00    -0.480 OA
ATOM     12  C   LIG    1        4.736   2.893  -0.019  0.00  0.00    +0.279 C 
ENDBRANCH   9  11
ENDBRANCH   3   5
ENDBRANCH   1   3
BRANCH   1  13
ATOM     13  O   LIG    1       -0.147  -1.915   0.509  0.00  0.00    -0.435 OA
BRANCH  13  14
ATOM     14  C   LIG    1       -1.169  -0.992   0.612  0.00  0.00    +0.131 A 
ATOM     15  C   LIG    1       -0.886   0.317   0.941  0.00  0.00    +0.046 A 
ATOM     16  C   LIG    1       -1.938   1.230   1.038  0.00  0.00    +0.007 A 
ATOM     17  C   LIG    1       -3.236   0.879   0.821  0.00  0.00    -0.044 A 
ATOM     18  C   LIG    1       -4.351   1.822   0.918  0.00  0.00    +0.035 C 
ATOM     19  C   LIG    1       -5.410   1.654  -0.115  0.00  0.00    +0.005 C 
ATOM     20  C   LIG    1       -5.665   0.249  -0.537  0.00  0.00    +0.005 C 
ATOM     21  C   LIG    1       -4.932  -0.785   0.261  0.00  0.00    +0.035 C 
ATOM     22  C   LIG    1       -3.512  -0.433   0.491  0.00  0.00    -0.041 A 
ATOM     23  C   LIG    1       -2.484  -1.338   0.394  0.00  0.00    +0.050 A 
ENDBRANCH  13  14
ENDBRANCH   1  13
TORSDOF 5
