REMARK  Name = molecules/VPPJLAIAVCUEMN-GFCCVEGCSA-N.pdb
REMARK                            x       y       z     vdW  Elec       q    Type
REMARK                         _______ _______ _______ _____ _____    ______ ____
ROOT
ATOM      1  N   LIG    1        0.842  -0.639  -1.184  0.00  0.00    -0.310 N 
ATOM      2  C   LIG    1       -0.151  -0.474  -0.205  0.00  0.00    +0.236 C 
ATOM      3  O   LIG    1        0.052  -0.961   0.933  0.00  0.00    -0.274 OA
ATOM      4  H   LIG    1        0.725  -0.251  -2.139  0.00  0.00    +0.149 HD
ENDROOT
BRANCH   1   5
ATOM      5  C   LIG    1        2.084  -1.345  -0.935  0.00  0.00    +0.139 C 
BRANCH   5   6
ATOM      6  C   LIG    1        3.031  -0.538  -0.157  0.00  0.00    -0.030 A 
ATOM      7  C   LIG    1        3.191  -0.719   1.177  0.00  0.00    +0.005 A 
ATOM      8  C   LIG    1        4.084   0.056   1.887  0.00  0.00    +0.000 A 
ATOM      9  C   LIG    1        4.827   1.027   1.238  0.00  0.00    +0.000 A 
ATOM     10  C   LIG    1        4.678   1.224  -0.116  0.00  0.00    +0.000 A 
ATOM     11  C   LIG    1        3.783   0.441  -0.799  0.00  0.00    +0.005 A 
ENDBRANCH   5   6
ENDBRANCH   1   5
BRANCH   2  12
ATOM     12  C   LIG    1       -1.399   0.250  -0.498  0.00  0.00    +0.185 C 
BRANCH  12  13
ATOM     13  N   LIG    1       -2.267   0.349   0.639  0.00  0.00    -0.302 N 
ATOM     14  H   LIG    1       -2.428  -0.426   1.309  0.00  0.00    +0.150 HD
ATOM     15  C   LIG    1       -2.930   1.611   0.904  0.00  0.00    +0.211 C 
ATOM     16  C   LIG    1       -3.833   1.765   2.063  0.00  0.00    +0.109 C 
ATOM     17  O   LIG    1       -2.748   2.595   0.151  0.00  0.00    -0.276 OA
ENDBRANCH  12  13
BRANCH  12  18
ATOM     18  C   LIG    1       -2.048  -0.245  -1.750  0.00  0.00    +0.191 C 
BRANCH  18  19
ATOM     19  O   LIG    1       -2.567  -1.458  -1.757  0.00  0.00    -0.381 OA
ATOM     20  C   LIG    1       -3.579  -1.905  -1.021  0.00  0.00    +0.194 C 
ENDBRANCH  18  19
ENDBRANCH  12  18
ENDBRANCH   2  12
TORSDOF 6
