REMARK  Name = molecules/VQASKUSHBVDKGU-ZETCQYMHSA-N.pdb
REMARK                            x       y       z     vdW  Elec       q    Type
REMARK                         _______ _______ _______ _____ _____    ______ ____
ROOT
ATOM      1  C   LIG    1       -0.495  -0.441   0.100  0.00  0.00    +0.188 C 
ATOM      2  O   LIG    1        0.054  -0.372   1.399  0.00  0.00    -0.434 OA
ATOM      3  C   LIG    1        1.370   0.060   1.353  0.00  0.00    +0.410 C 
ATOM      4  O   LIG    1        2.098   0.490   2.288  0.00  0.00    -0.226 OA
ATOM      5  N   LIG    1        1.829  -0.054   0.010  0.00  0.00    -0.207 N 
ATOM      6  C   LIG    1        3.149   0.285  -0.507  0.00  0.00    +0.144 C 
ATOM      7  C   LIG    1       -1.371  -1.633  -0.118  0.00  0.00    +0.066 C 
ATOM      8  C   LIG    1        0.731  -0.570  -0.733  0.00  0.00    +0.268 C 
ATOM      9  O   LIG    1        0.741  -1.054  -1.880  0.00  0.00    -0.271 OA
ENDROOT
BRANCH   1  11
ATOM     10  C   LIG    1       -2.427   1.113   0.485  0.00  0.00    +0.008 C 
ATOM     11  C   LIG    1       -1.160   0.861  -0.301  0.00  0.00    +0.054 C 
ENDBRANCH   1  11
TORSDOF 1
