REMARK  Name = molecules/VQHSOMBJVWLPSR-JVCRWLNRSA-N.pdb
REMARK                            x       y       z     vdW  Elec       q    Type
REMARK                         _______ _______ _______ _____ _____    ______ ____
ROOT
ATOM      1  O   LIG    1        0.066  -0.173   0.037  0.00  0.00    -0.340 OA
ENDROOT
BRANCH   1   2
ATOM      2  C   LIG    1        1.070   0.433   0.765  0.00  0.00    +0.282 C 
ATOM      3  C   LIG    1        2.092  -0.475   1.320  0.00  0.00    +0.201 C 
ATOM      4  C   LIG    1        3.400   0.275   1.456  0.00  0.00    +0.179 C 
ATOM      5  C   LIG    1        3.883   0.680   0.067  0.00  0.00    +0.177 C 
ATOM      6  C   LIG    1        2.670   1.229  -0.643  0.00  0.00    +0.178 C 
ATOM      7  O   LIG    1        1.618   1.538   0.180  0.00  0.00    -0.341 OA
BRANCH   5   8
ATOM      8  O   LIG    1        4.494  -0.353  -0.604  0.00  0.00    -0.386 OA
ATOM      9  H   LIG    1        5.075  -0.833   0.045  0.00  0.00    +0.210 HD
ENDBRANCH   5   8
BRANCH   4  10
ATOM     10  O   LIG    1        4.351  -0.412   2.169  0.00  0.00    -0.386 OA
ATOM     11  H   LIG    1        4.226  -0.266   3.143  0.00  0.00    +0.210 HD
ENDBRANCH   4  10
BRANCH   3  12
ATOM     12  O   LIG    1        1.796  -0.939   2.604  0.00  0.00    -0.384 OA
ATOM     13  H   LIG    1        1.280  -0.259   3.087  0.00  0.00    +0.210 HD
ENDBRANCH   3  12
BRANCH   6  14
ATOM     14  C   LIG    1        2.259   0.401  -1.832  0.00  0.00    +0.190 C 
BRANCH  14  15
ATOM     15  O   LIG    1        1.334   1.202  -2.543  0.00  0.00    -0.392 OA
ATOM     16  H   LIG    1        1.519   1.024  -3.507  0.00  0.00    +0.210 HD
ENDBRANCH  14  15
ENDBRANCH   6  14
ENDBRANCH   1   2
BRANCH   1  17
ATOM     17  C   LIG    1       -1.181  -0.106   0.637  0.00  0.00    +0.183 C 
BRANCH  17  18
ATOM     18  C   LIG    1       -1.579  -1.492   1.017  0.00  0.00    +0.171 C 
BRANCH  18  19
ATOM     19  O   LIG    1       -1.668  -2.401  -0.003  0.00  0.00    -0.387 OA
ATOM     20  H   LIG    1       -0.817  -2.701  -0.377  0.00  0.00    +0.210 HD
ENDBRANCH  18  19
BRANCH  18  21
ATOM     21  C   LIG    1       -2.849  -1.553   1.829  0.00  0.00    +0.189 C 
BRANCH  21  22
ATOM     22  O   LIG    1       -3.044  -2.823   2.372  0.00  0.00    -0.392 OA
ATOM     23  H   LIG    1       -3.794  -2.747   3.015  0.00  0.00    +0.210 HD
ENDBRANCH  21  22
ENDBRANCH  18  21
ENDBRANCH  17  18
BRANCH  17  24
ATOM     24  C   LIG    1       -2.105   0.640  -0.245  0.00  0.00    +0.176 C 
BRANCH  24  25
ATOM     25  O   LIG    1       -3.399   0.769   0.315  0.00  0.00    -0.386 OA
ATOM     26  H   LIG    1       -3.231   1.091   1.256  0.00  0.00    +0.210 HD
ENDBRANCH  24  25
BRANCH  24  27
ATOM     27  C   LIG    1       -2.169   0.216  -1.674  0.00  0.00    +0.171 C 
BRANCH  27  28
ATOM     28  O   LIG    1       -2.808  -1.001  -1.889  0.00  0.00    -0.387 OA
ATOM     29  H   LIG    1       -3.742  -0.897  -1.604  0.00  0.00    +0.210 HD
ENDBRANCH  27  28
BRANCH  27  30
ATOM     30  C   LIG    1       -3.019   1.261  -2.414  0.00  0.00    +0.189 C 
BRANCH  30  31
ATOM     31  O   LIG    1       -3.030   0.891  -3.756  0.00  0.00    -0.392 OA
ATOM     32  H   LIG    1       -3.329   1.680  -4.266  0.00  0.00    +0.210 HD
ENDBRANCH  30  31
ENDBRANCH  27  30
ENDBRANCH  24  27
ENDBRANCH  17  24
ENDBRANCH   1  17
TORSDOF 17
