REMARK  Name = molecules/VQODGRNSFPNSQE-DVTGEIKXSA-N.pdb
REMARK                            x       y       z     vdW  Elec       q    Type
REMARK                         _______ _______ _______ _____ _____    ______ ____
ROOT
ATOM      1  C   LIG    1       -0.642   0.507   2.273  0.00  0.00    +0.015 C 
ATOM      2  C   LIG    1       -0.746   0.185   0.836  0.00  0.00    +0.010 C 
ATOM      3  C   LIG    1       -0.292  -1.221   0.528  0.00  0.00    +0.044 C 
ATOM      4  C   LIG    1        1.226  -1.351   0.650  0.00  0.00    +0.154 C 
ATOM      5  C   LIG    1        1.886  -0.417  -0.288  0.00  0.00    +0.153 C 
ATOM      6  C   LIG    1        1.533   1.020   0.140  0.00  0.00    +0.034 C 
ATOM      7  C   LIG    1        2.170   2.007  -0.804  0.00  0.00    +0.011 C 
ATOM      8  C   LIG    1        3.680   1.928  -0.829  0.00  0.00    +0.032 C 
ATOM      9  C   LIG    1        3.965   0.498  -1.215  0.00  0.00    -0.053 C 
ATOM     10  C   LIG    1        4.712   0.295  -2.263  0.00  0.00    +0.051 C 
ATOM     11  C   LIG    1        5.019  -1.035  -2.786  0.00  0.00    +0.179 C 
ATOM     12  C   LIG    1        4.432  -2.152  -2.062  0.00  0.00    +0.047 C 
ATOM     13  C   LIG    1        3.686  -1.896  -1.010  0.00  0.00    -0.009 C 
ATOM     14  O   LIG    1        5.731  -1.225  -3.780  0.00  0.00    -0.288 OA
ATOM     15  C   LIG    1        3.362  -0.591  -0.451  0.00  0.00    +0.044 C 
ATOM     16  C   LIG    1        4.079  -0.560   0.914  0.00  0.00    +0.023 C 
ATOM     17  F   LIG    1        1.299  -0.572  -1.530  0.00  0.00    -0.238 F 
ATOM     18  C   LIG    1       -2.079   0.504   0.191  0.00  0.00    +0.134 C 
ATOM     19  C   LIG    1       -2.045   1.993   0.082  0.00  0.00    +0.026 C 
ATOM     20  C   LIG    1       -2.929   2.746   1.008  0.00  0.00    +0.011 C 
ATOM     21  C   LIG    1       -0.575   2.422   0.220  0.00  0.00    +0.011 C 
ATOM     22  C   LIG    1        0.078   1.115  -0.051  0.00  0.00    +0.005 C 
ENDROOT
BRANCH   4  23
ATOM     23  O   LIG    1        1.641  -1.328   1.948  0.00  0.00    -0.389 OA
ATOM     24  H   LIG    1        1.881  -0.477   2.335  0.00  0.00    +0.210 HD
ENDBRANCH   4  23
BRANCH  18  25
ATOM     25  C   LIG    1       -3.232  -0.104   0.792  0.00  0.00    +0.191 C 
ATOM     26  O   LIG    1       -3.580   0.133   1.927  0.00  0.00    -0.292 OA
BRANCH  25  27
ATOM     27  C   LIG    1       -4.039  -1.065   0.002  0.00  0.00    +0.249 C 
BRANCH  27  28
ATOM     28  O   LIG    1       -5.119  -1.568   0.716  0.00  0.00    -0.279 OA
BRANCH  28  29
ATOM     29  P   LIG    1       -6.010  -2.645  -0.194  0.00  0.00    +0.473 P 
ATOM     30  O   LIG    1       -6.561  -3.717   0.725  0.00  0.00    -0.228 OA
BRANCH  29  31
ATOM     31  O   LIG    1       -7.325  -1.914  -0.962  0.00  0.00    -0.303 OA
ATOM     32  H   LIG    1       -7.446  -0.967  -0.693  0.00  0.00    +0.222 HD
ENDBRANCH  29  31
BRANCH  29  33
ATOM     33  O   LIG    1       -5.095  -3.420  -1.379  0.00  0.00    -0.303 OA
ATOM     34  H   LIG    1       -5.482  -3.372  -2.268  0.00  0.00    +0.222 HD
ENDBRANCH  29  33
ENDBRANCH  28  29
ENDBRANCH  27  28
ENDBRANCH  25  27
ENDBRANCH  18  25
BRANCH  18  35
ATOM     35  O   LIG    1       -1.939  -0.005  -1.138  0.00  0.00    -0.380 OA
ATOM     36  H   LIG    1       -2.671   0.427  -1.636  0.00  0.00    +0.211 HD
ENDBRANCH  18  35
TORSDOF 8
