REMARK  Name = molecules/VQODGRNSFPNSQE-CXSFZGCWSA-N.pdb
REMARK                            x       y       z     vdW  Elec       q    Type
REMARK                         _______ _______ _______ _____ _____    ______ ____
ROOT
ATOM      1  C   LIG    1        0.811   0.673   1.293  0.00  0.00    +0.014 C 
ATOM      2  C   LIG    1        0.714   0.035  -0.046  0.00  0.00    +0.006 C 
ATOM      3  C   LIG    1       -0.170  -1.197  -0.113  0.00  0.00    +0.004 C 
ATOM      4  C   LIG    1        0.552  -2.125   0.854  0.00  0.00    +0.010 C 
ATOM      5  C   LIG    1        2.015  -1.801   0.626  0.00  0.00    +0.022 C 
ATOM      6  C   LIG    1        2.701  -3.025   0.044  0.00  0.00    +0.010 C 
ATOM      7  C   LIG    1       -1.501  -0.703   0.330  0.00  0.00    +0.033 C 
ATOM      8  C   LIG    1       -2.444  -1.765   0.741  0.00  0.00    +0.008 C 
ATOM      9  C   LIG    1       -3.792  -1.271   1.023  0.00  0.00    +0.013 C 
ATOM     10  C   LIG    1       -4.182  -0.053   0.260  0.00  0.00    +0.014 C 
ATOM     11  C   LIG    1       -5.480   0.094   0.111  0.00  0.00    +0.032 C 
ATOM     12  C   LIG    1       -6.030   1.176  -0.686  0.00  0.00    +0.175 C 
ATOM     13  O   LIG    1       -7.310   1.350  -0.839  0.00  0.00    -0.288 OA
ATOM     14  C   LIG    1       -5.096   2.087  -1.329  0.00  0.00    +0.047 C 
ATOM     15  C   LIG    1       -3.792   1.939  -1.179  0.00  0.00    -0.013 C 
ATOM     16  C   LIG    1       -3.212   0.873  -0.353  0.00  0.00    +0.033 C 
ATOM     17  C   LIG    1       -2.727   1.685   0.903  0.00  0.00    +0.020 C 
ATOM     18  C   LIG    1       -2.132   0.030  -0.887  0.00  0.00    +0.150 C 
ATOM     19  F   LIG    1       -2.756  -1.006  -1.621  0.00  0.00    -0.238 F 
ATOM     20  C   LIG    1       -1.079   0.576  -1.748  0.00  0.00    +0.153 C 
ATOM     21  C   LIG    1        2.046  -0.647  -0.312  0.00  0.00    +0.111 C 
ATOM     22  C   LIG    1        0.235   0.976  -1.052  0.00  0.00    +0.044 C 
ENDROOT
BRANCH  20  23
ATOM     23  O   LIG    1       -1.380   1.589  -2.605  0.00  0.00    -0.389 OA
ATOM     24  H   LIG    1       -1.989   1.201  -3.323  0.00  0.00    +0.210 HD
ENDBRANCH  20  23
BRANCH  21  25
ATOM     25  C   LIG    1        3.106   0.299  -0.166  0.00  0.00    +0.194 C 
ATOM     26  O   LIG    1        3.165   1.142  -1.142  0.00  0.00    -0.219 OA
BRANCH  25  27
ATOM     27  C   LIG    1        4.166   0.543   0.796  0.00  0.00    +0.216 C 
BRANCH  27  28
ATOM     28  O   LIG    1        5.210  -0.382   0.409  0.00  0.00    -0.284 OA
BRANCH  28  29
ATOM     29  P   LIG    1        6.539   0.607  -0.045  0.00  0.00    +0.472 P 
ATOM     30  O   LIG    1        6.910   0.047  -1.441  0.00  0.00    -0.228 OA
BRANCH  29  31
ATOM     31  O   LIG    1        7.794   0.684   0.968  0.00  0.00    -0.303 OA
ATOM     32  H   LIG    1        7.901   1.645   1.326  0.00  0.00    +0.222 HD
ENDBRANCH  29  31
BRANCH  29  33
ATOM     33  O   LIG    1        5.948   2.173  -0.400  0.00  0.00    -0.303 OA
ATOM     34  H   LIG    1        5.920   2.772   0.329  0.00  0.00    +0.222 HD
ENDBRANCH  29  33
ENDBRANCH  28  29
ENDBRANCH  27  28
ENDBRANCH  25  27
ENDBRANCH  21  25
BRANCH  21  35
ATOM     35  O   LIG    1        2.080  -1.147  -1.624  0.00  0.00    -0.385 OA
ATOM     36  H   LIG    1        1.529  -0.739  -2.273  0.00  0.00    +0.210 HD
ENDBRANCH  21  35
TORSDOF 8
