REMARK  Name = molecules/VRAHPESAMYMDQI-UHFFFAOYSA-N.pdb
REMARK                            x       y       z     vdW  Elec       q    Type
REMARK                         _______ _______ _______ _____ _____    ______ ____
ROOT
ATOM      1  C   LIG    1       -1.230   0.206  -0.217  0.00  0.00    +0.066 C 
ATOM      2  C   LIG    1       -1.714  -0.210   1.188  0.00  0.00    +0.016 C 
ATOM      3  C   LIG    1       -0.580  -0.101   2.138  0.00  0.00    +0.002 C 
ATOM      4  C   LIG    1        0.766  -0.482   1.655  0.00  0.00    +0.016 C 
ATOM      5  C   LIG    1        0.881  -1.099   0.314  0.00  0.00    +0.066 C 
ATOM      6  C   LIG    1       -0.241  -0.748  -0.665  0.00  0.00    +0.140 C 
ENDROOT
BRANCH   6   7
ATOM      7  O   LIG    1       -0.866  -1.992  -0.904  0.00  0.00    -0.390 OA
ATOM      8  H   LIG    1       -1.589  -2.217  -0.325  0.00  0.00    +0.210 HD
ENDBRANCH   6   7
BRANCH   5   9
ATOM      9  C   LIG    1        2.173  -0.699  -0.320  0.00  0.00    +0.245 C 
BRANCH   9  10
ATOM     10  O   LIG    1        2.202   0.697  -0.659  0.00  0.00    -0.460 OA
BRANCH  10  11
ATOM     11  C   LIG    1        3.354   1.187  -1.260  0.00  0.00    +0.341 C 
ATOM     12  O   LIG    1        4.304   0.376  -1.472  0.00  0.00    -0.245 OA
BRANCH  11  13
ATOM     13  C   LIG    1        3.510   2.582  -1.651  0.00  0.00    +0.077 A 
ATOM     14  C   LIG    1        2.558   3.536  -1.460  0.00  0.00    +0.018 A 
ATOM     15  C   LIG    1        2.756   4.854  -1.854  0.00  0.00    +0.020 A 
ATOM     16  C   LIG    1        3.933   5.193  -2.445  0.00  0.00    +0.111 A 
ATOM     17  N   LIG    1        4.874   4.268  -2.637  0.00  0.00    -0.262 NA
ATOM     18  C   LIG    1        4.691   2.981  -2.257  0.00  0.00    +0.125 A 
ENDBRANCH  11  13
ENDBRANCH  10  11
ENDBRANCH   9  10
ENDBRANCH   5   9
BRANCH   1  19
ATOM     19  C   LIG    1       -2.391   0.425  -1.109  0.00  0.00    +0.245 C 
BRANCH  19  20
ATOM     20  O   LIG    1       -3.136  -0.562  -1.645  0.00  0.00    -0.460 OA
BRANCH  20  21
ATOM     21  C   LIG    1       -2.831  -1.313  -2.745  0.00  0.00    +0.341 C 
ATOM     22  O   LIG    1       -1.777  -1.094  -3.389  0.00  0.00    -0.245 OA
BRANCH  21  23
ATOM     23  C   LIG    1       -3.708  -2.399  -3.223  0.00  0.00    +0.077 A 
ATOM     24  C   LIG    1       -4.893  -2.730  -2.602  0.00  0.00    +0.125 A 
ATOM     25  N   LIG    1       -5.649  -3.732  -3.089  0.00  0.00    -0.262 NA
ATOM     26  C   LIG    1       -5.315  -4.455  -4.176  0.00  0.00    +0.111 A 
ATOM     27  C   LIG    1       -4.137  -4.149  -4.819  0.00  0.00    +0.020 A 
ATOM     28  C   LIG    1       -3.355  -3.131  -4.336  0.00  0.00    +0.018 A 
ENDBRANCH  21  23
ENDBRANCH  20  21
ENDBRANCH  19  20
ENDBRANCH   1  19
BRANCH   1  29
ATOM     29  C   LIG    1       -0.705   1.657   0.019  0.00  0.00    +0.245 C 
BRANCH  29  30
ATOM     30  O   LIG    1       -1.766   2.407   0.609  0.00  0.00    -0.460 OA
BRANCH  30  31
ATOM     31  C   LIG    1       -1.635   3.731   0.947  0.00  0.00    +0.341 C 
ATOM     32  O   LIG    1       -0.525   4.284   0.720  0.00  0.00    -0.245 OA
BRANCH  31  33
ATOM     33  C   LIG    1       -2.755   4.442   1.544  0.00  0.00    +0.077 A 
ATOM     34  C   LIG    1       -2.678   5.763   1.901  0.00  0.00    +0.018 A 
ATOM     35  C   LIG    1       -3.772   6.375   2.458  0.00  0.00    +0.020 A 
ATOM     36  C   LIG    1       -4.963   5.702   2.677  0.00  0.00    +0.111 A 
ATOM     37  N   LIG    1       -5.013   4.397   2.317  0.00  0.00    -0.262 NA
ATOM     38  C   LIG    1       -3.967   3.787   1.776  0.00  0.00    +0.125 A 
ENDBRANCH  31  33
ENDBRANCH  30  31
ENDBRANCH  29  30
ENDBRANCH   1  29
BRANCH   5  39
ATOM     39  C   LIG    1        0.884  -2.619   0.508  0.00  0.00    +0.245 C 
BRANCH  39  40
ATOM     40  O   LIG    1        1.812  -3.174   1.313  0.00  0.00    -0.460 OA
BRANCH  40  41
ATOM     41  C   LIG    1        3.130  -3.435   1.211  0.00  0.00    +0.341 C 
ATOM     42  O   LIG    1        3.765  -3.179   0.189  0.00  0.00    -0.245 OA
BRANCH  41  43
ATOM     43  C   LIG    1        3.839  -4.045   2.350  0.00  0.00    +0.077 A 
ATOM     44  C   LIG    1        3.193  -4.352   3.526  0.00  0.00    +0.125 A 
ATOM     45  N   LIG    1        3.854  -4.908   4.559  0.00  0.00    -0.262 NA
ATOM     46  C   LIG    1        5.180  -5.180   4.462  0.00  0.00    +0.111 A 
ATOM     47  C   LIG    1        5.870  -4.894   3.314  0.00  0.00    +0.020 A 
ATOM     48  C   LIG    1        5.194  -4.327   2.261  0.00  0.00    +0.018 A 
ENDBRANCH  41  43
ENDBRANCH  40  41
ENDBRANCH  39  40
ENDBRANCH   5  39
TORSDOF 17
