REMARK  Name = molecules/VREFGVBLTWBCJP-UHFFFAOYSA-N.pdb
REMARK                            x       y       z     vdW  Elec       q    Type
REMARK                         _______ _______ _______ _____ _____    ______ ____
ROOT
ATOM      1  C   LIG    1        4.066   0.877   0.176  0.00  0.00    +0.088 C 
ATOM      2  C   LIG    1        3.294  -0.015   1.052  0.00  0.00    +0.135 A 
ATOM      3  N   LIG    1        3.576  -0.390   2.341  0.00  0.00    -0.134 NA
ATOM      4  N   LIG    1        2.575  -1.165   2.813  0.00  0.00    -0.132 NA
ATOM      5  C   LIG    1        1.666  -1.305   1.888  0.00  0.00    +0.159 A 
ATOM      6  C   LIG    1        0.380  -2.044   2.008  0.00  0.00    +0.218 C 
ATOM      7  N   LIG    1       -0.738  -1.195   1.594  0.00  0.00    -0.275 NA
ATOM      8  C   LIG    1       -0.923  -0.494   0.502  0.00  0.00    +0.075 C 
ATOM      9  C   LIG    1        0.067  -0.476  -0.561  0.00  0.00    +0.026 A 
ATOM     10  C   LIG    1        1.453  -0.498  -0.442  0.00  0.00    +0.059 A 
ATOM     11  C   LIG    1        2.331  -0.497  -1.488  0.00  0.00    +0.028 A 
ATOM     12  C   LIG    1        1.727  -0.467  -2.754  0.00  0.00    +0.022 A 
ATOM     13  C   LIG    1        0.353  -0.446  -2.900  0.00  0.00    +0.042 A 
ATOM     14 CL   LIG    1       -0.362  -0.404  -4.490  0.00  0.00    -0.084 Cl
ATOM     15  C   LIG    1       -0.480  -0.453  -1.815  0.00  0.00    +0.032 A 
ATOM     16  N   LIG    1        2.131  -0.588   0.804  0.00  0.00    -0.281 N 
ENDROOT
BRANCH   8  17
ATOM     17  C   LIG    1       -2.123   0.249   0.309  0.00  0.00    +0.001 A 
ATOM     18  C   LIG    1       -3.145   0.047   1.250  0.00  0.00    +0.010 A 
ATOM     19  C   LIG    1       -4.305   0.782   1.265  0.00  0.00    +0.001 A 
ATOM     20  C   LIG    1       -4.513   1.771   0.334  0.00  0.00    +0.000 A 
ATOM     21  C   LIG    1       -3.531   1.996  -0.601  0.00  0.00    +0.001 A 
ATOM     22  C   LIG    1       -2.356   1.234  -0.596  0.00  0.00    +0.010 A 
ENDBRANCH   8  17
TORSDOF 1
