REMARK  Name = molecules/VRTWBAAJJOHBQU-KMWAZVGDSA-N.pdb
REMARK                            x       y       z     vdW  Elec       q    Type
REMARK                         _______ _______ _______ _____ _____    ______ ____
ROOT
ATOM      1  C   LIG    1        2.420   0.687  -1.448  0.00  0.00    -0.017 A 
ATOM      2  C   LIG    1        1.503   0.244  -0.544  0.00  0.00    +0.019 A 
ATOM      3  C   LIG    1        0.150   0.321  -0.842  0.00  0.00    +0.033 A 
ATOM      4  C   LIG    1       -1.018  -0.076  -0.055  0.00  0.00    +0.300 C 
ATOM      5  F   LIG    1       -1.151   0.761   1.057  0.00  0.00    -0.195 F 
ATOM      6  F   LIG    1       -0.997  -1.404   0.314  0.00  0.00    -0.195 F 
ATOM      7  C   LIG    1       -2.181   0.259  -0.927  0.00  0.00    +0.034 A 
ATOM      8  C   LIG    1       -3.544   0.125  -0.775  0.00  0.00    +0.020 A 
ATOM      9  C   LIG    1       -4.462   0.500  -1.721  0.00  0.00    +0.002 A 
ATOM     10  C   LIG    1       -3.960   1.043  -2.887  0.00  0.00    +0.011 A 
ATOM     11  C   LIG    1       -2.601   1.194  -3.077  0.00  0.00    +0.009 A 
ATOM     12  C   LIG    1       -1.696   0.799  -2.089  0.00  0.00    -0.008 A 
ATOM     13  C   LIG    1       -0.218   0.849  -2.056  0.00  0.00    -0.008 A 
ATOM     14  C   LIG    1        0.681   1.305  -2.989  0.00  0.00    +0.009 A 
ATOM     15  C   LIG    1        2.015   1.211  -2.655  0.00  0.00    +0.009 A 
ENDROOT
BRANCH   1  22
ATOM     16  C   LIG    1        6.104   0.310  -1.942  0.00  0.00    +0.028 A 
ATOM     17  C   LIG    1        6.617   0.430  -0.668  0.00  0.00    +0.066 A 
ATOM     18  C   LIG    1        5.729   0.636   0.367  0.00  0.00    +0.090 A 
ATOM     19  N   LIG    1        6.489   0.718   1.472  0.00  0.00    -0.231 NA
ATOM     20  C   LIG    1        7.800   0.574   1.189  0.00  0.00    +0.129 A 
ATOM     21  C   LIG    1        4.367   0.719   0.114  0.00  0.00    +0.038 A 
ATOM     22  C   LIG    1        3.834   0.603  -1.153  0.00  0.00    -0.016 A 
ATOM     23  N   LIG    1        7.872   0.397  -0.137  0.00  0.00    -0.340 N 
ATOM     24  H   LIG    1        8.724   0.254  -0.706  0.00  0.00    +0.167 HD
ATOM     25  C   LIG    1        4.750   0.393  -2.187  0.00  0.00    +0.010 A 
BRANCH  20  26
ATOM     26  C   LIG    1        8.941   0.618   2.179  0.00  0.00    +0.145 C 
ATOM     27  C   LIG    1        8.461   1.522   3.328  0.00  0.00    +0.019 C 
ATOM     28  C   LIG    1        9.594   1.849   4.239  0.00  0.00    +0.007 C 
ATOM     29  C   LIG    1       10.471   2.866   3.497  0.00  0.00    +0.023 C 
ATOM     30  C   LIG    1        9.847   2.821   2.116  0.00  0.00    +0.077 C 
ATOM     31  C   LIG    1        8.384   2.824   2.507  0.00  0.00    +0.028 C 
ATOM     32  N   LIG    1       10.020   1.438   1.669  0.00  0.00    -0.287 N 
ATOM     33  C   LIG    1       11.097   1.042   0.837  0.00  0.00    +0.237 C 
ATOM     34  O   LIG    1       11.900   1.958   0.414  0.00  0.00    -0.274 OA
BRANCH  33  35
ATOM     35  C   LIG    1       11.407  -0.322   0.397  0.00  0.00    +0.165 C 
BRANCH  35  36
ATOM     36  N   LIG    1       11.967  -0.227  -0.964  0.00  0.00    -0.270 N 
ATOM     37  H   LIG    1       12.691   0.497  -1.113  0.00  0.00    +0.153 HD
ATOM     38  C   LIG    1       11.527  -1.083  -1.993  0.00  0.00    +0.401 C 
ATOM     39  O   LIG    1       10.641  -1.963  -1.799  0.00  0.00    -0.226 OA
BRANCH  38  40
ATOM     40  O   LIG    1       12.053  -0.992  -3.262  0.00  0.00    -0.454 OA
ATOM     41  C   LIG    1       11.653  -1.830  -4.330  0.00  0.00    +0.282 C 
ENDBRANCH  38  40
ENDBRANCH  35  36
BRANCH  35  42
ATOM     42  C   LIG    1       12.503  -0.952   1.256  0.00  0.00    +0.012 C 
ATOM     43  C   LIG    1       12.135  -1.045   2.706  0.00  0.00    +0.009 C 
ATOM     44  C   LIG    1       13.782  -0.147   1.167  0.00  0.00    +0.009 C 
ENDBRANCH  35  42
ENDBRANCH  33  35
ENDBRANCH  20  26
ENDBRANCH   1  22
BRANCH   9  45
ATOM     45  C   LIG    1       -5.904   0.342  -1.499  0.00  0.00    +0.089 A 
ATOM     46  N   LIG    1       -6.449  -0.111  -0.379  0.00  0.00    -0.231 NA
ATOM     47  C   LIG    1       -7.803  -0.155  -0.490  0.00  0.00    +0.128 A 
ATOM     48  N   LIG    1       -8.087   0.286  -1.716  0.00  0.00    -0.346 N 
ATOM     49  H   LIG    1       -9.042   0.387  -2.146  0.00  0.00    +0.167 HD
ATOM     50  C   LIG    1       -6.942   0.605  -2.377  0.00  0.00    +0.112 A 
BRANCH  47  51
ATOM     51  C   LIG    1       -8.785  -0.599   0.528  0.00  0.00    +0.143 C 
ATOM     52  C   LIG    1       -8.043  -1.503   1.548  0.00  0.00    +0.039 C 
ATOM     53  C   LIG    1       -8.189  -2.879   1.013  0.00  0.00    -0.011 C 
ATOM     54  C   LIG    1       -7.966  -4.040   1.909  0.00  0.00    +0.009 C 
ATOM     55  C   LIG    1       -7.007  -3.759   0.796  0.00  0.00    +0.009 C 
ATOM     56  C   LIG    1       -9.284  -2.816   0.035  0.00  0.00    +0.115 C 
ATOM     57  N   LIG    1       -9.787  -1.455   0.038  0.00  0.00    -0.289 N 
ATOM     58  C   LIG    1      -11.097  -1.159  -0.404  0.00  0.00    +0.237 C 
ATOM     59  O   LIG    1      -11.786  -2.197  -0.744  0.00  0.00    -0.274 OA
BRANCH  58  60
ATOM     60  C   LIG    1      -11.797   0.102  -0.546  0.00  0.00    +0.165 C 
BRANCH  60  61
ATOM     61  N   LIG    1      -13.229  -0.042  -0.860  0.00  0.00    -0.270 N 
ATOM     62  C   LIG    1      -14.088  -0.987  -0.254  0.00  0.00    +0.401 C 
ATOM     63  O   LIG    1      -13.810  -1.820   0.611  0.00  0.00    -0.226 OA
ATOM     64  H   LIG    1      -13.668   0.600  -1.589  0.00  0.00    +0.153 HD
BRANCH  62  65
ATOM     65  O   LIG    1      -15.441  -0.999  -0.678  0.00  0.00    -0.454 OA
ATOM     66  C   LIG    1      -16.351  -1.927  -0.102  0.00  0.00    +0.282 C 
ENDBRANCH  62  65
ENDBRANCH  60  61
BRANCH  60  67
ATOM     67  C   LIG    1      -11.540   1.234   0.356  0.00  0.00    +0.012 C 
ATOM     68  C   LIG    1      -11.816   1.030   1.800  0.00  0.00    +0.009 C 
ATOM     69  C   LIG    1      -12.503   2.367  -0.107  0.00  0.00    +0.009 C 
ENDBRANCH  60  67
ENDBRANCH  58  60
ENDBRANCH  47  51
ENDBRANCH   9  45
TORSDOF 12
