REMARK  Name = molecules/VRYKTHBAWRESFI-VOTSOKGWSA-N.pdb
REMARK                            x       y       z     vdW  Elec       q    Type
REMARK                         _______ _______ _______ _____ _____    ______ ____
ROOT
ATOM      1  C   LIG    1        0.776  -0.621  -0.665  0.00  0.00    +0.016 C 
ATOM      2  C   LIG    1       -0.047   0.127   0.025  0.00  0.00    +0.099 C 
ENDROOT
BRANCH   2   3
ATOM      3  C   LIG    1       -1.480   0.077  -0.268  0.00  0.00    +0.307 C 
ATOM      4  N   LIG    1       -2.338   0.905   0.505  0.00  0.00    -0.224 N 
ATOM      5  C   LIG    1       -1.891   2.167   1.070  0.00  0.00    +0.276 C 
ATOM      6  C   LIG    1       -3.715   0.497   0.752  0.00  0.00    +0.229 C 
ATOM      7  C   LIG    1       -4.020  -0.773   0.001  0.00  0.00    +0.093 C 
ATOM      8  C   LIG    1       -3.396  -0.654  -1.391  0.00  0.00    +0.294 C 
ATOM      9  N   LIG    1       -1.962  -0.687  -1.191  0.00  0.00    -0.083 NA
ENDBRANCH   2   3
BRANCH   1  14
ATOM     10  C   LIG    1        4.322  -1.543  -1.095  0.00  0.00    +0.004 A 
ATOM     11  C   LIG    1        4.958  -0.769  -0.138  0.00  0.00    +0.045 A 
ATOM     12  C   LIG    1        4.185   0.052   0.639  0.00  0.00    +0.117 A 
ATOM     13  C   LIG    1        2.814   0.114   0.481  0.00  0.00    +0.053 A 
ATOM     14  C   LIG    1        2.207  -0.656  -0.467  0.00  0.00    -0.021 A 
ATOM     15  C   LIG    1        2.959  -1.496  -1.268  0.00  0.00    +0.008 A 
BRANCH  12  16
ATOM     16  O   LIG    1        4.790   0.846   1.614  0.00  0.00    -0.507 OA
ATOM     17  H   LIG    1        5.123   1.772   1.453  0.00  0.00    +0.292 HD
ENDBRANCH  12  16
ENDBRANCH   1  14
TORSDOF 3
