REMARK  Name = molecules/VSQMKHNDXWGCDB-SNVBAGLBSA-N.pdb
REMARK                            x       y       z     vdW  Elec       q    Type
REMARK                         _______ _______ _______ _____ _____    ______ ____
ROOT
ATOM      1  C   LIG    1        4.576   0.642   0.099  0.00  0.00    +0.121 A 
ATOM      2  C   LIG    1        3.795  -0.496   0.129  0.00  0.00    +0.062 A 
ATOM      3  C   LIG    1        2.439  -0.479   0.126  0.00  0.00    +0.038 A 
ATOM      4  S   LIG    1        1.607  -2.027   0.166  0.00  0.00    -0.086 S 
ATOM      5  C   LIG    1       -0.140  -1.640   0.159  0.00  0.00    +0.034 A 
ATOM      6  C   LIG    1       -1.070  -2.650   0.190  0.00  0.00    +0.017 A 
ATOM      7  C   LIG    1       -2.419  -2.383   0.185  0.00  0.00    +0.005 A 
ATOM      8  C   LIG    1       -2.880  -1.085   0.148  0.00  0.00    -0.032 A 
ATOM      9  C   LIG    1       -1.928  -0.094   0.118  0.00  0.00    +0.029 A 
ATOM     10  C   LIG    1       -0.545  -0.337   0.122  0.00  0.00    +0.048 A 
ATOM     11  N   LIG    1        0.330   0.804   0.090  0.00  0.00    -0.301 N 
ATOM     12  C   LIG    1       -0.338   2.100   0.049  0.00  0.00    +0.135 C 
ATOM     13  C   LIG    1        1.742   0.702   0.093  0.00  0.00    +0.048 A 
ATOM     14  C   LIG    1        2.512   1.873   0.062  0.00  0.00    +0.028 A 
ATOM     15  C   LIG    1        3.902   1.836   0.066  0.00  0.00    +0.047 A 
ENDROOT
BRANCH   1  17
ATOM     16  C   LIG    1        6.583  -0.670   0.138  0.00  0.00    +0.277 C 
ATOM     17  O   LIG    1        5.963   0.603   0.103  0.00  0.00    -0.495 OA
ENDBRANCH   1  17
BRANCH   8  18
ATOM     18  C   LIG    1       -4.333  -0.808   0.143  0.00  0.00    +0.124 C 
ATOM     19  C   LIG    1       -4.718  -0.021   1.400  0.00  0.00    +0.024 C 
BRANCH  18  20
ATOM     20  C   LIG    1       -4.718  -0.006  -1.047  0.00  0.00    +0.312 C 
ATOM     21  O   LIG    1       -5.561  -0.475  -1.881  0.00  0.00    -0.250 OA
BRANCH  20  22
ATOM     22  O   LIG    1       -4.201   1.241  -1.302  0.00  0.00    -0.480 OA
ATOM     23  H   LIG    1       -4.509   2.101  -0.867  0.00  0.00    +0.295 HD
ENDBRANCH  20  22
ENDBRANCH  18  20
ENDBRANCH   8  18
TORSDOF 4
