REMARK  Name = molecules/VSTNNAYSCJQCQI-ZLNRFVROSA-N.pdb
REMARK                            x       y       z     vdW  Elec       q    Type
REMARK                         _______ _______ _______ _____ _____    ______ ____
ROOT
ATOM      1  N   LIG    1       -0.973  -0.434   0.426  0.00  0.00    -0.297 NA
ATOM      2  C   LIG    1       -0.419   0.853   0.312  0.00  0.00    +0.100 C 
ATOM      3  C   LIG    1        1.042   0.983   0.042  0.00  0.00    +0.100 C 
ATOM      4  N   LIG    1        1.602  -0.182  -0.510  0.00  0.00    -0.297 NA
ATOM      5  C   LIG    1        1.300  -1.397   0.188  0.00  0.00    +0.100 C 
ATOM      6  C   LIG    1       -0.197  -1.576   0.079  0.00  0.00    +0.100 C 
ENDROOT
BRANCH   1   7
ATOM      7  C   LIG    1       -1.871  -0.609   1.521  0.00  0.00    +0.118 C 
BRANCH   7   8
ATOM      8  C   LIG    1       -3.174   0.128   1.415  0.00  0.00    +0.162 C 
BRANCH   8   9
ATOM      9  O   LIG    1       -2.898   1.496   1.300  0.00  0.00    -0.388 OA
ATOM     10  H   LIG    1       -2.749   1.907   2.204  0.00  0.00    +0.210 HD
ENDBRANCH   8   9
BRANCH   8  11
ATOM     11  C   LIG    1       -3.946  -0.311   0.221  0.00  0.00    +0.177 C 
BRANCH  11  12
ATOM     12  C   LIG    1       -5.223   0.462   0.062  0.00  0.00    -0.016 A 
ATOM     13  C   LIG    1       -5.641   1.375   0.994  0.00  0.00    +0.006 A 
ATOM     14  C   LIG    1       -6.822   2.067   0.762  0.00  0.00    +0.000 A 
ATOM     15  C   LIG    1       -7.580   1.865  -0.366  0.00  0.00    +0.000 A 
ATOM     16  C   LIG    1       -7.143   0.945  -1.285  0.00  0.00    +0.000 A 
ATOM     17  C   LIG    1       -5.955   0.240  -1.068  0.00  0.00    +0.006 A 
ENDBRANCH  11  12
BRANCH  11  18
ATOM     18  O   LIG    1       -4.246  -1.642   0.236  0.00  0.00    -0.373 OA
ATOM     19  C   LIG    1       -3.801  -2.420  -0.791  0.00  0.00    +0.194 C 
ENDBRANCH  11  18
ENDBRANCH   8  11
ENDBRANCH   7   8
ENDBRANCH   1   7
BRANCH   4  20
ATOM     20  C   LIG    1        2.861  -0.103  -1.116  0.00  0.00    +0.120 C 
BRANCH  20  21
ATOM     21  C   LIG    1        4.037   0.154  -0.238  0.00  0.00    +0.162 C 
BRANCH  21  22
ATOM     22  C   LIG    1        5.310   0.208  -0.997  0.00  0.00    -0.018 A 
ATOM     23  C   LIG    1        5.923   1.414  -1.263  0.00  0.00    +0.006 A 
ATOM     24  C   LIG    1        7.106   1.446  -1.970  0.00  0.00    +0.000 A 
ATOM     25  C   LIG    1        7.710   0.297  -2.431  0.00  0.00    +0.000 A 
ATOM     26  C   LIG    1        7.080  -0.907  -2.155  0.00  0.00    +0.000 A 
ATOM     27  C   LIG    1        5.894  -0.976  -1.448  0.00  0.00    +0.006 A 
ENDBRANCH  21  22
BRANCH  21  28
ATOM     28  O   LIG    1        4.170  -0.854   0.698  0.00  0.00    -0.374 OA
ATOM     29  C   LIG    1        4.148  -0.383   2.002  0.00  0.00    +0.194 C 
ENDBRANCH  21  28
ENDBRANCH  20  21
ENDBRANCH   4  20
TORSDOF 10
