REMARK  Name = molecules/VSVAVMVWTLLTCH-BJMVGYQFSA-N.pdb
REMARK                            x       y       z     vdW  Elec       q    Type
REMARK                         _______ _______ _______ _____ _____    ______ ____
ROOT
ATOM      1  C   LIG    1       -0.271  -0.666  -0.059  0.00  0.00    +0.177 C 
ATOM      2  N   LIG    1        0.443   0.385  -0.242  0.00  0.00    -0.181 NA
ENDROOT
BRANCH   2   3
ATOM      3  N   LIG    1        1.839   0.376  -0.322  0.00  0.00    -0.176 N 
ATOM      4  C   LIG    1        2.813  -0.511   0.278  0.00  0.00    +0.155 C 
ATOM      5  C   LIG    1        4.018   0.408   0.435  0.00  0.00    +0.127 C 
ATOM      6  N   LIG    1        3.984   1.137  -0.826  0.00  0.00    -0.296 N 
ATOM      7  H   LIG    1        4.792   1.444  -1.407  0.00  0.00    +0.150 HD
ATOM      8  C   LIG    1        2.575   1.329  -1.077  0.00  0.00    +0.322 C 
ATOM      9  O   LIG    1        2.101   2.218  -1.855  0.00  0.00    -0.251 OA
ENDBRANCH   2   3
BRANCH   1  10
ATOM     10  C   LIG    1       -1.737  -0.609   0.019  0.00  0.00    +0.150 A 
ATOM     11  C   LIG    1       -2.547  -1.694   0.213  0.00  0.00    +0.053 A 
ATOM     12  C   LIG    1       -3.838  -1.217   0.224  0.00  0.00    +0.076 A 
ATOM     13  C   LIG    1       -3.772   0.127   0.039  0.00  0.00    +0.280 A 
ATOM     14  O   LIG    1       -2.512   0.430  -0.075  0.00  0.00    -0.433 OA
BRANCH  13  15
ATOM     15  N   LIG    1       -4.829   1.074  -0.027  0.00  0.00    +0.093 N 
ATOM     16  O   LIG    1       -5.996   0.650   0.098  0.00  0.00    -0.123 OA
ATOM     17  O   LIG    1       -4.644   2.400  -0.216  0.00  0.00    -0.123 OA
ENDBRANCH  13  15
ENDBRANCH   1  10
TORSDOF 3
