REMARK  Name = molecules/VSZGPKBBMSAYNT-RRFJBIMHSA-N.pdb
REMARK                            x       y       z     vdW  Elec       q    Type
REMARK                         _______ _______ _______ _____ _____    ______ ____
ROOT
ATOM      1  C   LIG    1       -0.243  -0.011  -0.150  0.00  0.00    +0.164 C 
ATOM      2  C   LIG    1        0.158   1.309   0.455  0.00  0.00    +0.122 C 
ATOM      3  C   LIG    1        0.831   2.076  -0.684  0.00  0.00    +0.078 C 
ATOM      4  C   LIG    1        2.210   1.483  -0.825  0.00  0.00    +0.062 C 
ATOM      5  C   LIG    1        2.091  -0.004  -0.867  0.00  0.00    +0.037 C 
ATOM      6  C   LIG    1        1.019  -0.685  -0.574  0.00  0.00    +0.016 C 
ENDROOT
BRANCH   2   7
ATOM      7  N   LIG    1       -0.898   2.050   1.053  0.00  0.00    -0.308 N 
ATOM      8  C   LIG    1       -0.862   2.464   2.411  0.00  0.00    +0.210 C 
ATOM      9  O   LIG    1        0.142   2.157   3.095  0.00  0.00    -0.276 OA
ATOM     10  C   LIG    1       -1.954   3.237   3.049  0.00  0.00    +0.109 C 
ATOM     11  H   LIG    1       -1.737   2.304   0.473  0.00  0.00    +0.149 HD
ENDBRANCH   2   7
BRANCH   3  12
ATOM     12  N   LIG    1        0.856   3.486  -0.419  0.00  0.00    -0.325 NA
ATOM     13  H   LIG    1       -0.077   3.876  -0.688  0.00  0.00    +0.119 HD
ATOM     14  H   LIG    1        1.549   3.915  -1.073  0.00  0.00    +0.119 HD
ENDBRANCH   3  12
BRANCH   5  15
ATOM     15  C   LIG    1        3.297  -0.723  -1.276  0.00  0.00    +0.335 C 
ATOM     16  O   LIG    1        3.265  -1.975  -1.332  0.00  0.00    -0.245 OA
BRANCH  15  17
ATOM     17  O   LIG    1        4.481  -0.085  -1.605  0.00  0.00    -0.462 OA
BRANCH  17  18
ATOM     18  C   LIG    1        5.610  -0.836  -1.992  0.00  0.00    +0.229 C 
ATOM     19  C   LIG    1        5.994  -1.760  -0.869  0.00  0.00    +0.048 C 
ENDBRANCH  17  18
ENDBRANCH  15  17
ENDBRANCH   5  15
BRANCH   1  20
ATOM     20  O   LIG    1       -0.994  -0.821   0.685  0.00  0.00    -0.367 OA
BRANCH  20  21
ATOM     21  C   LIG    1       -2.243  -1.182   0.067  0.00  0.00    +0.119 C 
BRANCH  21  22
ATOM     22  C   LIG    1       -3.320  -0.624   0.948  0.00  0.00    +0.028 C 
ATOM     23  C   LIG    1       -4.725  -0.840   0.505  0.00  0.00    +0.006 C 
ENDBRANCH  21  22
BRANCH  21  24
ATOM     24  C   LIG    1       -2.272  -2.683  -0.030  0.00  0.00    +0.028 C 
ATOM     25  C   LIG    1       -3.468  -3.290  -0.670  0.00  0.00    +0.006 C 
ENDBRANCH  21  24
ENDBRANCH  20  21
ENDBRANCH   1  20
TORSDOF 9
