REMARK  Name = molecules/VTLCNEGVSVJLDN-MLGOLLRUSA-N.pdb
REMARK                            x       y       z     vdW  Elec       q    Type
REMARK                         _______ _______ _______ _____ _____    ______ ____
ROOT
ATOM      1  CA  LIG    1        2.448  -1.016   1.500  0.00  0.00    +0.123 C 
ATOM      2  N   LIG    1        1.058  -0.595   1.621  0.00  0.00    -0.249 N 
ATOM      3  C   LIG    1        0.019  -1.492   2.159  0.00  0.00    +0.169 C 
ATOM      4  CA  LIG    1       -0.980  -0.469   1.787  0.00  0.00    +0.191 C 
ATOM      5  S   LIG    1        0.134  -3.001   1.190  0.00  0.00    -0.131 S 
ATOM      6  C   LIG    1        1.617  -2.887   0.199  0.00  0.00    +0.104 C 
ATOM      7  C   LIG    1        0.124   0.456   1.415  0.00  0.00    +0.244 C 
ATOM      8  O   LIG    1        0.184   1.685   1.058  0.00  0.00    -0.273 OA
ATOM      9  C   LIG    1        2.720  -2.146   0.871  0.00  0.00    -0.021 C 
ENDROOT
BRANCH   4  10
ATOM     10  N   LIG    1       -1.920  -0.786   0.732  0.00  0.00    -0.300 N 
ATOM     11  C   LIG    1       -3.241  -0.330   0.827  0.00  0.00    +0.233 C 
ATOM     12  O   LIG    1       -3.579   0.353   1.832  0.00  0.00    -0.274 OA
ATOM     13  H   LIG    1       -1.598  -1.338  -0.075  0.00  0.00    +0.150 HD
BRANCH  11  14
ATOM     14  C   LIG    1       -4.331  -0.571  -0.168  0.00  0.00    +0.217 C 
BRANCH  14  15
ATOM     15  N   LIG    1       -5.047   0.714  -0.246  0.00  0.00    -0.342 N 
ATOM     16  C   LIG    1       -6.043   0.939   0.612  0.00  0.00    +0.110 A 
ATOM     17  C   LIG    1       -6.759   2.115   0.621  0.00  0.00    +0.105 A 
ATOM     18 CL   LIG    1       -8.059   2.384   1.763  0.00  0.00    -0.078 Cl
ATOM     19  C   LIG    1       -6.432   3.099  -0.297  0.00  0.00    +0.218 A 
ATOM     20  O   LIG    1       -7.037   4.177  -0.339  0.00  0.00    -0.285 OA
ATOM     21  C   LIG    1       -5.386   2.836  -1.185  0.00  0.00    +0.105 A 
ATOM     22 CL   LIG    1       -5.000   4.098  -2.369  0.00  0.00    -0.078 Cl
ATOM     23  C   LIG    1       -4.713   1.640  -1.139  0.00  0.00    +0.110 A 
ENDBRANCH  14  15
ENDBRANCH  11  14
ENDBRANCH   4  10
BRANCH   1  24
ATOM     24  C   LIG    1        3.450  -0.162   2.112  0.00  0.00    +0.351 C 
ATOM     25  OXT LIG    1        3.097   0.899   2.692  0.00  0.00    -0.244 OA
BRANCH  24  26
ATOM     26  O   LIG    1        4.785  -0.434   2.101  0.00  0.00    -0.476 OA
ATOM     27  H   LIG    1        5.449  -0.136   2.791  0.00  0.00    +0.295 HD
ENDBRANCH  24  26
ENDBRANCH   1  24
BRANCH   9  28
ATOM     28  C   LIG    1        4.095  -2.666   0.740  0.00  0.00    +0.110 C 
BRANCH  28  29
ATOM     29  S   LIG    1        4.680  -2.765  -0.968  0.00  0.00    -0.093 S 
BRANCH  29  30
ATOM     30  C   LIG    1        4.753  -1.121  -1.673  0.00  0.00    +0.159 A 
ATOM     31  N   LIG    1        4.442   0.053  -1.135  0.00  0.00    -0.135 NA
ATOM     32  N   LIG    1        4.559   1.111  -1.835  0.00  0.00    -0.146 NA
ATOM     33  C   LIG    1        4.989   1.025  -3.083  0.00  0.00    +0.100 A 
ATOM     34  C   LIG    1        5.191   2.144  -4.082  0.00  0.00    +0.075 C 
ATOM     35  S   LIG    1        5.231  -0.651  -3.251  0.00  0.00    -0.044 S 
ENDBRANCH  29  30
ENDBRANCH  28  29
ENDBRANCH   9  28
TORSDOF 8
