REMARK  Name = molecules/VTMVHDZWSFQSQP-VBNZEHGJSA-N.pdb
REMARK                            x       y       z     vdW  Elec       q    Type
REMARK                         _______ _______ _______ _____ _____    ______ ____
ROOT
ATOM      1  C   LIG    1        0.584   1.470   1.963  0.00  0.00    +0.018 C 
ATOM      2  C   LIG    1        0.060   0.672   0.751  0.00  0.00    +0.009 C 
ATOM      3  C   LIG    1       -0.474  -0.591   1.289  0.00  0.00    +0.064 C 
ATOM      4  C   LIG    1       -0.612  -1.739   0.368  0.00  0.00    +0.011 C 
ATOM      5  C   LIG    1       -1.925  -1.802  -0.377  0.00  0.00    +0.005 C 
ATOM      6  C   LIG    1       -2.129  -0.669  -1.332  0.00  0.00    +0.000 C 
ATOM      7  C   LIG    1       -2.942   0.379  -0.694  0.00  0.00    +0.000 C 
ATOM      8  C   LIG    1       -2.236   1.468   0.022  0.00  0.00    +0.001 C 
ATOM      9  C   LIG    1        0.502  -1.937  -0.599  0.00  0.00    +0.040 C 
ATOM     10  C   LIG    1        1.496  -0.860  -0.633  0.00  0.00    -0.043 A 
ATOM     11  C   LIG    1        2.672  -1.104  -1.331  0.00  0.00    +0.007 A 
ATOM     12  C   LIG    1        3.673  -0.168  -1.430  0.00  0.00    +0.045 A 
ATOM     13  C   LIG    1        3.469   1.041  -0.805  0.00  0.00    +0.117 A 
ATOM     14  C   LIG    1        2.290   1.294  -0.103  0.00  0.00    +0.050 A 
ATOM     15  C   LIG    1        1.304   0.334  -0.021  0.00  0.00    -0.033 A 
ATOM     16  C   LIG    1       -0.770   1.530  -0.091  0.00  0.00    +0.013 C 
ENDROOT
BRANCH   3  17
ATOM     17  N   LIG    1       -1.688  -0.462   2.067  0.00  0.00    -0.326 NA
ATOM     18  H   LIG    1       -1.487  -0.158   3.068  0.00  0.00    +0.119 HD
ATOM     19  H   LIG    1       -2.224  -1.329   2.145  0.00  0.00    +0.119 HD
ENDBRANCH   3  17
BRANCH  13  20
ATOM     20  O   LIG    1        4.459   2.037  -0.874  0.00  0.00    -0.507 OA
ATOM     21  H   LIG    1        5.298   1.863  -1.371  0.00  0.00    +0.292 HD
ENDBRANCH  13  20
TORSDOF 2
