REMARK  Name = molecules/VTWKPILBIUBMDS-OTJLYDAYSA-N.pdb
REMARK                            x       y       z     vdW  Elec       q    Type
REMARK                         _______ _______ _______ _____ _____    ______ ____
ROOT
ATOM      1 CL   LIG    1       -1.352   1.746   0.607  0.00  0.00    -0.115 Cl
ATOM      2  C   LIG    1       -1.376  -0.035   0.375  0.00  0.00    +0.077 C 
ATOM      3  C   LIG    1       -0.573  -0.625   1.506  0.00  0.00    +0.103 C 
ATOM      4  C   LIG    1        0.779   0.038   1.577  0.00  0.00    +0.031 C 
ATOM      5  C   LIG    1        1.532  -0.140   0.322  0.00  0.00    +0.011 C 
ATOM      6  C   LIG    1        2.633   0.869   0.096  0.00  0.00    +0.157 C 
ATOM      7  C   LIG    1        2.907   0.655  -1.374  0.00  0.00    +0.154 C 
ATOM      8  C   LIG    1        1.579   0.154  -1.971  0.00  0.00    +0.039 C 
ATOM      9  C   LIG    1        2.057  -1.525   0.073  0.00  0.00    +0.015 C 
ATOM     10  C   LIG    1        0.639   0.325  -0.844  0.00  0.00    +0.006 C 
ATOM     11 CL   LIG    1       -0.439  -2.371   1.237  0.00  0.00    -0.120 Cl
ATOM     12  C   LIG    1       -2.828  -0.445   0.384  0.00  0.00    +0.031 C 
ATOM     13  C   LIG    1       -3.430  -0.052   1.631  0.00  0.00    -0.010 C 
ATOM     14  C   LIG    1       -4.441   0.779   1.719  0.00  0.00    +0.047 C 
ATOM     15  C   LIG    1       -5.018   1.361   0.516  0.00  0.00    +0.179 C 
ATOM     16  O   LIG    1       -5.981   2.159   0.513  0.00  0.00    -0.288 OA
ATOM     17  C   LIG    1       -4.435   0.988  -0.754  0.00  0.00    +0.054 C 
ATOM     18  C   LIG    1       -2.969  -1.957   0.219  0.00  0.00    +0.022 C 
ATOM     19  C   LIG    1       -3.426   0.157  -0.813  0.00  0.00    -0.021 C 
ATOM     20  C   LIG    1       -2.844  -0.186  -2.162  0.00  0.00    +0.193 C 
ATOM     21  C   LIG    1       -1.361  -0.102  -2.159  0.00  0.00    +0.047 C 
ATOM     22  F   LIG    1       -3.418   0.595  -3.144  0.00  0.00    -0.241 F 
ATOM     23  C   LIG    1       -0.657  -0.416  -0.901  0.00  0.00    +0.019 C 
ENDROOT
BRANCH   6  24
ATOM     24  C   LIG    1        3.773   0.795   0.984  0.00  0.00    +0.193 C 
ATOM     25  O   LIG    1        4.004   1.821   1.657  0.00  0.00    -0.292 OA
BRANCH  24  26
ATOM     26  C   LIG    1        4.703  -0.314   1.212  0.00  0.00    +0.233 C 
BRANCH  26  27
ATOM     27  O   LIG    1        5.726   0.026   2.132  0.00  0.00    -0.387 OA
ATOM     28  H   LIG    1        6.217   0.780   1.672  0.00  0.00    +0.210 HD
ENDBRANCH  26  27
ENDBRANCH  24  26
ENDBRANCH   6  24
BRANCH   6  29
ATOM     29  O   LIG    1        1.979   2.128   0.165  0.00  0.00    -0.378 OA
ATOM     30  H   LIG    1        2.574   2.828   0.497  0.00  0.00    +0.211 HD
ENDBRANCH   6  29
BRANCH   7  31
ATOM     31  O   LIG    1        3.297   1.851  -1.980  0.00  0.00    -0.388 OA
ATOM     32  H   LIG    1        3.914   1.654  -2.751  0.00  0.00    +0.210 HD
ENDBRANCH   7  31
TORSDOF 5
