REMARK  Name = molecules/VUAFHZCUKUDDBC-BYPYZUCNSA-N.pdb
REMARK                            x       y       z     vdW  Elec       q    Type
REMARK                         _______ _______ _______ _____ _____    ______ ____
ROOT
ATOM      1  N   CYS A  1        0.341  -0.317  -0.021  0.00  0.00    -0.301 N 
ATOM      2  C   UNK A  0       -0.757   0.535   0.163  0.00  0.00    +0.229 C 
ATOM      3  O   UNK A  0       -0.592   1.772   0.374  0.00  0.00    -0.274 OA
ATOM      4  H   CYS A  1        0.209  -1.335  -0.195  0.00  0.00    +0.150 HD
ENDROOT
BRANCH   2   5
ATOM      5  C   UNK A  0       -2.153   0.005   0.116  0.00  0.00    +0.084 C 
ATOM      6  C   UNK A  0       -3.151   1.121   0.344  0.00  0.00    +0.032 C 
ATOM      7  C   UNK A  0       -2.450  -0.565  -1.266  0.00  0.00    +0.032 C 
BRANCH   5   8
ATOM      8  S   UNK A  0       -2.399  -1.284   1.377  0.00  0.00    -0.163 S 
ATOM      9  H   UNK A  0       -2.410  -2.560   0.821  0.00  0.00    +0.103 HD
ENDBRANCH   5   8
ENDBRANCH   2   5
BRANCH   1  10
ATOM     10  CA  CYS A  1        1.694   0.195   0.025  0.00  0.00    +0.191 C 
BRANCH  10  11
ATOM     11  C   CYS A  1        2.404  -0.016  -1.240  0.00  0.00    +0.326 C 
ATOM     12  O   CYS A  1        1.872  -0.576  -2.221  0.00  0.00    -0.249 OA
BRANCH  11  13
ATOM     13  OXT CYS A  1        3.715   0.417  -1.363  0.00  0.00    -0.479 OA
ATOM     14  HXT CYS A  1        4.458  -0.246  -1.529  0.00  0.00    +0.295 HD
ENDBRANCH  11  13
ENDBRANCH  10  11
BRANCH  10  15
ATOM     15  CB  CYS A  1        2.492  -0.475   1.138  0.00  0.00    +0.099 C 
BRANCH  15  16
ATOM     16  SG  CYS A  1        4.169   0.175   1.177  0.00  0.00    -0.176 S 
ATOM     17  HG  CYS A  1        4.216   1.494   1.608  0.00  0.00    +0.102 HD
ENDBRANCH  15  16
ENDBRANCH  10  15
ENDBRANCH   1  10
TORSDOF 7
