REMARK  Name = molecules/VUPBWNXFSDRWJE-UHFFFAOYSA-N.pdb
REMARK                            x       y       z     vdW  Elec       q    Type
REMARK                         _______ _______ _______ _____ _____    ______ ____
ROOT
ATOM      1  N   LIG    1       -0.034   0.103  -0.227  0.00  0.00    -0.267 N 
ATOM      2  C   LIG    1       -0.694  -0.910  -0.912  0.00  0.00    +0.251 C 
ATOM      3  O   LIG    1        0.152  -1.704  -1.561  0.00  0.00    -0.270 OA
ENDROOT
BRANCH   2   4
ATOM      4  C   LIG    1       -2.070  -1.258  -1.054  0.00  0.00    +0.037 A 
ATOM      5  C   LIG    1       -3.100  -0.658  -0.426  0.00  0.00    +0.014 A 
ATOM      6  C   LIG    1       -4.442  -1.065  -0.597  0.00  0.00    +0.021 A 
ATOM      7  C   LIG    1       -4.740  -2.106  -1.423  0.00  0.00    +0.041 A 
ATOM      8 CL   LIG    1       -6.395  -2.658  -1.671  0.00  0.00    -0.084 Cl
ATOM      9  C   LIG    1       -3.704  -2.728  -2.068  0.00  0.00    +0.021 A 
ATOM     10  C   LIG    1       -2.397  -2.334  -1.905  0.00  0.00    +0.014 A 
ENDBRANCH   2   4
BRANCH   1  11
ATOM     11  C   LIG    1        1.426   0.068  -0.258  0.00  0.00    +0.037 A 
ATOM     12  C   LIG    1        2.133  -0.868   0.469  0.00  0.00    +0.027 A 
ATOM     13  C   LIG    1        3.516  -0.883   0.425  0.00  0.00    +0.047 A 
ATOM     14  C   LIG    1        4.225   0.033  -0.343  0.00  0.00    +0.120 A 
ATOM     15  C   LIG    1        3.509   0.981  -1.079  0.00  0.00    +0.047 A 
ATOM     16  C   LIG    1        2.135   0.972  -1.016  0.00  0.00    +0.027 A 
BRANCH  14  17
ATOM     17  O   LIG    1        5.617   0.028  -0.395  0.00  0.00    -0.495 OA
ATOM     18  C   LIG    1        6.357  -0.912   0.336  0.00  0.00    +0.277 C 
ENDBRANCH  14  17
ENDBRANCH   1  11
BRANCH   1  19
ATOM     19  C   LIG    1       -0.568   1.200   0.499  0.00  0.00    +0.114 C 
BRANCH  19  20
ATOM     20  C   LIG    1       -0.824   0.937   1.964  0.00  0.00    +0.030 C 
BRANCH  20  21
ATOM     21  C   LIG    1       -1.395   2.182   2.588  0.00  0.00    +0.122 C 
BRANCH  21  22
ATOM     22  C   LIG    1       -2.659   2.600   1.970  0.00  0.00    +0.305 C 
ATOM     23  O   LIG    1       -3.703   1.949   2.206  0.00  0.00    -0.251 OA
BRANCH  22  24
ATOM     24  O   LIG    1       -2.753   3.698   1.127  0.00  0.00    -0.481 OA
ATOM     25  H   LIG    1       -1.992   3.909   0.492  0.00  0.00    +0.295 HD
ENDBRANCH  22  24
ENDBRANCH  21  22
ENDBRANCH  20  21
ENDBRANCH  19  20
ENDBRANCH   1  19
TORSDOF 8
