REMARK  Name = molecules/VUSKMERTTCJJPM-KPKJPENVSA-N.pdb
REMARK                            x       y       z     vdW  Elec       q    Type
REMARK                         _______ _______ _______ _____ _____    ______ ____
ROOT
ATOM      1  C   LIG    1       -1.438   0.010   0.471  0.00  0.00    +0.088 A 
ATOM      2  C   LIG    1       -0.542   1.064   0.489  0.00  0.00    +0.027 A 
ATOM      3  C   LIG    1        0.756   0.799   0.087  0.00  0.00    +0.011 A 
ATOM      4  C   LIG    1        1.141  -0.453  -0.313  0.00  0.00    -0.005 A 
ATOM      5  C   LIG    1        0.252  -1.496  -0.329  0.00  0.00    +0.011 A 
ATOM      6  C   LIG    1       -1.055  -1.259   0.068  0.00  0.00    +0.027 A 
ENDROOT
BRANCH   1   7
ATOM      7  S   LIG    1       -3.076   0.361   0.983  0.00  0.00    -0.003 S 
ATOM      8  O   LIG    1       -3.118   1.462   1.983  0.00  0.00    -0.169 OA
ATOM      9  O   LIG    1       -3.697  -0.894   1.522  0.00  0.00    -0.169 OA
BRANCH   7  10
ATOM     10  C   LIG    1       -4.058   0.861  -0.424  0.00  0.00    +0.168 C 
ATOM     11  C   LIG    1       -5.454   1.150   0.069  0.00  0.00    +0.028 C 
ENDBRANCH   7  10
ENDBRANCH   1   7
BRANCH   4  12
ATOM     12  C   LIG    1        2.500  -0.696  -0.726  0.00  0.00    +0.138 C 
ATOM     13  N   LIG    1        3.336   0.279  -0.711  0.00  0.00    -0.188 NA
BRANCH  13  14
ATOM     14  N   LIG    1        4.671   0.180  -1.083  0.00  0.00    -0.219 N 
ATOM     15  H   LIG    1        4.971   0.626  -1.970  0.00  0.00    +0.176 HD
BRANCH  14  16
ATOM     16  C   LIG    1        5.569  -0.508  -0.265  0.00  0.00    +0.147 C 
ATOM     17  S   LIG    1        7.125  -0.623  -0.698  0.00  0.00    -0.017 S 
BRANCH  16  18
ATOM     18  N   LIG    1        5.136  -1.103   0.932  0.00  0.00    -0.339 N 
ATOM     19  H   LIG    1        5.760  -1.086   1.774  0.00  0.00    +0.144 HD
ATOM     20  H   LIG    1        4.205  -1.571   1.022  0.00  0.00    +0.144 HD
ENDBRANCH  16  18
ENDBRANCH  14  16
ENDBRANCH  13  14
ENDBRANCH   4  12
TORSDOF 6
