REMARK  Name = molecules/VVDGWALACJEJKG-UHFFFAOYSA-N.pdb
REMARK                            x       y       z     vdW  Elec       q    Type
REMARK                         _______ _______ _______ _____ _____    ______ ____
ROOT
ATOM      1  C   LIG    1        1.817   0.475   0.434  0.00  0.00    +0.061 A 
ATOM      2  C   LIG    1        0.642  -0.247   0.462  0.00  0.00    +0.041 A 
ATOM      3  I   LIG    1        0.777  -2.350   0.560  0.00  0.00    -0.042 I 
ATOM      4  C   LIG    1       -0.632   0.298   0.388  0.00  0.00    -0.002 A 
ATOM      5  C   LIG    1       -0.671   1.679   0.291  0.00  0.00    +0.034 A 
ATOM      6  C   LIG    1        0.457   2.464   0.266  0.00  0.00    +0.087 A 
ATOM      7  I   LIG    1       -2.551   2.678   0.258  0.00  0.00    -0.043 I 
ATOM      8  C   LIG    1        1.684   1.808   0.339  0.00  0.00    +0.051 A 
ATOM      9  I   LIG    1        3.404   3.038   0.371  0.00  0.00    -0.041 I 
ENDROOT
BRANCH   1  10
ATOM     10  N   LIG    1        3.040  -0.302   0.493  0.00  0.00    -0.284 N 
ATOM     11  H   LIG    1        3.532  -0.342   1.406  0.00  0.00    +0.155 HD
ATOM     12  C   LIG    1        3.519  -0.965  -0.668  0.00  0.00    +0.214 C 
ATOM     13  C   LIG    1        4.751  -1.859  -0.528  0.00  0.00    +0.109 C 
ATOM     14  O   LIG    1        2.991  -0.867  -1.745  0.00  0.00    -0.276 OA
ENDBRANCH   1  10
BRANCH   6  15
ATOM     15  C   LIG    1        0.401   3.956   0.215  0.00  0.00    +0.339 C 
ATOM     16  O   LIG    1        1.484   4.584   0.240  0.00  0.00    -0.245 OA
BRANCH  15  17
ATOM     17  O   LIG    1       -0.788   4.572   0.146  0.00  0.00    -0.477 OA
ATOM     18  H   LIG    1       -1.132   5.104   0.967  0.00  0.00    +0.295 HD
ENDBRANCH  15  17
ENDBRANCH   6  15
BRANCH   4  19
ATOM     19  C   LIG    1       -1.751  -0.586   0.588  0.00  0.00    +0.141 C 
BRANCH  19  20
ATOM     20  N   LIG    1       -2.771  -0.773  -0.365  0.00  0.00    -0.311 N 
ATOM     21  C   LIG    1       -3.642  -1.855  -0.090  0.00  0.00    +0.210 C 
ATOM     22  O   LIG    1       -3.552  -2.505   0.975  0.00  0.00    -0.276 OA
ATOM     23  C   LIG    1       -4.679  -2.293  -1.029  0.00  0.00    +0.109 C 
ATOM     24  H   LIG    1       -2.913  -0.189  -1.231  0.00  0.00    +0.149 HD
ENDBRANCH  19  20
ENDBRANCH   4  19
TORSDOF 5
