REMARK  Name = molecules/VVNCNSJFMMFHPL-VKHMYHEASA-N.pdb
REMARK                            x       y       z     vdW  Elec       q    Type
REMARK                         _______ _______ _______ _____ _____    ______ ____
ROOT
ATOM      1  CA  LIG    1        0.415   0.175   0.687  0.00  0.00    +0.176 C 
ENDROOT
BRANCH   1   3
ATOM      2  C   LIG    1       -0.372   0.692  -1.563  0.00  0.00    +0.024 C 
ATOM      3  C   LIG    1       -0.811   0.561  -0.126  0.00  0.00    +0.033 C 
ATOM      4  C   LIG    1       -1.864  -0.522  -0.064  0.00  0.00    +0.024 C 
BRANCH   3   5
ATOM      5  S   LIG    1       -1.518   2.082   0.529  0.00  0.00    -0.170 S 
ATOM      6  H   LIG    1       -1.261   2.088   1.931  0.00  0.00    +0.102 HD
ENDBRANCH   3   5
ENDBRANCH   1   3
BRANCH   1   7
ATOM      7  N   LIG    1        0.974  -1.069   0.239  0.00  0.00    -0.317 NA
ATOM      8  H1  LIG    1        1.501  -1.571   0.986  0.00  0.00    +0.119 HD
ATOM      9  H2  LIG    1        1.620  -0.974  -0.574  0.00  0.00    +0.119 HD
ENDBRANCH   1   7
BRANCH   1  10
ATOM     10  C   LIG    1        1.408   1.257   0.578  0.00  0.00    +0.323 C 
ATOM     11  OXT LIG    1        1.155   2.436   0.909  0.00  0.00    -0.249 OA
BRANCH  10  12
ATOM     12  O   LIG    1        2.670   0.966   0.092  0.00  0.00    -0.480 OA
ATOM     13  H   LIG    1        3.171   0.147   0.415  0.00  0.00    +0.295 HD
ENDBRANCH  10  12
ENDBRANCH   1  10
TORSDOF 5
