REMARK  Name = molecules/VVOIQBFMTVCINR-WWMZEODYSA-N.pdb
REMARK                            x       y       z     vdW  Elec       q    Type
REMARK                         _______ _______ _______ _____ _____    ______ ____
ROOT
ATOM      1  C   LIG    1        0.174  -1.197   1.711  0.00  0.00    +0.012 C 
ATOM      2  C   LIG    1       -0.047  -0.427   0.426  0.00  0.00    -0.019 C 
ATOM      3  C   LIG    1       -0.494   0.960   0.641  0.00  0.00    +0.008 C 
ATOM      4  C   LIG    1       -1.948   1.223   0.638  0.00  0.00    +0.005 C 
ATOM      5  C   LIG    1       -2.817   0.325  -0.153  0.00  0.00    +0.002 C 
ATOM      6  C   LIG    1       -4.261   0.434   0.272  0.00  0.00    -0.007 C 
ATOM      7  C   LIG    1       -4.450  -0.334   1.593  0.00  0.00    +0.016 C 
ATOM      8  C   LIG    1       -4.742   1.816   0.516  0.00  0.00    +0.019 C 
ATOM      9  C   LIG    1       -5.273   2.547  -0.686  0.00  0.00    +0.080 C 
ATOM     10  C   LIG    1       -6.187   1.715  -1.489  0.00  0.00    +0.156 C 
ATOM     11  C   LIG    1       -5.863   0.295  -1.592  0.00  0.00    +0.046 C 
ATOM     12  O   LIG    1       -7.175   2.260  -2.032  0.00  0.00    -0.293 OA
ATOM     13  C   LIG    1       -4.993  -0.299  -0.802  0.00  0.00    -0.060 C 
ATOM     14  C   LIG    1       -4.699  -1.731  -0.956  0.00  0.00    +0.032 C 
ATOM     15  C   LIG    1       -3.300  -2.124  -0.627  0.00  0.00    +0.008 C 
ATOM     16  C   LIG    1       -2.426  -1.148   0.033  0.00  0.00    -0.003 C 
ATOM     17  C   LIG    1       -1.043  -1.201  -0.455  0.00  0.00    -0.001 C 
ATOM     18  C   LIG    1       -0.367  -2.497  -0.580  0.00  0.00    +0.005 C 
ATOM     19  C   LIG    1        1.095  -2.079  -0.771  0.00  0.00    +0.012 C 
ATOM     20  C   LIG    1        1.119  -0.567  -0.534  0.00  0.00    +0.065 C 
ENDROOT
BRANCH  20  21
ATOM     21  C   LIG    1        2.379  -0.035  -0.105  0.00  0.00    +0.174 C 
ATOM     22  O   LIG    1        2.886   0.858  -0.808  0.00  0.00    -0.293 OA
BRANCH  21  23
ATOM     23  C   LIG    1        3.157  -0.430   1.090  0.00  0.00    +0.306 C 
BRANCH  23  24
ATOM     24  O   LIG    1        4.374   0.282   1.208  0.00  0.00    -0.457 OA
BRANCH  24  25
ATOM     25  C   LIG    1        5.297   0.154   0.182  0.00  0.00    +0.313 C 
ATOM     26  O   LIG    1        5.090  -0.567  -0.840  0.00  0.00    -0.250 OA
BRANCH  25  27
ATOM     27  C   LIG    1        6.606   0.885   0.249  0.00  0.00    +0.059 C 
ATOM     28  C   LIG    1        7.343   0.388   1.464  0.00  0.00    +0.022 C 
ATOM     29  C   LIG    1        6.342   2.377   0.323  0.00  0.00    +0.022 C 
ATOM     30  C   LIG    1        7.437   0.617  -0.976  0.00  0.00    +0.022 C 
ENDBRANCH  25  27
ENDBRANCH  24  25
ENDBRANCH  23  24
ENDBRANCH  21  23
ENDBRANCH  20  21
TORSDOF 5
