REMARK  Name = molecules/VVWYOYDLCMFIEM-UHFFFAOYSA-N.pdb
REMARK                            x       y       z     vdW  Elec       q    Type
REMARK                         _______ _______ _______ _____ _____    ______ ____
ROOT
ATOM      1  C   LIG    1        3.005  -0.273   1.089  0.00  0.00    +0.164 C 
ATOM      2  C   LIG    1        3.250   1.134   0.761  0.00  0.00    +0.013 A 
ATOM      3  C   LIG    1        2.550   2.116   1.431  0.00  0.00    +0.008 A 
ATOM      4  C   LIG    1        2.737   3.446   1.165  0.00  0.00    +0.001 A 
ATOM      5  C   LIG    1        3.640   3.851   0.209  0.00  0.00    +0.004 A 
ATOM      6  C   LIG    1        4.348   2.881  -0.470  0.00  0.00    +0.046 A 
ATOM      7  C   LIG    1        4.154   1.543  -0.197  0.00  0.00    +0.133 A 
ATOM      8  O   LIG    1        4.880   0.601  -0.895  0.00  0.00    -0.455 OA
ATOM      9  C   LIG    1        4.723  -0.756  -0.658  0.00  0.00    +0.133 A 
ATOM     10  C   LIG    1        5.491  -1.629  -1.403  0.00  0.00    +0.046 A 
ATOM     11  C   LIG    1        5.352  -2.984  -1.183  0.00  0.00    +0.004 A 
ATOM     12  C   LIG    1        4.454  -3.434  -0.231  0.00  0.00    +0.001 A 
ATOM     13  C   LIG    1        3.709  -2.549   0.491  0.00  0.00    +0.008 A 
ATOM     14  C   LIG    1        3.828  -1.187   0.292  0.00  0.00    +0.013 A 
ENDROOT
BRANCH   1  15
ATOM     15  C   LIG    1        1.560  -0.665   0.918  0.00  0.00    +0.319 C 
ATOM     16  O   LIG    1        1.249  -1.633   0.183  0.00  0.00    -0.250 OA
BRANCH  15  17
ATOM     17  O   LIG    1        0.566   0.013   1.549  0.00  0.00    -0.466 OA
BRANCH  17  18
ATOM     18  C   LIG    1       -0.822  -0.241   1.479  0.00  0.00    +0.214 C 
BRANCH  18  19
ATOM     19  C   LIG    1       -1.350  -0.110   0.101  0.00  0.00    -0.033 C 
BRANCH  19  20
ATOM     20  N   LIG    1       -2.741  -0.341  -0.086  0.00  0.00    +0.383 N 
ATOM     21  C   LIG    1       -3.188  -1.593   0.511  0.00  0.00    -0.091 C 
BRANCH  20  22
ATOM     22  C   LIG    1       -3.646   0.694   0.278  0.00  0.00    -0.072 C 
ATOM     23  C   LIG    1       -4.779   0.194   1.187  0.00  0.00    -0.013 C 
ATOM     24  C   LIG    1       -3.082   1.905   0.929  0.00  0.00    -0.013 C 
ENDBRANCH  20  22
BRANCH  20  25
ATOM     25  C   LIG    1       -2.862  -0.585  -1.540  0.00  0.00    -0.072 C 
ATOM     26  C   LIG    1       -4.135  -1.279  -1.893  0.00  0.00    -0.013 C 
ATOM     27  C   LIG    1       -2.672   0.650  -2.339  0.00  0.00    -0.013 C 
ENDBRANCH  20  25
ENDBRANCH  19  20
ENDBRANCH  18  19
ENDBRANCH  17  18
ENDBRANCH  15  17
ENDBRANCH   1  15
TORSDOF 7
