REMARK  Name = molecules/VWFCHDSQECPREK-LURJTMIESA-N.pdb
REMARK                            x       y       z     vdW  Elec       q    Type
REMARK                         _______ _______ _______ _____ _____    ______ ____
ROOT
ATOM      1  C   LIG    1       -0.926  -1.357  -0.333  0.00  0.00    +0.164 C 
ENDROOT
BRANCH   1   2
ATOM      2  C   LIG    1        0.379  -1.372  -1.060  0.00  0.00    +0.160 C 
BRANCH   2   3
ATOM      3  N   LIG    1        1.454  -0.665  -0.409  0.00  0.00    -0.296 N 
ATOM      4  C   LIG    1        2.288  -1.315   0.409  0.00  0.00    +0.350 A 
ATOM      5  N   LIG    1        3.270  -0.602   1.006  0.00  0.00    -0.178 NA
ATOM      6  C   LIG    1        3.424   0.716   0.802  0.00  0.00    +0.123 A 
ATOM      7  C   LIG    1        2.567   1.415  -0.045  0.00  0.00    +0.061 A 
ATOM      8  O   LIG    1        2.208  -2.562   0.651  0.00  0.00    -0.244 OA
ATOM      9  C   LIG    1        1.575   0.680  -0.645  0.00  0.00    +0.094 A 
BRANCH   6  10
ATOM     10  N   LIG    1        4.460   1.408   1.448  0.00  0.00    -0.343 N 
ATOM     11  H   LIG    1        4.271   2.192   2.095  0.00  0.00    +0.144 HD
ATOM     12  H   LIG    1        5.444   1.129   1.276  0.00  0.00    +0.144 HD
ENDBRANCH   6  10
ENDBRANCH   2   3
ENDBRANCH   1   2
BRANCH   1  13
ATOM     13  C   LIG    1       -0.967  -2.062   0.973  0.00  0.00    +0.189 C 
BRANCH  13  14
ATOM     14  O   LIG    1       -0.671  -3.407   0.914  0.00  0.00    -0.392 OA
ATOM     15  H   LIG    1       -1.282  -3.921   0.326  0.00  0.00    +0.210 HD
ENDBRANCH  13  14
ENDBRANCH   1  13
BRANCH   1  16
ATOM     16  O   LIG    1       -1.286  -0.015  -0.193  0.00  0.00    -0.360 OA
BRANCH  16  17
ATOM     17  C   LIG    1       -2.430   0.293  -0.923  0.00  0.00    +0.286 C 
BRANCH  17  18
ATOM     18  P   LIG    1       -2.786   2.051  -0.656  0.00  0.00    +0.353 P 
ATOM     19  O   LIG    1       -1.965   2.835  -1.651  0.00  0.00    -0.256 OA
BRANCH  18  20
ATOM     20  O   LIG    1       -2.249   2.442   0.908  0.00  0.00    -0.323 OA
ATOM     21  H   LIG    1       -2.691   1.828   1.552  0.00  0.00    +0.220 HD
ENDBRANCH  18  20
BRANCH  18  22
ATOM     22  O   LIG    1       -4.435   2.378  -0.815  0.00  0.00    -0.323 OA
ATOM     23  H   LIG    1       -4.629   3.177  -0.266  0.00  0.00    +0.220 HD
ENDBRANCH  18  22
ENDBRANCH  17  18
ENDBRANCH  16  17
ENDBRANCH   1  16
TORSDOF 10
