REMARK  Name = molecules/VWNWVCJGUMZDIU-CQSZACIVSA-N.pdb
REMARK                            x       y       z     vdW  Elec       q    Type
REMARK                         _______ _______ _______ _____ _____    ______ ____
ROOT
ATOM      1  N   LIG    1       -0.761   1.206  -0.237  0.00  0.00    -0.300 N 
ATOM      2  C   LIG    1        0.621   1.404   0.089  0.00  0.00    +0.031 C 
ATOM      3  C   LIG    1        1.195   2.618   0.371  0.00  0.00    +0.016 C 
ATOM      4  C   LIG    1        2.526   2.743   0.694  0.00  0.00    +0.063 C 
ATOM      5  C   LIG    1        3.358   1.653   0.751  0.00  0.00    +0.007 C 
ATOM      6  C   LIG    1        2.825   0.419   0.477  0.00  0.00    +0.089 C 
ATOM      7  S   LIG    1        0.241   4.106   0.349  0.00  0.00    -0.090 S 
ATOM      8  C   LIG    1       -1.419   3.595  -0.063  0.00  0.00    +0.033 C 
ATOM      9  C   LIG    1       -2.378   4.604  -0.138  0.00  0.00    +0.013 C 
ATOM     10  C   LIG    1       -3.674   4.273  -0.464  0.00  0.00    -0.017 C 
ATOM     11  C   LIG    1       -4.023   2.964  -0.714  0.00  0.00    +0.047 C 
ATOM     12  C   LIG    1       -3.037   2.005  -0.627  0.00  0.00    +0.006 C 
ATOM     13  C   LIG    1        1.482   0.322   0.155  0.00  0.00    +0.098 C 
ATOM     14  C   LIG    1       -1.714   2.272  -0.302  0.00  0.00    +0.044 C 
ENDROOT
BRANCH   6  15
ATOM     15  S   LIG    1        3.860  -0.977   0.544  0.00  0.00    +0.057 S 
ATOM     16  O   LIG    1        5.004  -0.690   1.493  0.00  0.00    -0.153 OA
ATOM     17  O   LIG    1        3.126  -2.165   1.082  0.00  0.00    -0.153 OA
BRANCH  15  18
ATOM     18  N   LIG    1        4.578  -1.304  -0.999  0.00  0.00    -0.183 NA
ATOM     19  C   LIG    1        5.408  -2.483  -0.945  0.00  0.00    +0.131 C 
ATOM     20  C   LIG    1        3.476  -1.577  -1.921  0.00  0.00    +0.131 C 
ENDBRANCH  15  18
ENDBRANCH   6  15
BRANCH   1  21
ATOM     21  C   LIG    1       -1.178  -0.138  -0.470  0.00  0.00    +0.129 C 
BRANCH  21  23
ATOM     22  C   LIG    1       -2.796  -0.440   1.479  0.00  0.00    +0.026 C 
ATOM     23  C   LIG    1       -1.640  -0.924   0.694  0.00  0.00    +0.071 C 
BRANCH  23  24
ATOM     24  N   LIG    1       -1.870  -2.290   0.262  0.00  0.00    -0.304 NA
ATOM     25  C   LIG    1       -2.006  -3.219   1.356  0.00  0.00    +0.104 C 
ATOM     26  C   LIG    1       -2.925  -2.477  -0.668  0.00  0.00    +0.104 C 
ENDBRANCH  23  24
ENDBRANCH  21  23
ENDBRANCH   1  21
TORSDOF 5
