REMARK  Name = molecules/VWOIKFDZQQLJBJ-DTQAZKPQSA-N.pdb
REMARK                            x       y       z     vdW  Elec       q    Type
REMARK                         _______ _______ _______ _____ _____    ______ ____
ROOT
ATOM      1  C   LIG    1       -1.808  -0.943  -1.022  0.00  0.00    +0.041 A 
ATOM      2  C   LIG    1       -0.441  -0.819  -0.955  0.00  0.00    +0.130 A 
ATOM      3  C   LIG    1        0.412  -1.682  -1.650  0.00  0.00    +0.046 A 
ATOM      4  C   LIG    1       -0.128  -2.684  -2.420  0.00  0.00    +0.004 A 
ATOM      5  C   LIG    1       -1.484  -2.851  -2.518  0.00  0.00    +0.001 A 
ATOM      6  C   LIG    1       -2.302  -1.975  -1.817  0.00  0.00    +0.013 A 
ENDROOT
BRANCH   1   7
ATOM      7  C   LIG    1       -2.642   0.049  -0.399  0.00  0.00    +0.064 C 
ATOM      8  C   LIG    1       -3.799  -0.344   0.152  0.00  0.00    +0.067 C 
BRANCH   7   9
ATOM      9  N   LIG    1       -2.338   1.464  -0.352  0.00  0.00    -0.305 N 
ATOM     10  C   LIG    1       -2.922   2.413   0.397  0.00  0.00    +0.112 A 
ATOM     11  C   LIG    1       -2.443   3.649   0.099  0.00  0.00    +0.130 A 
ATOM     12  N   LIG    1       -1.529   3.462  -0.870  0.00  0.00    -0.244 NA
ATOM     13  C   LIG    1       -1.473   2.118  -1.139  0.00  0.00    +0.204 A 
ENDBRANCH   7   9
BRANCH   8  14
ATOM     14  S   LIG    1       -4.378  -2.024   0.173  0.00  0.00    -0.134 S 
ATOM     15  C   LIG    1       -3.648  -2.985   1.508  0.00  0.00    +0.089 C 
ENDBRANCH   8  14
ENDBRANCH   1   7
BRANCH   2  16
ATOM     16  O   LIG    1        0.095   0.179  -0.171  0.00  0.00    -0.491 OA
BRANCH  16  17
ATOM     17  C   LIG    1        1.504   0.311  -0.097  0.00  0.00    +0.229 C 
BRANCH  17  18
ATOM     18  C   LIG    1        1.910   1.450   0.802  0.00  0.00    +0.041 C 
BRANCH  18  19
ATOM     19  C   LIG    1        3.405   1.618   0.892  0.00  0.00    +0.003 C 
BRANCH  19  20
ATOM     20  C   LIG    1        4.068   0.397   1.434  0.00  0.00    -0.003 C 
ATOM     21  C   LIG    1        5.569   0.639   1.505  0.00  0.00    +0.004 C 
ENDBRANCH  19  20
ENDBRANCH  18  19
ENDBRANCH  17  18
ENDBRANCH  16  17
ENDBRANCH   2  16
TORSDOF 8
