REMARK  Name = molecules/VWPOSFSPZNDTMJ-BPLDGKMQSA-N.pdb
REMARK                            x       y       z     vdW  Elec       q    Type
REMARK                         _______ _______ _______ _____ _____    ______ ____
ROOT
ATOM      1  C   LIG    1        2.990  -0.129  -0.377  0.00  0.00    +0.000 A 
ATOM      2  C   LIG    1        3.229  -1.254   0.559  0.00  0.00    +0.073 C 
ATOM      3  C   LIG    1        4.594  -1.223   1.173  0.00  0.00    +0.148 C 
ATOM      4  C   LIG    1        5.602  -0.434   0.426  0.00  0.00    +0.148 C 
ATOM      5  C   LIG    1        5.337  -0.222  -1.025  0.00  0.00    +0.069 C 
ATOM      6  C   LIG    1        1.712   0.387  -0.446  0.00  0.00    +0.124 A 
ATOM      7  C   LIG    1        1.470   1.438  -1.319  0.00  0.00    +0.046 A 
ATOM      8  C   LIG    1        2.471   1.968  -2.107  0.00  0.00    +0.004 A 
ATOM      9  C   LIG    1        3.745   1.446  -2.031  0.00  0.00    +0.004 A 
ATOM     10  C   LIG    1        3.987   0.402  -1.165  0.00  0.00    -0.038 A 
ENDROOT
BRANCH   3  11
ATOM     11  O   LIG    1        5.036  -2.535   1.319  0.00  0.00    -0.389 OA
ATOM     12  H   LIG    1        4.407  -2.965   1.982  0.00  0.00    +0.210 HD
ENDBRANCH   3  11
BRANCH   4  13
ATOM     13  O   LIG    1        5.862   0.816   1.014  0.00  0.00    -0.389 OA
ATOM     14  H   LIG    1        6.748   1.106   0.657  0.00  0.00    +0.210 HD
ENDBRANCH   4  13
BRANCH   6  15
ATOM     15  O   LIG    1        0.709  -0.148   0.348  0.00  0.00    -0.489 OA
BRANCH  15  16
ATOM     16  C   LIG    1       -0.615   0.292   0.359  0.00  0.00    +0.261 C 
BRANCH  16  17
ATOM     17  C   LIG    1       -1.484  -0.461   1.319  0.00  0.00    +0.166 C 
BRANCH  17  18
ATOM     18  O   LIG    1       -1.500  -1.833   0.992  0.00  0.00    -0.387 OA
ATOM     19  H   LIG    1       -0.680  -2.091   0.504  0.00  0.00    +0.210 HD
ENDBRANCH  17  18
BRANCH  17  20
ATOM     20  C   LIG    1       -2.925  -0.004   1.243  0.00  0.00    +0.116 C 
BRANCH  20  21
ATOM     21  N   LIG    1       -3.458  -0.217  -0.096  0.00  0.00    -0.309 NA
ATOM     22  H   LIG    1       -3.401  -1.248  -0.296  0.00  0.00    +0.123 HD
BRANCH  21  23
ATOM     23  C   LIG    1       -4.843   0.215  -0.175  0.00  0.00    +0.011 C 
ATOM     24  C   LIG    1       -5.693  -0.552   0.832  0.00  0.00    +0.027 C 
ATOM     25  C   LIG    1       -4.911   1.694   0.089  0.00  0.00    +0.027 C 
ATOM     26  C   LIG    1       -5.351  -0.059  -1.560  0.00  0.00    +0.027 C 
ENDBRANCH  21  23
ENDBRANCH  20  21
ENDBRANCH  17  20
ENDBRANCH  16  17
ENDBRANCH  15  16
ENDBRANCH   6  15
TORSDOF 9
