REMARK  Name = molecules/VWQWXZAWFPZJDA-CGVGKPPMSA-N.pdb
REMARK                            x       y       z     vdW  Elec       q    Type
REMARK                         _______ _______ _______ _____ _____    ______ ____
ROOT
ATOM      1  C   LIG    1        0.216  -0.918   1.622  0.00  0.00    +0.015 C 
ATOM      2  C   LIG    1        0.146  -0.535   0.186  0.00  0.00    +0.009 C 
ATOM      3  C   LIG    1       -0.263   0.866  -0.083  0.00  0.00    +0.041 C 
ATOM      4  C   LIG    1       -1.684   1.069   0.393  0.00  0.00    +0.119 C 
ATOM      5  C   LIG    1       -2.605   0.152  -0.362  0.00  0.00    +0.031 C 
ATOM      6  C   LIG    1       -4.056   0.399  -0.063  0.00  0.00    -0.005 C 
ATOM      7  C   LIG    1       -4.249   0.885   1.377  0.00  0.00    +0.016 C 
ATOM      8  C   LIG    1       -4.912  -0.766  -0.253  0.00  0.00    -0.060 C 
ATOM      9  C   LIG    1       -4.445  -2.172  -0.292  0.00  0.00    +0.032 C 
ATOM     10  C   LIG    1       -3.095  -2.138  -1.022  0.00  0.00    +0.008 C 
ATOM     11  C   LIG    1       -6.227  -0.572  -0.406  0.00  0.00    +0.046 C 
ATOM     12  C   LIG    1       -6.811   0.755  -0.387  0.00  0.00    +0.156 C 
ATOM     13  O   LIG    1       -8.015   0.903  -0.112  0.00  0.00    -0.293 OA
ATOM     14  C   LIG    1       -5.962   1.904  -0.696  0.00  0.00    +0.080 C 
ATOM     15  C   LIG    1       -4.526   1.518  -0.955  0.00  0.00    +0.019 C 
ATOM     16  C   LIG    1       -2.201  -1.300  -0.125  0.00  0.00    -0.001 C 
ATOM     17  C   LIG    1        1.440  -0.940  -0.479  0.00  0.00    +0.133 C 
ATOM     18  C   LIG    1        1.332  -2.446  -0.470  0.00  0.00    +0.043 C 
ATOM     19  C   LIG    1       -0.167  -2.772  -0.408  0.00  0.00    +0.008 C 
ATOM     20  C   LIG    1       -0.806  -1.447  -0.602  0.00  0.00    +0.002 C 
ENDROOT
BRANCH   4  21
ATOM     21  O   LIG    1       -1.708   0.901   1.755  0.00  0.00    -0.391 OA
ATOM     22  H   LIG    1       -1.476   1.778   2.166  0.00  0.00    +0.210 HD
ENDBRANCH   4  21
BRANCH  17  23
ATOM     23  C   LIG    1        2.638  -0.440   0.234  0.00  0.00    +0.202 C 
ATOM     24  O   LIG    1        2.876  -0.698   1.384  0.00  0.00    -0.291 OA
BRANCH  23  25
ATOM     25  C   LIG    1        3.592   0.426  -0.506  0.00  0.00    +0.309 C 
BRANCH  25  26
ATOM     26  O   LIG    1        4.658   0.799   0.332  0.00  0.00    -0.457 OA
BRANCH  26  27
ATOM     27  C   LIG    1        5.696   1.605  -0.100  0.00  0.00    +0.308 C 
ATOM     28  O   LIG    1        5.686   2.019  -1.282  0.00  0.00    -0.251 OA
BRANCH  27  29
ATOM     29  C   LIG    1        6.821   1.999   0.786  0.00  0.00    +0.132 C 
BRANCH  29  30
ATOM     30  C   LIG    1        8.034   1.156   0.472  0.00  0.00    +0.131 C 
BRANCH  30  31
ATOM     31  C   LIG    1        9.187   1.514   1.335  0.00  0.00    +0.305 C 
ATOM     32  O   LIG    1        9.091   2.424   2.206  0.00  0.00    -0.251 OA
BRANCH  31  33
ATOM     33  O   LIG    1       10.404   0.863   1.214  0.00  0.00    -0.481 OA
ATOM     34  H   LIG    1       10.487  -0.022   0.737  0.00  0.00    +0.295 HD
ENDBRANCH  31  33
ENDBRANCH  30  31
ENDBRANCH  29  30
ENDBRANCH  27  29
ENDBRANCH  26  27
ENDBRANCH  25  26
ENDBRANCH  23  25
ENDBRANCH  17  23
BRANCH  17  35
ATOM     35  O   LIG    1        1.406  -0.503  -1.779  0.00  0.00    -0.380 OA
ATOM     36  H   LIG    1        2.206  -0.745  -2.297  0.00  0.00    +0.211 HD
ENDBRANCH  17  35
TORSDOF 10
