REMARK  Name = molecules/VWXRQYYUEIYXCZ-OBIMUBPZSA-N.pdb
REMARK                            x       y       z     vdW  Elec       q    Type
REMARK                         _______ _______ _______ _____ _____    ______ ____
ROOT
ATOM      1  C   LIG    1       -4.229   2.780   0.945  0.00  0.00    +0.163 C 
ATOM      2  N   LIG    1       -3.539   1.507   0.911  0.00  0.00    -0.304 N 
ATOM      3  H   LIG    1       -4.104   0.617   1.010  0.00  0.00    +0.149 HD
ATOM      4  C   LIG    1       -2.137   1.371   0.750  0.00  0.00    +0.214 C 
ATOM      5  O   LIG    1       -1.502   0.485   1.386  0.00  0.00    -0.276 OA
ATOM      6  C   LIG    1       -1.361   2.248  -0.162  0.00  0.00    +0.107 C 
ATOM      7  C   LIG    1       -0.045   2.694   0.439  0.00  0.00    +0.090 C 
ATOM      8  S   LIG    1        1.107   3.249  -0.843  0.00  0.00    -0.093 S 
ATOM      9  S   LIG    1        2.583   1.779  -1.251  0.00  0.00    -0.091 S 
ATOM     10  C   LIG    1        2.076   0.204  -0.507  0.00  0.00    +0.112 C 
ATOM     11  C   LIG    1        2.621  -0.911  -1.352  0.00  0.00    +0.170 C 
ATOM     12  N   LIG    1        1.565  -1.549  -2.132  0.00  0.00    -0.302 N 
ATOM     13  C   LIG    1        0.603  -2.467  -1.741  0.00  0.00    +0.234 C 
ATOM     14  C   LIG    1       -0.404  -2.355  -0.651  0.00  0.00    +0.168 C 
ATOM     15  N   LIG    1       -1.457  -3.352  -0.826  0.00  0.00    -0.302 N 
ATOM     16  H   LIG    1       -1.107  -4.357  -0.757  0.00  0.00    +0.150 HD
ATOM     17  C   LIG    1       -2.806  -3.143  -1.064  0.00  0.00    +0.236 C 
ATOM     18  C   LIG    1       -3.578  -1.872  -0.777  0.00  0.00    +0.187 C 
ATOM     19  N   LIG    1       -3.822  -1.163  -1.996  0.00  0.00    -0.300 N 
ATOM     20  C   LIG    1       -4.029   0.199  -2.246  0.00  0.00    +0.234 C 
ATOM     21  C   LIG    1       -5.174   1.046  -1.821  0.00  0.00    +0.162 C 
ATOM     22  N   LIG    1       -4.757   2.414  -1.554  0.00  0.00    -0.302 N 
ATOM     23  H   LIG    1       -4.329   2.928  -2.385  0.00  0.00    +0.150 HD
ATOM     24  O   LIG    1       -3.150   0.864  -2.930  0.00  0.00    -0.274 OA
ATOM     25  H   LIG    1       -3.832  -1.782  -2.873  0.00  0.00    +0.150 HD
ATOM     26  O   LIG    1       -3.471  -4.091  -1.570  0.00  0.00    -0.274 OA
ATOM     27  O   LIG    1        0.561  -3.574  -2.401  0.00  0.00    -0.274 OA
ATOM     28  H   LIG    1        1.559  -1.238  -3.162  0.00  0.00    +0.150 HD
ATOM     29  C   LIG    1       -4.866   3.123  -0.352  0.00  0.00    +0.234 C 
ATOM     30  O   LIG    1       -5.578   4.187  -0.324  0.00  0.00    -0.274 OA
ENDROOT
BRANCH  11  31
ATOM     31  C   LIG    1        3.419  -1.917  -0.630  0.00  0.00    +0.237 C 
ATOM     32  N   LIG    1        4.523  -1.662   0.208  0.00  0.00    -0.288 N 
ATOM     33  C   LIG    1        5.254  -2.743   0.911  0.00  0.00    +0.109 C 
ATOM     34  C   LIG    1        5.650  -2.115   2.195  0.00  0.00    +0.021 C 
ATOM     35  C   LIG    1        5.316  -0.642   2.115  0.00  0.00    +0.033 C 
ATOM     36  C   LIG    1        5.189  -0.457   0.594  0.00  0.00    +0.162 C 
ATOM     37  O   LIG    1        3.077  -3.144  -0.774  0.00  0.00    -0.274 OA
BRANCH  36  38
ATOM     38  C   LIG    1        6.622  -0.373   0.114  0.00  0.00    +0.234 C 
ATOM     39  N   LIG    1        7.456   0.650   0.615  0.00  0.00    -0.302 N 
ATOM     40  H   LIG    1        6.988   1.353   1.317  0.00  0.00    +0.150 HD
ATOM     41  O   LIG    1        7.021  -1.204  -0.702  0.00  0.00    -0.274 OA
BRANCH  39  42
ATOM     42  C   LIG    1        8.814   0.953   0.379  0.00  0.00    +0.159 C 
BRANCH  42  43
ATOM     43  C   LIG    1        9.105   2.243  -0.262  0.00  0.00    +0.234 C 
ATOM     44  N   LIG    1       10.435   2.693  -0.393  0.00  0.00    -0.305 N 
ATOM     45  H   LIG    1       11.213   2.116  -0.030  0.00  0.00    +0.149 HD
ATOM     46  O   LIG    1        8.197   3.005  -0.718  0.00  0.00    -0.274 OA
BRANCH  44  47
ATOM     47  C   LIG    1       10.762   3.945  -1.017  0.00  0.00    +0.199 C 
BRANCH  47  48
ATOM     48  C   LIG    1       12.233   4.163  -0.988  0.00  0.00    +0.228 C 
ATOM     49  O   LIG    1       12.966   3.302  -0.474  0.00  0.00    -0.274 OA
ATOM     50  N   LIG    1       12.803   5.351  -1.544  0.00  0.00    -0.328 N 
ATOM     51  H   LIG    1       13.837   5.439  -1.625  0.00  0.00    +0.145 HD
ATOM     52  H   LIG    1       12.174   6.112  -1.860  0.00  0.00    +0.145 HD
ENDBRANCH  47  48
ENDBRANCH  44  47
ENDBRANCH  42  43
BRANCH  42  53
ATOM     53  C   LIG    1        9.646  -0.124  -0.293  0.00  0.00    +0.033 C 
BRANCH  53  54
ATOM     54  C   LIG    1        9.811  -1.372   0.523  0.00  0.00    +0.017 C 
BRANCH  54  55
ATOM     55  C   LIG    1       10.649  -2.332  -0.331  0.00  0.00    +0.078 C 
BRANCH  55  56
ATOM     56  N   LIG    1       11.939  -1.763  -0.654  0.00  0.00    -0.330 NA
ATOM     57  H   LIG    1       12.296  -1.245   0.178  0.00  0.00    +0.118 HD
ATOM     58  H   LIG    1       11.871  -1.108  -1.438  0.00  0.00    +0.118 HD
ENDBRANCH  55  56
ENDBRANCH  54  55
ENDBRANCH  53  54
ENDBRANCH  42  53
ENDBRANCH  39  42
ENDBRANCH  36  38
ENDBRANCH  11  31
BRANCH  21  59
ATOM     59  C   LIG    1       -6.085   1.178  -3.070  0.00  0.00    +0.015 C 
ATOM     60  C   LIG    1       -6.634  -0.128  -3.521  0.00  0.00    +0.010 C 
BRANCH  59  61
ATOM     61  C   LIG    1       -7.076   2.275  -2.916  0.00  0.00    +0.002 C 
ATOM     62  C   LIG    1       -8.023   2.138  -1.768  0.00  0.00    +0.004 C 
ENDBRANCH  59  61
ENDBRANCH  21  59
BRANCH  18  63
ATOM     63  C   LIG    1       -4.930  -2.249  -0.167  0.00  0.00    +0.141 C 
ATOM     64  C   LIG    1       -5.759  -3.120  -1.073  0.00  0.00    +0.040 C 
BRANCH  63  65
ATOM     65  O   LIG    1       -4.745  -2.945   1.061  0.00  0.00    -0.390 OA
ATOM     66  H   LIG    1       -4.436  -2.291   1.746  0.00  0.00    +0.210 HD
ENDBRANCH  63  65
ENDBRANCH  18  63
BRANCH  14  67
ATOM     67  C   LIG    1        0.242  -2.729   0.691  0.00  0.00    +0.127 C 
BRANCH  67  68
ATOM     68  C   LIG    1       -0.716  -2.704   1.807  0.00  0.00    +0.213 C 
ATOM     69  N   LIG    1       -0.403  -2.007   2.993  0.00  0.00    -0.329 N 
ATOM     70  H   LIG    1       -1.154  -1.633   3.622  0.00  0.00    +0.145 HD
ATOM     71  H   LIG    1        0.594  -1.862   3.259  0.00  0.00    +0.145 HD
ATOM     72  O   LIG    1       -1.798  -3.332   1.627  0.00  0.00    -0.276 OA
ENDBRANCH  67  68
ENDBRANCH  14  67
BRANCH   1  73
ATOM     73  C   LIG    1       -5.157   2.880   2.125  0.00  0.00    +0.067 C 
BRANCH  73  75
ATOM     74  C   LIG    1       -7.476   2.066   1.636  0.00  0.00    +0.007 A 
ATOM     75  C   LIG    1       -6.214   1.872   2.177  0.00  0.00    -0.045 A 
ATOM     76  C   LIG    1       -5.969   0.660   2.792  0.00  0.00    +0.007 A 
ATOM     77  C   LIG    1       -6.905  -0.349   2.891  0.00  0.00    +0.046 A 
ATOM     78  C   LIG    1       -8.157  -0.142   2.349  0.00  0.00    +0.121 A 
ATOM     79  C   LIG    1       -8.426   1.066   1.726  0.00  0.00    +0.046 A 
BRANCH  78  80
ATOM     80  O   LIG    1       -9.080  -1.171   2.462  0.00  0.00    -0.492 OA
BRANCH  80  81
ATOM     81  C   LIG    1      -10.397  -1.088   1.954  0.00  0.00    +0.225 C 
ATOM     82  C   LIG    1      -11.164  -2.363   2.232  0.00  0.00    +0.048 C 
ENDBRANCH  80  81
ENDBRANCH  78  80
ENDBRANCH  73  75
ENDBRANCH   1  73
TORSDOF 20
