REMARK  Name = molecules/VXMOONUMYLCFJD-DHLKQENFSA-N.pdb
REMARK                            x       y       z     vdW  Elec       q    Type
REMARK                         _______ _______ _______ _____ _____    ______ ____
ROOT
ATOM      1  C   LIG    1       -1.548   0.728   0.598  0.00  0.00    +0.065 C 
ATOM      2  C   LIG    1       -1.225   0.917   1.849  0.00  0.00    +0.016 C 
ATOM      3  N   LIG    1       -2.178   1.287   2.844  0.00  0.00    -0.321 N 
ATOM      4  H   LIG    1       -1.891   1.435   3.849  0.00  0.00    +0.152 HD
ATOM      5  C   LIG    1       -3.533   1.454   2.444  0.00  0.00    +0.016 C 
ATOM      6  C   LIG    1       -4.522   1.848   3.527  0.00  0.00    +0.061 C 
ATOM      7  C   LIG    1       -3.880   1.271   1.202  0.00  0.00    +0.065 C 
ATOM      8  C   LIG    1        0.199   0.751   2.313  0.00  0.00    +0.061 C 
ATOM      9  C   LIG    1       -2.933   0.892   0.156  0.00  0.00    +0.096 C 
ENDROOT
BRANCH   9  10
ATOM     10  C   LIG    1       -3.412  -0.251  -0.663  0.00  0.00    -0.033 A 
ATOM     11  C   LIG    1       -3.557  -1.498  -0.120  0.00  0.00    +0.037 A 
ATOM     12  C   LIG    1       -4.001  -2.588  -0.854  0.00  0.00    +0.126 A 
ATOM     13  C   LIG    1       -4.308  -2.402  -2.185  0.00  0.00    +0.033 A 
ATOM     14  C   LIG    1       -4.170  -1.149  -2.762  0.00  0.00    +0.003 A 
ATOM     15  C   LIG    1       -3.719  -0.070  -1.991  0.00  0.00    +0.005 A 
BRANCH  12  16
ATOM     16  N   LIG    1       -4.131  -3.854  -0.240  0.00  0.00    +0.056 N 
ATOM     17  O   LIG    1       -3.831  -4.045   1.071  0.00  0.00    -0.126 OA
ATOM     18  O   LIG    1       -4.530  -4.810  -0.919  0.00  0.00    -0.126 OA
ENDBRANCH  12  16
ENDBRANCH   9  10
BRANCH   1  19
ATOM     19  C   LIG    1       -0.505   0.344  -0.385  0.00  0.00    +0.338 C 
ATOM     20  O   LIG    1       -0.838   0.164  -1.601  0.00  0.00    -0.245 OA
BRANCH  19  21
ATOM     21  O   LIG    1        0.782   0.174  -0.063  0.00  0.00    -0.457 OA
BRANCH  21  22
ATOM     22  C   LIG    1        1.848  -0.185  -0.901  0.00  0.00    +0.192 C 
ATOM     23  C   LIG    1        2.680  -1.304  -0.409  0.00  0.00    +0.129 C 
ATOM     24  N   LIG    1        4.002  -0.835  -0.096  0.00  0.00    -0.295 NA
ATOM     25  C   LIG    1        3.801   0.566   0.227  0.00  0.00    +0.088 C 
ATOM     26  C   LIG    1        2.831   0.986  -0.879  0.00  0.00    +0.061 C 
BRANCH  24  27
ATOM     27  C   LIG    1        4.910  -0.991  -1.220  0.00  0.00    +0.119 C 
BRANCH  27  28
ATOM     28  C   LIG    1        6.275  -0.533  -0.872  0.00  0.00    -0.033 A 
ATOM     29  C   LIG    1        6.728  -0.308   0.392  0.00  0.00    +0.005 A 
ATOM     30  C   LIG    1        8.018   0.115   0.663  0.00  0.00    +0.000 A 
ATOM     31  C   LIG    1        8.895   0.323  -0.376  0.00  0.00    +0.000 A 
ATOM     32  C   LIG    1        8.443   0.097  -1.659  0.00  0.00    +0.000 A 
ATOM     33  C   LIG    1        7.173  -0.320  -1.923  0.00  0.00    +0.005 A 
ENDBRANCH  27  28
ENDBRANCH  24  27
ENDBRANCH  21  22
ENDBRANCH  19  21
ENDBRANCH   1  19
BRANCH   7  34
ATOM     34  C   LIG    1       -5.302   1.460   0.850  0.00  0.00    +0.337 C 
ATOM     35  O   LIG    1       -6.128   1.777   1.697  0.00  0.00    -0.245 OA
BRANCH  34  36
ATOM     36  O   LIG    1       -5.734   1.279  -0.459  0.00  0.00    -0.465 OA
ATOM     37  C   LIG    1       -7.093   1.465  -0.763  0.00  0.00    +0.280 C 
ENDBRANCH  34  36
ENDBRANCH   7  34
TORSDOF 9
