REMARK  Name = molecules/VXOWJCTXWVWLLC-REGDIAEZSA-N.pdb
REMARK                            x       y       z     vdW  Elec       q    Type
REMARK                         _______ _______ _______ _____ _____    ______ ____
ROOT
ATOM      1  C   LIG    1       -1.264   0.176  -0.814  0.00  0.00    +0.182 C 
ATOM      2  C   LIG    1        0.018   0.535  -0.179  0.00  0.00    +0.021 C 
ATOM      3  C   LIG    1        0.277  -0.103   1.175  0.00  0.00    +0.045 C 
ATOM      4  C   LIG    1        1.720   0.083   1.629  0.00  0.00    +0.154 C 
ATOM      5  C   LIG    1        2.688  -0.431   0.631  0.00  0.00    +0.153 C 
ATOM      6  C   LIG    1        4.128  -0.264   1.032  0.00  0.00    +0.044 C 
ATOM      7  C   LIG    1        4.490  -1.089   2.172  0.00  0.00    -0.009 C 
ATOM      8  C   LIG    1        5.515  -1.920   2.251  0.00  0.00    +0.047 C 
ATOM      9  C   LIG    1        6.402  -2.065   1.107  0.00  0.00    +0.179 C 
ATOM     10  O   LIG    1        7.384  -2.817   1.098  0.00  0.00    -0.288 OA
ATOM     11  C   LIG    1        6.056  -1.253  -0.057  0.00  0.00    +0.051 C 
ATOM     12  C   LIG    1        4.386   1.189   1.504  0.00  0.00    +0.023 C 
ATOM     13  C   LIG    1        5.035  -0.447  -0.094  0.00  0.00    -0.053 C 
ATOM     14  C   LIG    1        4.756   0.278  -1.395  0.00  0.00    +0.032 C 
ATOM     15  C   LIG    1        3.395  -0.314  -1.798  0.00  0.00    +0.011 C 
ATOM     16  F   LIG    1        2.423  -1.771   0.441  0.00  0.00    -0.238 F 
ATOM     17  C   LIG    1        2.417   0.221  -0.729  0.00  0.00    +0.034 C 
ATOM     18  C   LIG    1        0.208   2.025  -0.116  0.00  0.00    +0.016 C 
ATOM     19  C   LIG    1        1.027  -0.132  -1.090  0.00  0.00    +0.006 C 
ATOM     20  C   LIG    1        0.577   0.380  -2.426  0.00  0.00    +0.012 C 
ATOM     21  C   LIG    1       -0.907   0.186  -2.321  0.00  0.00    +0.038 C 
ATOM     22  C   LIG    1       -1.589   1.214  -3.117  0.00  0.00    +0.012 C 
ENDROOT
BRANCH   1  23
ATOM     23  C   LIG    1       -2.357   1.157  -0.606  0.00  0.00    +0.214 C 
ATOM     24  O   LIG    1       -2.112   2.318  -0.965  0.00  0.00    -0.289 OA
BRANCH  23  25
ATOM     25  C   LIG    1       -3.685   0.947  -0.040  0.00  0.00    +0.310 C 
BRANCH  25  26
ATOM     26  O   LIG    1       -4.447   2.163  -0.252  0.00  0.00    -0.457 OA
BRANCH  26  27
ATOM     27  C   LIG    1       -5.750   2.292   0.162  0.00  0.00    +0.307 C 
ATOM     28  O   LIG    1       -6.272   1.307   0.740  0.00  0.00    -0.251 OA
BRANCH  27  29
ATOM     29  C   LIG    1       -6.564   3.516  -0.035  0.00  0.00    +0.117 C 
ATOM     30  C   LIG    1       -5.771   4.600  -0.725  0.00  0.00    +0.015 C 
ENDBRANCH  27  29
ENDBRANCH  26  27
ENDBRANCH  25  26
ENDBRANCH  23  25
ENDBRANCH   1  23
BRANCH   4  31
ATOM     31  O   LIG    1        1.939   1.326   2.142  0.00  0.00    -0.389 OA
ATOM     32  H   LIG    1        1.177   1.766   2.543  0.00  0.00    +0.210 HD
ENDBRANCH   4  31
BRANCH   1  33
ATOM     33  O   LIG    1       -1.603  -1.143  -0.578  0.00  0.00    -0.449 OA
BRANCH  33  34
ATOM     34  C   LIG    1       -2.099  -1.829   0.458  0.00  0.00    +0.308 C 
ATOM     35  O   LIG    1       -2.370  -1.250   1.516  0.00  0.00    -0.251 OA
BRANCH  34  36
ATOM     36  C   LIG    1       -2.324  -3.325   0.319  0.00  0.00    +0.120 C 
BRANCH  36  37
ATOM     37  C   LIG    1       -2.879  -3.829   1.634  0.00  0.00    +0.008 C 
ATOM     38  C   LIG    1       -3.090  -5.336   1.453  0.00  0.00    +0.004 C 
ENDBRANCH  36  37
ENDBRANCH  34  36
ENDBRANCH  33  34
ENDBRANCH   1  33
TORSDOF 10
