REMARK  Name = molecules/VXTGHWHFYNYFFV-IBGZPJMESA-N.pdb
REMARK                            x       y       z     vdW  Elec       q    Type
REMARK                         _______ _______ _______ _____ _____    ______ ____
ROOT
ATOM      1  C   LIG    1       -1.622   0.557   0.516  0.00  0.00    +0.028 A 
ATOM      2  C   LIG    1       -1.224   0.179   1.778  0.00  0.00    +0.018 A 
ATOM      3  C   LIG    1        0.113  -0.050   2.037  0.00  0.00    +0.031 A 
ATOM      4  C   LIG    1        1.079   0.090   1.052  0.00  0.00    +0.091 A 
ATOM      5  N   LIG    1        2.411  -0.056   0.993  0.00  0.00    -0.214 NA
ATOM      6  C   LIG    1        2.830   0.221  -0.261  0.00  0.00    +0.203 A 
ATOM      7  N   LIG    1        1.760   0.544  -1.006  0.00  0.00    -0.326 N 
ATOM      8  H   LIG    1        1.740   0.813  -2.026  0.00  0.00    +0.169 HD
ATOM      9  C   LIG    1        0.691   0.468  -0.216  0.00  0.00    +0.069 A 
ATOM     10  C   LIG    1       -0.656   0.693  -0.457  0.00  0.00    +0.044 A 
ENDROOT
BRANCH   6  11
ATOM     11  N   LIG    1        4.158   0.191  -0.762  0.00  0.00    -0.221 N 
ATOM     12  C   LIG    1        5.220  -0.163   0.102  0.00  0.00    +0.406 C 
ATOM     13  O   LIG    1        4.980  -0.446   1.297  0.00  0.00    -0.226 OA
ATOM     14  H   LIG    1        4.381   0.422  -1.750  0.00  0.00    +0.161 HD
BRANCH  12  15
ATOM     15  O   LIG    1        6.531  -0.210  -0.327  0.00  0.00    -0.453 OA
ATOM     16  C   LIG    1        7.570  -0.564   0.552  0.00  0.00    +0.282 C 
ENDBRANCH  12  15
ENDBRANCH   6  11
BRANCH   1  17
ATOM     17  S   LIG    1       -3.305   0.875   0.077  0.00  0.00    -0.012 S 
ATOM     18  O   LIG    1       -3.308   1.931  -1.023  0.00  0.00    -0.157 OA
BRANCH  17  19
ATOM     19  C   LIG    1       -4.041  -0.644  -0.487  0.00  0.00    +0.095 C 
BRANCH  19  20
ATOM     20  C   LIG    1       -5.486  -0.479  -0.888  0.00  0.00    +0.009 C 
ATOM     21  C   LIG    1       -6.349   0.006   0.242  0.00  0.00    +0.005 C 
ENDBRANCH  19  20
ENDBRANCH  17  19
ENDBRANCH   1  17
TORSDOF 5
