REMARK  Name = molecules/VXTWEDPZMSVFEF-MRVPVSSYSA-N.pdb
REMARK                            x       y       z     vdW  Elec       q    Type
REMARK                         _______ _______ _______ _____ _____    ______ ____
ROOT
ATOM      1  C   LIG    1       -0.554  -0.491   0.595  0.00  0.00    +0.055 C 
ENDROOT
BRANCH   1   7
ATOM      2  C   LIG    1        1.730   0.376   1.033  0.00  0.00    +0.004 A 
ATOM      3  C   LIG    1        3.036   0.574   0.624  0.00  0.00    +0.000 A 
ATOM      4  C   LIG    1        3.458   0.139  -0.620  0.00  0.00    +0.000 A 
ATOM      5  C   LIG    1        2.577  -0.494  -1.453  0.00  0.00    +0.000 A 
ATOM      6  C   LIG    1        1.277  -0.679  -1.018  0.00  0.00    +0.004 A 
ATOM      7  C   LIG    1        0.838  -0.254   0.214  0.00  0.00    -0.046 A 
ENDBRANCH   1   7
BRANCH   1   8
ATOM      8  C   LIG    1       -1.497   0.613   0.217  0.00  0.00    +0.070 C 
ATOM      9  C   LIG    1       -1.531   0.926  -1.238  0.00  0.00    +0.025 C 
BRANCH   8  10
ATOM     10  N   LIG    1       -2.827   0.233   0.659  0.00  0.00    -0.256 NA
ATOM     11  H   LIG    1       -2.779   0.168   1.706  0.00  0.00    +0.141 HD
BRANCH  10  12
ATOM     12  N   LIG    1       -3.290  -0.934   0.100  0.00  0.00    -0.270 NA
ATOM     13  H   LIG    1       -3.494  -1.661   0.826  0.00  0.00    +0.137 HD
ATOM     14  H   LIG    1       -2.740  -1.324  -0.669  0.00  0.00    +0.137 HD
ENDBRANCH  10  12
ENDBRANCH   8  10
ENDBRANCH   1   8
TORSDOF 4
