REMARK  Name = molecules/VYAGDYWTCWDKIS-MRVPVSSYSA-N.pdb
REMARK                            x       y       z     vdW  Elec       q    Type
REMARK                         _______ _______ _______ _____ _____    ______ ____
ROOT
ATOM      1  C   LIG    1        1.346   0.093  -0.586  0.00  0.00    +0.148 A 
ATOM      2  C   LIG    1        2.244   1.061  -0.225  0.00  0.00    +0.057 A 
ATOM      3  C   LIG    1        3.607   0.779   0.024  0.00  0.00    +0.032 A 
ATOM      4  C   LIG    1        4.080  -0.507  -0.097  0.00  0.00    +0.016 A 
ATOM      5  I   LIG    1        6.083  -1.017   0.252  0.00  0.00    -0.044 I 
ATOM      6  C   LIG    1        3.203  -1.500  -0.462  0.00  0.00    +0.032 A 
ATOM      7  I   LIG    1        1.769   3.117  -0.148  0.00  0.00    -0.040 I 
ATOM      8  C   LIG    1        1.880  -1.195  -0.696  0.00  0.00    +0.057 A 
ATOM      9  I   LIG    1        0.587  -2.754  -1.232  0.00  0.00    -0.040 I 
ENDROOT
BRANCH   1  10
ATOM     10  O   LIG    1        0.027   0.378  -0.829  0.00  0.00    -0.476 OA
BRANCH  10  11
ATOM     11  C   LIG    1       -1.112   0.138  -0.119  0.00  0.00    +0.281 C 
BRANCH  11  12
ATOM     12  C   LIG    1       -1.601   1.046   0.910  0.00  0.00    +0.346 C 
ATOM     13  O   LIG    1       -1.064   2.103   1.236  0.00  0.00    -0.247 OA
BRANCH  12  14
ATOM     14  O   LIG    1       -2.791   0.730   1.623  0.00  0.00    -0.478 OA
ATOM     15  H   LIG    1       -3.447   1.482   1.794  0.00  0.00    +0.295 HD
ENDBRANCH  12  14
ENDBRANCH  11  12
BRANCH  11  16
ATOM     16  C   LIG    1       -2.224  -0.124  -1.151  0.00  0.00    +0.053 C 
ATOM     17  C   LIG    1       -3.539  -0.416  -0.514  0.00  0.00    +0.008 C 
ENDBRANCH  11  16
ENDBRANCH  10  11
ENDBRANCH   1  10
TORSDOF 5
