REMARK  Name = molecules/VYFYYTLLBUKUHU-UHFFFAOYSA-N.pdb
REMARK                            x       y       z     vdW  Elec       q    Type
REMARK                         _______ _______ _______ _____ _____    ______ ____
ROOT
ATOM      1  C   LIG    1        0.115  -0.028  -0.479  0.00  0.00    -0.042 A 
ATOM      2  C   LIG    1       -0.728   0.823   0.180  0.00  0.00    +0.052 A 
ATOM      3  C   LIG    1       -2.083   0.581   0.339  0.00  0.00    +0.158 A 
ATOM      4  C   LIG    1       -2.628  -0.575  -0.190  0.00  0.00    +0.158 A 
ATOM      5  C   LIG    1       -1.783  -1.435  -0.854  0.00  0.00    +0.049 A 
ATOM      6  C   LIG    1       -0.428  -1.184  -1.008  0.00  0.00    +0.007 A 
ENDROOT
BRANCH   3   7
ATOM      7  O   LIG    1       -2.932   1.450   1.009  0.00  0.00    -0.503 OA
ATOM      8  H   LIG    1       -2.516   2.295   1.392  0.00  0.00    +0.292 HD
ENDBRANCH   3   7
BRANCH   4   9
ATOM      9  O   LIG    1       -3.975  -0.895  -0.076  0.00  0.00    -0.503 OA
ATOM     10  H   LIG    1       -4.581  -0.247   0.417  0.00  0.00    +0.292 HD
ENDBRANCH   4   9
BRANCH   1  11
ATOM     11  C   LIG    1        1.542   0.311  -0.599  0.00  0.00    +0.050 C 
BRANCH  11  12
ATOM     12  C   LIG    1        2.375  -0.216   0.538  0.00  0.00    +0.082 C 
BRANCH  12  13
ATOM     13  N   LIG    1        3.758   0.205   0.268  0.00  0.00    -0.330 NA
ATOM     14  H   LIG    1        4.327  -0.137   1.075  0.00  0.00    +0.118 HD
ATOM     15  H   LIG    1        3.795   1.243   0.306  0.00  0.00    +0.118 HD
ENDBRANCH  12  13
ENDBRANCH  11  12
ENDBRANCH   1  11
TORSDOF 5
