REMARK  Name = molecules/VYGQUTWHTHXGQB-FFHKNEKCSA-N.pdb
REMARK                            x       y       z     vdW  Elec       q    Type
REMARK                         _______ _______ _______ _____ _____    ______ ____
ROOT
ATOM      1  C   LIG    1       -2.766  -0.726   1.092  0.00  0.00    -0.051 C 
ATOM      2  C   LIG    1       -1.756  -1.576   1.397  0.00  0.00    +0.017 C 
ATOM      3  C   LIG    1       -2.402   0.703   0.951  0.00  0.00    +0.043 C 
ENDROOT
BRANCH   1   5
ATOM      4  C   LIG    1       -5.082  -0.246   0.632  0.00  0.00    +0.001 C 
ATOM      5  C   LIG    1       -4.131  -1.145   0.932  0.00  0.00    +0.003 C 
BRANCH   4   7
ATOM      6  C   LIG    1       -7.287   0.557   0.149  0.00  0.00    -0.050 C 
ATOM      7  C   LIG    1       -6.475  -0.474   0.437  0.00  0.00    +0.003 C 
ATOM      8  C   LIG    1       -6.559   1.875   0.063  0.00  0.00    +0.044 C 
BRANCH   6  10
ATOM      9  C   LIG    1       -9.841   0.317  -0.226  0.00  0.00    +0.004 C 
ATOM     10  C   LIG    1       -8.685   0.407  -0.054  0.00  0.00    +0.003 C 
BRANCH   9  11
ATOM     11  C   LIG    1      -11.247   0.207  -0.435  0.00  0.00    -0.043 C 
ATOM     12  C   LIG    1      -11.999  -1.057  -0.405  0.00  0.00    -0.010 C 
ATOM     13  C   LIG    1      -12.195  -1.368   1.100  0.00  0.00    +0.016 C 
ATOM     14  C   LIG    1      -11.094  -2.139  -1.018  0.00  0.00    +0.016 C 
ATOM     15  C   LIG    1      -13.314  -1.046  -1.086  0.00  0.00    +0.011 C 
ATOM     16  C   LIG    1      -13.663   0.199  -1.835  0.00  0.00    +0.005 C 
ATOM     17  C   LIG    1      -13.378   1.369  -0.920  0.00  0.00    +0.031 C 
ATOM     18  C   LIG    1      -11.918   1.370  -0.696  0.00  0.00    -0.069 C 
ATOM     19  C   LIG    1      -11.178   2.646  -0.748  0.00  0.00    +0.039 C 
ENDBRANCH   9  11
ENDBRANCH   6  10
ENDBRANCH   4   7
ENDBRANCH   1   5
BRANCH   2  20
ATOM     20  C   LIG    1       -0.418  -1.055   1.532  0.00  0.00    +0.260 C 
BRANCH  20  21
ATOM     21  O   LIG    1        0.737  -0.658   1.803  0.00  0.00    -0.460 OA
BRANCH  21  22
ATOM     22  C   LIG    1        1.687  -0.006   1.009  0.00  0.00    +0.307 C 
ATOM     23  O   LIG    1        1.375   0.228  -0.224  0.00  0.00    -0.251 OA
BRANCH  22  24
ATOM     24  C   LIG    1        3.014   0.464   1.399  0.00  0.00    +0.120 C 
BRANCH  24  25
ATOM     25  C   LIG    1        4.057  -0.531   1.046  0.00  0.00    +0.011 C 
BRANCH  25  26
ATOM     26  C   LIG    1        5.484  -0.043   1.317  0.00  0.00    +0.001 C 
BRANCH  26  27
ATOM     27  C   LIG    1        5.762   1.182   0.458  0.00  0.00    +0.000 C 
BRANCH  27  28
ATOM     28  C   LIG    1        5.613   0.963  -0.972  0.00  0.00    +0.000 C 
BRANCH  28  29
ATOM     29  C   LIG    1        6.422   0.095  -1.796  0.00  0.00    +0.000 C 
BRANCH  29  30
ATOM     30  C   LIG    1        7.828   0.475  -2.054  0.00  0.00    -0.000 C 
BRANCH  30  31
ATOM     31  C   LIG    1        8.806   0.604  -0.957  0.00  0.00    -0.000 C 
BRANCH  31  32
ATOM     32  C   LIG    1        9.070  -0.653  -0.171  0.00  0.00    -0.000 C 
BRANCH  32  33
ATOM     33  C   LIG    1       10.049  -0.290   0.919  0.00  0.00    -0.000 C 
BRANCH  33  34
ATOM     34  C   LIG    1       11.350   0.239   0.406  0.00  0.00    -0.000 C 
BRANCH  34  35
ATOM     35  C   LIG    1       12.028  -0.799  -0.458  0.00  0.00    -0.000 C 
BRANCH  35  36
ATOM     36  C   LIG    1       13.350  -0.264  -1.000  0.00  0.00    -0.000 C 
BRANCH  36  37
ATOM     37  C   LIG    1       14.268   0.104   0.126  0.00  0.00    -0.003 C 
ATOM     38  C   LIG    1       14.591  -1.077   1.006  0.00  0.00    +0.004 C 
ENDBRANCH  36  37
ENDBRANCH  35  36
ENDBRANCH  34  35
ENDBRANCH  33  34
ENDBRANCH  32  33
ENDBRANCH  31  32
ENDBRANCH  30  31
ENDBRANCH  29  30
ENDBRANCH  28  29
ENDBRANCH  27  28
ENDBRANCH  26  27
ENDBRANCH  25  26
ENDBRANCH  24  25
ENDBRANCH  22  24
ENDBRANCH  21  22
ENDBRANCH  20  21
ENDBRANCH   2  20
TORSDOF 21
