REMARK  Name = molecules/VYPSYNLAJGMNEJ-UHFFFAOYSA-N.pdb
REMARK                            x       y       z     vdW  Elec       q    Type
REMARK                         _______ _______ _______ _____ _____    ______ ____
ROOT
ATOM      1 SI   LIG    1       -0.002   0.133   0.000  0.00  0.00    +0.000 Si
ATOM      2  O   LIG    1        1.564  -0.066   0.000  0.00  0.00    +0.000 OA
ATOM      3  O   LIG    1       -1.562  -0.067   0.000  0.00  0.00    +0.000 OA
ENDROOT
TORSDOF 0
