REMARK  Name = molecules/VYVKHNNGDFVQGA-LJQANCHMSA-N.pdb
REMARK                            x       y       z     vdW  Elec       q    Type
REMARK                         _______ _______ _______ _____ _____    ______ ____
ROOT
ATOM      1  C   LIG    1       -0.014  -1.764   1.358  0.00  0.00    +0.019 C 
ENDROOT
BRANCH   1   2
ATOM      2  C   LIG    1       -1.434  -1.454   0.991  0.00  0.00    +0.042 C 
BRANCH   2   3
ATOM      3  C   LIG    1       -1.870  -0.104   1.494  0.00  0.00    +0.232 C 
BRANCH   3   4
ATOM      4  O   LIG    1       -3.194   0.155   1.154  0.00  0.00    -0.461 OA
BRANCH   4   5
ATOM      5  C   LIG    1       -3.628   0.215  -0.151  0.00  0.00    +0.339 C 
ATOM      6  O   LIG    1       -2.814   0.036  -1.102  0.00  0.00    -0.245 OA
BRANCH   5   7
ATOM      7  C   LIG    1       -5.045   0.489  -0.406  0.00  0.00    +0.063 A 
ATOM      8  C   LIG    1       -5.897   0.685   0.651  0.00  0.00    +0.064 A 
ATOM      9  C   LIG    1       -7.244   0.944   0.511  0.00  0.00    +0.162 A 
ATOM     10  C   LIG    1       -7.787   1.014  -0.768  0.00  0.00    +0.162 A 
ATOM     11  C   LIG    1       -6.936   0.819  -1.833  0.00  0.00    +0.050 A 
ATOM     12  C   LIG    1       -5.583   0.560  -1.670  0.00  0.00    +0.019 A 
BRANCH   9  13
ATOM     13  O   LIG    1       -8.039   1.130   1.622  0.00  0.00    -0.491 OA
ATOM     14  C   LIG    1       -7.490   1.060   2.906  0.00  0.00    +0.277 C 
ENDBRANCH   9  13
BRANCH  10  15
ATOM     15  O   LIG    1       -9.123   1.270  -0.930  0.00  0.00    -0.491 OA
ATOM     16  C   LIG    1       -9.663   1.340  -2.241  0.00  0.00    +0.277 C 
ENDBRANCH  10  15
ENDBRANCH   5   7
ENDBRANCH   4   5
ENDBRANCH   3   4
ENDBRANCH   2   3
ENDBRANCH   1   2
BRANCH   1  17
ATOM     17  C   LIG    1        0.994  -0.782   0.809  0.00  0.00    +0.085 C 
BRANCH  17  18
ATOM     18  N   LIG    1        2.281  -1.188   1.219  0.00  0.00    -0.300 NA
BRANCH  18  19
ATOM     19  C   LIG    1        2.498  -2.586   1.366  0.00  0.00    +0.081 C 
ATOM     20  C   LIG    1        2.473  -3.366   0.095  0.00  0.00    +0.020 C 
ENDBRANCH  18  19
BRANCH  18  21
ATOM     21  C   LIG    1        3.396  -0.420   0.836  0.00  0.00    +0.058 C 
ATOM     22  C   LIG    1        3.461   0.950   1.465  0.00  0.00    +0.024 C 
BRANCH  21  23
ATOM     23  C   LIG    1        3.638  -0.335  -0.662  0.00  0.00    +0.053 C 
BRANCH  23  24
ATOM     24  C   LIG    1        4.835   0.493  -0.958  0.00  0.00    -0.046 A 
ATOM     25  C   LIG    1        6.103  -0.043  -1.039  0.00  0.00    +0.007 A 
ATOM     26  C   LIG    1        7.212   0.759  -1.321  0.00  0.00    +0.046 A 
ATOM     27  C   LIG    1        7.048   2.105  -1.523  0.00  0.00    +0.120 A 
ATOM     28  C   LIG    1        5.801   2.650  -1.447  0.00  0.00    +0.046 A 
ATOM     29  C   LIG    1        4.700   1.849  -1.166  0.00  0.00    +0.007 A 
BRANCH  27  30
ATOM     30  O   LIG    1        8.168   2.899  -1.806  0.00  0.00    -0.495 OA
ATOM     31  C   LIG    1        9.468   2.317  -1.883  0.00  0.00    +0.277 C 
ENDBRANCH  27  30
ENDBRANCH  23  24
ENDBRANCH  21  23
ENDBRANCH  18  21
ENDBRANCH  17  18
ENDBRANCH   1  17
TORSDOF 14
