REMARK  Name = molecules/VZJFGSRCJCXDSG-UHFFFAOYSA-N.pdb
REMARK                            x       y       z     vdW  Elec       q    Type
REMARK                         _______ _______ _______ _____ _____    ______ ____
ROOT
ATOM      1  C   LIG    1        0.337  -0.453  -1.984  0.00  0.00    -0.002 C 
ENDROOT
BRANCH   1   2
ATOM      2  C   LIG    1        1.154   0.399  -1.046  0.00  0.00    -0.018 C 
BRANCH   2   3
ATOM      3  C   LIG    1        2.320  -0.355  -0.459  0.00  0.00    -0.076 C 
BRANCH   3   4
ATOM      4  N   LIG    1        3.103   0.469   0.440  0.00  0.00    +0.374 N 
ATOM      5  C   LIG    1        2.328   1.101   1.462  0.00  0.00    -0.093 C 
ATOM      6  C   LIG    1        4.059  -0.430   1.106  0.00  0.00    -0.093 C 
ATOM      7  C   LIG    1        3.893   1.389  -0.348  0.00  0.00    -0.093 C 
ENDBRANCH   3   4
ENDBRANCH   2   3
ENDBRANCH   1   2
BRANCH   1   8
ATOM      8  C   LIG    1       -0.243  -1.674  -1.316  0.00  0.00    -0.002 C 
BRANCH   8   9
ATOM      9  C   LIG    1       -1.132  -1.257  -0.187  0.00  0.00    -0.018 C 
BRANCH   9  10
ATOM     10  C   LIG    1       -2.252  -0.398  -0.694  0.00  0.00    -0.076 C 
BRANCH  10  11
ATOM     11  N   LIG    1       -3.145   0.025   0.371  0.00  0.00    +0.374 N 
ATOM     12  C   LIG    1       -3.379  -0.998   1.346  0.00  0.00    -0.093 C 
ATOM     13  C   LIG    1       -2.656   1.233   1.019  0.00  0.00    -0.093 C 
ATOM     14  C   LIG    1       -4.428   0.343  -0.261  0.00  0.00    -0.093 C 
ENDBRANCH  10  11
ENDBRANCH   9  10
ENDBRANCH   8   9
ENDBRANCH   1   8
TORSDOF 7
