REMARK  Name = molecules/VZPPEUOYDWPUKO-NHAYFPRASA-N.pdb
REMARK                            x       y       z     vdW  Elec       q    Type
REMARK                         _______ _______ _______ _____ _____    ______ ____
ROOT
ATOM      1  N   LIG    1        0.342   0.492   0.541  0.00  0.00    -0.298 N 
ATOM      2  C   LIG    1       -0.973   0.335   1.058  0.00  0.00    +0.259 C 
ATOM      3  O   LIG    1       -1.261   0.515   2.265  0.00  0.00    -0.271 OA
ATOM      4  H   LIG    1        0.540   0.335  -0.459  0.00  0.00    +0.150 HD
ENDROOT
BRANCH   1   5
ATOM      5  CA  LIG    1        1.403   0.873   1.412  0.00  0.00    +0.190 C 
ATOM      6  C   LIG    1        2.681   0.102   1.312  0.00  0.00    +0.165 C 
ATOM      7  N   LIG    1        3.327   1.175   0.551  0.00  0.00    -0.271 N 
ATOM      8  CA  LIG    1        4.527   0.683  -0.043  0.00  0.00    +0.201 C 
ATOM      9  C   LIG    1        4.184  -0.534  -0.870  0.00  0.00    +0.042 C 
ATOM     10  C   LIG    1        5.233  -1.608  -0.781  0.00  0.00    +0.025 C 
ATOM     11  C   LIG    1        3.890  -0.222  -2.299  0.00  0.00    +0.025 C 
ATOM     12  S   LIG    1        2.704  -1.178   0.006  0.00  0.00    -0.127 S 
ATOM     13  C   LIG    1        2.243   2.008   0.961  0.00  0.00    +0.240 C 
ATOM     14  O   LIG    1        2.023   3.248   0.964  0.00  0.00    -0.273 OA
BRANCH   8  15
ATOM     15  C   LIG    1        5.573   0.424   0.962  0.00  0.00    +0.327 C 
ATOM     16  O   LIG    1        6.698  -0.018   0.585  0.00  0.00    -0.249 OA
BRANCH  15  17
ATOM     17  OXT LIG    1        5.413   0.632   2.320  0.00  0.00    -0.479 OA
ATOM     18  HXT LIG    1        5.454  -0.166   2.956  0.00  0.00    +0.295 HD
ENDBRANCH  15  17
ENDBRANCH   8  15
ENDBRANCH   1   5
BRANCH   2  19
ATOM     19  C   LIG    1       -2.111  -0.067   0.154  0.00  0.00    +0.289 C 
BRANCH  19  20
ATOM     20  C   LIG    1       -2.260   1.075  -0.816  0.00  0.00    +0.002 A 
ATOM     21  C   LIG    1       -2.822   2.229  -0.368  0.00  0.00    +0.008 A 
ATOM     22  C   LIG    1       -2.987   3.314  -1.208  0.00  0.00    +0.000 A 
ATOM     23  C   LIG    1       -2.582   3.249  -2.525  0.00  0.00    +0.000 A 
ATOM     24  C   LIG    1       -2.015   2.064  -2.949  0.00  0.00    +0.000 A 
ATOM     25  C   LIG    1       -1.846   0.982  -2.127  0.00  0.00    +0.008 A 
ENDBRANCH  19  20
BRANCH  19  26
ATOM     26  O   LIG    1       -3.308  -0.168   0.841  0.00  0.00    -0.475 OA
BRANCH  26  27
ATOM     27  C   LIG    1       -4.161  -1.240   0.915  0.00  0.00    +0.122 A 
ATOM     28  C   LIG    1       -5.344  -1.166   1.666  0.00  0.00    +0.046 A 
ATOM     29  C   LIG    1       -6.178  -2.255   1.722  0.00  0.00    +0.004 A 
ATOM     30  C   LIG    1       -5.904  -3.426   1.069  0.00  0.00    +0.000 A 
ATOM     31  C   LIG    1       -4.746  -3.490   0.338  0.00  0.00    +0.004 A 
ATOM     32  C   LIG    1       -3.886  -2.405   0.265  0.00  0.00    +0.046 A 
ENDBRANCH  26  27
ENDBRANCH  19  26
ENDBRANCH   2  19
TORSDOF 7
