REMARK  Name = molecules/VZUGVMQFWFVFBX-ZDUSSCGKSA-N.pdb
REMARK                            x       y       z     vdW  Elec       q    Type
REMARK                         _______ _______ _______ _____ _____    ______ ____
ROOT
ATOM      1  C   LIG    1        1.636  -0.889  -0.463  0.00  0.00    -0.014 A 
ATOM      2  C   LIG    1        2.290   0.067   0.272  0.00  0.00    -0.026 A 
ATOM      3  C   LIG    1        1.492   1.077   0.756  0.00  0.00    +0.005 A 
ATOM      4  C   LIG    1        0.096   1.145   0.527  0.00  0.00    +0.005 A 
ATOM      5  C   LIG    1       -0.496   0.166  -0.215  0.00  0.00    -0.037 A 
ATOM      6  C   LIG    1        0.308  -0.891  -0.733  0.00  0.00    -0.014 A 
ATOM      7  C   LIG    1       -0.314  -1.961  -1.379  0.00  0.00    +0.009 A 
ATOM      8  C   LIG    1        0.459  -3.045  -1.731  0.00  0.00    +0.001 A 
ATOM      9  C   LIG    1        1.811  -3.092  -1.472  0.00  0.00    +0.001 A 
ATOM     10  C   LIG    1        2.396  -2.022  -0.847  0.00  0.00    +0.009 A 
ENDROOT
BRANCH   5  11
ATOM     11  C   LIG    1       -1.918   0.141  -0.572  0.00  0.00    +0.020 C 
ATOM     12  C   LIG    1       -2.631  -0.809   0.391  0.00  0.00    +0.008 C 
ATOM     13  C   LIG    1       -3.568  -0.200   1.367  0.00  0.00    +0.001 C 
ATOM     14  C   LIG    1       -4.686   0.435   0.515  0.00  0.00    +0.000 C 
ATOM     15  C   LIG    1       -4.022   1.548  -0.274  0.00  0.00    +0.001 C 
ATOM     16  C   LIG    1       -2.510   1.518  -0.193  0.00  0.00    +0.008 C 
ENDBRANCH   5  11
BRANCH   2  17
ATOM     17  C   LIG    1        3.766   0.156   0.373  0.00  0.00    +0.125 C 
ATOM     18  C   LIG    1        4.243   0.494   1.789  0.00  0.00    +0.024 C 
BRANCH  17  19
ATOM     19  C   LIG    1        4.117   1.473  -0.373  0.00  0.00    +0.312 C 
ATOM     20  O   LIG    1        4.852   2.321   0.196  0.00  0.00    -0.250 OA
BRANCH  19  21
ATOM     21  O   LIG    1        3.625   1.676  -1.631  0.00  0.00    -0.480 OA
ATOM     22  H   LIG    1        3.376   2.633  -1.960  0.00  0.00    +0.295 HD
ENDBRANCH  19  21
ENDBRANCH  17  19
ENDBRANCH   2  17
TORSDOF 4
