REMARK  Name = molecules/VZVGEDRCVUKSEL-UHFFFAOYSA-N.pdb
REMARK                            x       y       z     vdW  Elec       q    Type
REMARK                         _______ _______ _______ _____ _____    ______ ____
ROOT
ATOM      1  N   LIG    1       -0.926  -0.413   0.709  0.00  0.00    -0.270 N 
ATOM      2  H   LIG    1       -1.259  -0.479   1.708  0.00  0.00    +0.258 HD
ENDROOT
BRANCH   1   3
ATOM      3  C   LIG    1        0.481  -0.400   0.363  0.00  0.00    +0.081 C 
ATOM      4  C   LIG    1        1.248  -0.545   1.640  0.00  0.00    +0.051 C 
ATOM      5  C   LIG    1        0.791  -1.599  -0.503  0.00  0.00    +0.051 C 
BRANCH   3   7
ATOM      6  C   LIG    1        2.207   1.012  -0.769  0.00  0.00    +0.007 C 
ATOM      7  C   LIG    1        0.759   0.894  -0.355  0.00  0.00    +0.040 C 
ENDBRANCH   3   7
ENDBRANCH   1   3
BRANCH   1   8
ATOM      8  C   LIG    1       -1.936  -0.337  -0.277  0.00  0.00    +0.393 C 
ATOM      9  N   LIG    1       -2.165  -1.385  -0.974  0.00  0.00    -0.129 NA
ATOM     10  H   LIG    1       -2.878  -1.457  -1.727  0.00  0.00    +0.306 HD
BRANCH   8  11
ATOM     11  N   LIG    1       -2.643   0.866  -0.457  0.00  0.00    -0.178 N 
ATOM     12  H   LIG    1       -3.150   1.052  -1.372  0.00  0.00    +0.278 HD
BRANCH  11  13
ATOM     13  C   LIG    1       -2.734   1.868   0.504  0.00  0.00    +0.255 C 
ATOM     14  N   LIG    1       -2.791   2.703   1.307  0.00  0.00    -0.154 NA
ENDBRANCH  11  13
ENDBRANCH   8  11
ENDBRANCH   1   8
TORSDOF 5
