REMARK  Name = molecules/VZVRZTZPHOHSCK-UHFFFAOYSA-N.pdb
REMARK                            x       y       z     vdW  Elec       q    Type
REMARK                         _______ _______ _______ _____ _____    ______ ____
ROOT
ATOM      1  C   LIG    1        0.980   1.227  -0.851  0.00  0.00    -0.013 C 
ATOM      2  C   LIG    1       -0.270   1.120  -0.556  0.00  0.00    +0.024 C 
ATOM      3  C   LIG    1       -0.903  -0.172  -0.309  0.00  0.00    +0.143 A 
ATOM      4  C   LIG    1       -1.944  -0.419   0.599  0.00  0.00    +0.043 A 
ATOM      5  C   LIG    1       -2.670   0.445   1.501  0.00  0.00    +0.269 C 
ATOM      6  O   LIG    1       -2.641   1.816   1.296  0.00  0.00    -0.487 OA
ATOM      7  C   LIG    1       -2.089   2.670   0.362  0.00  0.00    +0.129 A 
ATOM      8  C   LIG    1       -2.683   3.910   0.307  0.00  0.00    +0.046 A 
ATOM      9  C   LIG    1       -2.233   4.882  -0.592  0.00  0.00    +0.004 A 
ATOM     10  C   LIG    1       -1.181   4.584  -1.431  0.00  0.00    +0.001 A 
ATOM     11  C   LIG    1       -0.589   3.340  -1.373  0.00  0.00    +0.012 A 
ATOM     12  C   LIG    1       -2.196  -1.767   0.477  0.00  0.00    +0.027 A 
ATOM     13  C   LIG    1       -3.059  -2.670   1.046  0.00  0.00    +0.012 A 
ATOM     14  C   LIG    1       -3.106  -4.012   0.734  0.00  0.00    +0.001 A 
ATOM     15  C   LIG    1       -2.212  -4.463  -0.223  0.00  0.00    +0.004 A 
ATOM     16  C   LIG    1       -1.320  -3.588  -0.825  0.00  0.00    +0.047 A 
ATOM     17  C   LIG    1       -1.308  -2.258  -0.483  0.00  0.00    +0.136 A 
ATOM     18  O   LIG    1       -0.571  -1.266  -0.910  0.00  0.00    -0.454 OA
ATOM     19  C   LIG    1       -1.046   2.387  -0.474  0.00  0.00    +0.027 A 
ENDROOT
BRANCH   1  20
ATOM     20  C   LIG    1        1.920   0.103  -0.979  0.00  0.00    +0.043 C 
BRANCH  20  21
ATOM     21  C   LIG    1        3.044   0.382   0.050  0.00  0.00    +0.088 C 
BRANCH  21  22
ATOM     22  N   LIG    1        3.983  -0.718  -0.061  0.00  0.00    -0.308 NA
ATOM     23  C   LIG    1        5.088  -0.599   0.837  0.00  0.00    +0.104 C 
ATOM     24  C   LIG    1        3.266  -1.969   0.114  0.00  0.00    +0.104 C 
ENDBRANCH  21  22
ENDBRANCH  20  21
ENDBRANCH   1  20
TORSDOF 3
