REMARK  Name = molecules/VZYCZNZBPPHOFY-UHFFFAOYSA-N.pdb
REMARK                            x       y       z     vdW  Elec       q    Type
REMARK                         _______ _______ _______ _____ _____    ______ ____
ROOT
ATOM      1  C   LIG    1        3.481  -0.806  -1.254  0.00  0.00    +0.176 C 
ATOM      2  C   LIG    1        4.729  -0.286  -0.987  0.00  0.00    +0.012 C 
ATOM      3  C   LIG    1        4.778   1.038  -0.637  0.00  0.00    +0.015 C 
ATOM      4  C   LIG    1        3.656   1.827  -0.550  0.00  0.00    +0.034 C 
ATOM      5  S   LIG    1        3.832   3.540  -0.076  0.00  0.00    -0.086 S 
ATOM      6  C   LIG    1        2.204   4.212   0.000  0.00  0.00    +0.034 A 
ATOM      7  C   LIG    1        2.088   5.510   0.380  0.00  0.00    +0.017 A 
ATOM      8  C   LIG    1        0.873   6.119   0.453  0.00  0.00    +0.001 A 
ATOM      9  C   LIG    1       -0.244   5.405   0.138  0.00  0.00    +0.002 A 
ATOM     10  C   LIG    1       -0.141   4.098  -0.244  0.00  0.00    +0.024 A 
ATOM     11  C   LIG    1        1.111   3.455  -0.324  0.00  0.00    +0.048 A 
ATOM     12  N   LIG    1        1.188   2.089  -0.712  0.00  0.00    -0.298 N 
ATOM     13  C   LIG    1        2.397   1.338  -0.810  0.00  0.00    +0.046 C 
ATOM     14  C   LIG    1        2.357  -0.016  -1.167  0.00  0.00    +0.035 C 
ENDROOT
BRANCH   1  15
ATOM     15  S   LIG    1        3.327  -2.496  -1.692  0.00  0.00    +0.047 S 
ATOM     16  O   LIG    1        2.015  -2.659  -2.448  0.00  0.00    -0.157 OA
ATOM     17  O   LIG    1        4.402  -2.935  -2.644  0.00  0.00    -0.157 OA
BRANCH  15  19
ATOM     18  C   LIG    1        2.085  -3.218   0.468  0.00  0.00    +0.131 C 
ATOM     19  N   LIG    1        3.233  -3.521  -0.325  0.00  0.00    -0.186 NA
ATOM     20  C   LIG    1        4.443  -3.488   0.473  0.00  0.00    +0.131 C 
ENDBRANCH  15  19
ENDBRANCH   1  15
BRANCH  12  21
ATOM     21  C   LIG    1       -0.100   1.467  -1.013  0.00  0.00    +0.112 C 
BRANCH  21  22
ATOM     22  C   LIG    1       -0.883   1.074   0.206  0.00  0.00    +0.035 C 
BRANCH  22  23
ATOM     23  C   LIG    1       -2.186   0.472  -0.321  0.00  0.00    +0.086 C 
BRANCH  23  24
ATOM     24  N   LIG    1       -3.071   0.025   0.702  0.00  0.00    -0.300 NA
ATOM     25  C   LIG    1       -2.622  -1.115   1.433  0.00  0.00    +0.100 C 
ATOM     26  C   LIG    1       -3.780  -2.033   1.831  0.00  0.00    +0.099 C 
ATOM     27  N   LIG    1       -4.318  -2.654   0.641  0.00  0.00    -0.303 NA
ATOM     28  C   LIG    1       -5.712  -3.009   0.856  0.00  0.00    +0.105 C 
ATOM     29  C   LIG    1       -4.209  -1.716  -0.466  0.00  0.00    +0.099 C 
ATOM     30  C   LIG    1       -4.336  -0.316   0.047  0.00  0.00    +0.100 C 
ENDBRANCH  23  24
ENDBRANCH  22  23
ENDBRANCH  21  22
ENDBRANCH  12  21
TORSDOF 6
