REMARK  Name = molecules/VZZJRYRQSPEMTK-CALCHBBNSA-N.pdb
REMARK                            x       y       z     vdW  Elec       q    Type
REMARK                         _______ _______ _______ _____ _____    ______ ____
ROOT
ATOM      1  C   LIG    1        3.292  -0.873  -0.682  0.00  0.00    -0.031 A 
ATOM      2  C   LIG    1        2.907   0.481  -0.171  0.00  0.00    +0.045 C 
ATOM      3  C   LIG    1        4.650  -1.227  -0.612  0.00  0.00    -0.014 A 
ATOM      4  C   LIG    1        5.018  -2.435  -1.160  0.00  0.00    +0.009 A 
ATOM      5  C   LIG    1        4.139  -3.303  -1.765  0.00  0.00    +0.001 A 
ATOM      6  C   LIG    1        2.824  -2.902  -1.802  0.00  0.00    +0.013 A 
ATOM      7  C   LIG    1        2.380  -1.691  -1.265  0.00  0.00    +0.041 A 
ENDROOT
BRANCH   3   8
ATOM      8  C   LIG    1        5.607  -0.356   0.013  0.00  0.00    -0.017 A 
ATOM      9  C   LIG    1        5.504   0.134   1.288  0.00  0.00    +0.012 A 
ATOM     10  C   LIG    1        6.461   0.992   1.823  0.00  0.00    +0.046 A 
ATOM     11  C   LIG    1        7.539   1.360   1.058  0.00  0.00    +0.130 A 
ATOM     12  C   LIG    1        7.689   0.893  -0.232  0.00  0.00    +0.046 A 
ATOM     13  C   LIG    1        6.712   0.041  -0.723  0.00  0.00    +0.012 A 
BRANCH  11  14
ATOM     14  O   LIG    1        8.509   2.209   1.553  0.00  0.00    -0.406 OA
BRANCH  14  15
ATOM     15  C   LIG    1        9.631   1.655   2.231  0.00  0.00    +0.575 C 
ATOM     16  F   LIG    1        9.210   0.963   3.370  0.00  0.00    -0.133 F 
ATOM     17  F   LIG    1       10.432   2.721   2.609  0.00  0.00    -0.133 F 
ATOM     18  F   LIG    1       10.288   0.749   1.445  0.00  0.00    -0.133 F 
ENDBRANCH  14  15
ENDBRANCH  11  14
ENDBRANCH   3   8
BRANCH   7  19
ATOM     19  C   LIG    1        0.964  -1.438  -1.323  0.00  0.00    +0.249 C 
ATOM     20  N   LIG    1        0.282  -0.826  -0.271  0.00  0.00    -0.280 N 
ATOM     21  H   LIG    1        0.821  -0.595   0.601  0.00  0.00    +0.155 HD
ATOM     22  O   LIG    1        0.382  -1.816  -2.399  0.00  0.00    -0.270 OA
BRANCH  20  23
ATOM     23  C   LIG    1       -1.124  -0.541  -0.315  0.00  0.00    +0.052 A 
ATOM     24  C   LIG    1       -1.796  -0.293   0.896  0.00  0.00    +0.136 A 
ATOM     25  N   LIG    1       -3.101   0.002   0.941  0.00  0.00    -0.238 NA
ATOM     26  C   LIG    1       -3.884   0.091  -0.150  0.00  0.00    +0.121 A 
ATOM     27  C   LIG    1       -3.250  -0.146  -1.347  0.00  0.00    +0.045 A 
ATOM     28  C   LIG    1       -1.886  -0.460  -1.443  0.00  0.00    +0.028 A 
BRANCH  26  29
ATOM     29  N   LIG    1       -5.267   0.402  -0.071  0.00  0.00    -0.310 N 
ATOM     30  C   LIG    1       -6.019   0.518   1.157  0.00  0.00    +0.137 C 
ATOM     31  C   LIG    1       -7.287  -0.295   0.935  0.00  0.00    +0.133 C 
ATOM     32  C   LIG    1       -8.036  -0.434   2.233  0.00  0.00    +0.039 C 
ATOM     33  O   LIG    1       -8.047   0.134  -0.119  0.00  0.00    -0.371 OA
ATOM     34  C   LIG    1       -7.454   0.992  -1.001  0.00  0.00    +0.133 C 
ATOM     35  C   LIG    1       -7.539   2.444  -0.591  0.00  0.00    +0.039 C 
ATOM     36  C   LIG    1       -5.996   0.629  -1.300  0.00  0.00    +0.137 C 
ENDBRANCH  26  29
ENDBRANCH  20  23
ENDBRANCH   7  19
TORSDOF 6
