REMARK  Name = molecules/WABYCCJHARSRBH-CYBMUJFWSA-N.pdb
REMARK                            x       y       z     vdW  Elec       q    Type
REMARK                         _______ _______ _______ _____ _____    ______ ____
ROOT
ATOM      1  C   LIG    1       -3.118   1.331  -0.321  0.00  0.00    +0.129 C 
ATOM      2  N   LIG    1       -1.862   1.124   0.327  0.00  0.00    -0.325 N 
ATOM      3  C   LIG    1       -1.869   0.501   1.610  0.00  0.00    +0.120 C 
ATOM      4  C   LIG    1       -0.637   0.084   2.265  0.00  0.00    +0.166 C 
ATOM      5  N   LIG    1        0.445  -0.457   1.482  0.00  0.00    -0.281 NA
ATOM      6  C   LIG    1        0.996  -0.056   0.357  0.00  0.00    +0.076 C 
ATOM      7  C   LIG    1        0.543   1.127  -0.315  0.00  0.00    +0.023 A 
ATOM      8  C   LIG    1        1.581   1.785  -0.953  0.00  0.00    +0.027 A 
ATOM      9  C   LIG    1        1.317   2.928  -1.698  0.00  0.00    +0.019 A 
ATOM     10  C   LIG    1        0.009   3.406  -1.795  0.00  0.00    +0.017 A 
ATOM     11  C   LIG    1       -1.021   2.750  -1.151  0.00  0.00    +0.025 A 
ATOM     12 BR   LIG    1        2.760   3.791  -2.562  0.00  0.00    -0.050 Br
ATOM     13  C   LIG    1       -0.737   1.625  -0.421  0.00  0.00    +0.039 A 
ENDROOT
BRANCH   6  14
ATOM     14  C   LIG    1        2.085  -0.829  -0.173  0.00  0.00    +0.019 A 
ATOM     15  C   LIG    1        2.650  -1.850   0.601  0.00  0.00    +0.050 A 
ATOM     16 CL   LIG    1        2.112  -1.981   2.260  0.00  0.00    -0.083 Cl
ATOM     17  C   LIG    1        3.579  -2.703   0.077  0.00  0.00    +0.020 A 
ATOM     18  C   LIG    1        4.020  -2.623  -1.221  0.00  0.00    +0.001 A 
ATOM     19  C   LIG    1        3.484  -1.634  -2.004  0.00  0.00    +0.001 A 
ATOM     20  C   LIG    1        2.523  -0.756  -1.461  0.00  0.00    +0.011 A 
ENDBRANCH   6  14
BRANCH   3  21
ATOM     21  C   LIG    1       -2.950  -0.520   1.685  0.00  0.00    +0.183 C 
BRANCH  21  22
ATOM     22  O   LIG    1       -2.988  -1.519   0.775  0.00  0.00    -0.381 OA
ATOM     23  C   LIG    1       -1.966  -2.385   0.627  0.00  0.00    +0.194 C 
ENDBRANCH  21  22
ENDBRANCH   3  21
TORSDOF 3
