REMARK  Name = molecules/WAWDOEHEAULMGC-VXPUYCOJSA-N.pdb
REMARK                            x       y       z     vdW  Elec       q    Type
REMARK                         _______ _______ _______ _____ _____    ______ ____
ROOT
ATOM      1  N   LIG    1        3.331  -1.871   0.567  0.00  0.00    -0.146 NA
ATOM      2  N   LIG    1        2.185  -2.098   0.667  0.00  0.00    -0.148 NA
ENDROOT
BRANCH   2   3
ATOM      3  C   LIG    1        0.920  -1.545   0.711  0.00  0.00    +0.104 A 
ATOM      4  C   LIG    1        0.300  -1.075   1.859  0.00  0.00    +0.036 A 
ATOM      5  C   LIG    1       -0.965  -0.538   1.812  0.00  0.00    +0.069 A 
ATOM      6  C   LIG    1       -1.655  -0.451   0.622  0.00  0.00    +0.215 A 
ATOM      7  N   LIG    1       -1.026  -0.915  -0.466  0.00  0.00    -0.219 NA
ATOM      8  C   LIG    1        0.206  -1.446  -0.466  0.00  0.00    +0.144 A 
BRANCH   6   9
ATOM      9  O   LIG    1       -2.948   0.096   0.565  0.00  0.00    -0.476 OA
BRANCH   9  10
ATOM     10  C   LIG    1       -3.572   0.139  -0.711  0.00  0.00    +0.231 C 
BRANCH  10  11
ATOM     11  C   LIG    1       -4.951   0.754  -0.597  0.00  0.00    +0.041 C 
BRANCH  11  12
ATOM     12  C   LIG    1       -5.744  -0.123   0.352  0.00  0.00    -0.000 C 
ATOM     13  C   LIG    1       -7.150   0.377   0.560  0.00  0.00    +0.004 C 
ENDBRANCH  11  12
ENDBRANCH  10  11
ENDBRANCH   9  10
ENDBRANCH   6   9
ENDBRANCH   2   3
BRANCH   1  14
ATOM     14  C   LIG    1        4.133  -0.721   0.415  0.00  0.00    +0.126 A 
ATOM     15  C   LIG    1        4.630  -0.014   1.492  0.00  0.00    +0.036 A 
ATOM     16  C   LIG    1        5.400   1.090   1.277  0.00  0.00    +0.045 A 
ATOM     17  C   LIG    1        5.726   1.563   0.024  0.00  0.00    +0.118 A 
ATOM     18  N   LIG    1        5.222   0.846  -1.009  0.00  0.00    -0.216 NA
ATOM     19  C   LIG    1        4.465  -0.240  -0.855  0.00  0.00    +0.146 A 
BRANCH  17  20
ATOM     20  N   LIG    1        6.531   2.717  -0.172  0.00  0.00    -0.343 N 
ATOM     21  H   LIG    1        6.263   3.640   0.229  0.00  0.00    +0.144 HD
ATOM     22  H   LIG    1        7.395   2.650  -0.719  0.00  0.00    +0.144 HD
ENDBRANCH  17  20
BRANCH  19  23
ATOM     23  N   LIG    1        3.940  -0.986  -1.955  0.00  0.00    -0.341 N 
ATOM     24  H   LIG    1        4.249  -1.972  -2.088  0.00  0.00    +0.144 HD
ATOM     25  H   LIG    1        3.264  -0.556  -2.614  0.00  0.00    +0.144 HD
ENDBRANCH  19  23
ENDBRANCH   1  14
TORSDOF 8
