REMARK  Name = molecules/WBLPIVIXQOFTPQ-HTRCEHHLSA-N.pdb
REMARK                            x       y       z     vdW  Elec       q    Type
REMARK                         _______ _______ _______ _____ _____    ______ ____
ROOT
ATOM      1  C   LIG    1        0.447  -0.337   0.202  0.00  0.00    +0.161 C 
ATOM      2  O   LIG    1       -0.540  -0.124   1.258  0.00  0.00    -0.355 OA
ATOM      3  C   LIG    1       -0.864  -0.117  -0.246  0.00  0.00    +0.171 C 
ENDROOT
BRANCH   3   4
ATOM      4  C   LIG    1       -1.303   1.262  -0.555  0.00  0.00    +0.245 C 
ATOM      5  N   LIG    1       -2.356   1.982   0.013  0.00  0.00    -0.327 N 
ATOM      6  H   LIG    1       -2.920   1.536   0.777  0.00  0.00    +0.145 HD
ATOM      7  H   LIG    1       -2.617   2.964  -0.283  0.00  0.00    +0.145 HD
ATOM      8  O   LIG    1       -0.555   1.827  -1.457  0.00  0.00    -0.273 OA
ENDBRANCH   3   4
BRANCH   3   9
ATOM      9  C   LIG    1       -1.982  -1.144  -0.283  0.00  0.00    +0.044 C 
ATOM     10  C   LIG    1       -2.371  -1.770   1.014  0.00  0.00    +0.007 C 
ENDBRANCH   3   9
BRANCH   1  11
ATOM     11  C   LIG    1        1.419   0.847   0.267  0.00  0.00    +0.035 C 
BRANCH  11  13
ATOM     12  C   LIG    1        3.420  -0.489  -0.397  0.00  0.00    +0.004 C 
ATOM     13  C   LIG    1        2.549   0.728  -0.743  0.00  0.00    -0.001 C 
ENDBRANCH  11  13
ENDBRANCH   1  11
TORSDOF 4
