REMARK  Name = molecules/WDDPHFBMKLOVOX-AYQXTPAHSA-N.pdb
REMARK                            x       y       z     vdW  Elec       q    Type
REMARK                         _______ _______ _______ _____ _____    ______ ____
ROOT
ATOM      1  C   LIG    1        4.128   0.246   0.104  0.00  0.00    +0.149 A 
ATOM      2  N   LIG    1        3.962   0.350   1.434  0.00  0.00    -0.201 NA
ATOM      3  C   LIG    1        2.768   0.302   2.050  0.00  0.00    +0.226 A 
ATOM      4 CL   LIG    1        2.644   0.448   3.811  0.00  0.00    -0.041 Cl
ATOM      5  N   LIG    1        1.678   0.142   1.289  0.00  0.00    -0.198 NA
ATOM      6  C   LIG    1        1.731   0.029  -0.032  0.00  0.00    +0.169 A 
ATOM      7  N   LIG    1        0.754  -0.136  -0.954  0.00  0.00    -0.285 N 
ATOM      8  C   LIG    1        1.400  -0.185  -2.133  0.00  0.00    +0.203 A 
ATOM      9  N   LIG    1        2.717  -0.057  -1.954  0.00  0.00    -0.231 NA
ATOM     10  C   LIG    1        2.969   0.081  -0.640  0.00  0.00    +0.147 A 
ENDROOT
BRANCH   7  11
ATOM     11  C   LIG    1       -0.654  -0.238  -0.744  0.00  0.00    +0.259 C 
ATOM     12  C   LIG    1       -1.076  -1.365   0.137  0.00  0.00    +0.246 C 
ATOM     13  F   LIG    1       -0.436  -1.433   1.332  0.00  0.00    -0.238 F 
ATOM     14  C   LIG    1       -2.524  -0.966   0.444  0.00  0.00    +0.184 C 
ATOM     15  C   LIG    1       -2.552   0.474  -0.017  0.00  0.00    +0.178 C 
ATOM     16  O   LIG    1       -1.205   0.868  -0.104  0.00  0.00    -0.345 OA
BRANCH  14  17
ATOM     17  O   LIG    1       -3.387  -1.690  -0.357  0.00  0.00    -0.386 OA
ATOM     18  H   LIG    1       -3.901  -1.106  -0.966  0.00  0.00    +0.210 HD
ENDBRANCH  14  17
BRANCH  15  19
ATOM     19  C   LIG    1       -3.322   1.366   0.928  0.00  0.00    +0.190 C 
BRANCH  19  20
ATOM     20  O   LIG    1       -4.636   0.900   0.948  0.00  0.00    -0.392 OA
ATOM     21  H   LIG    1       -4.918   0.846  -0.007  0.00  0.00    +0.210 HD
ENDBRANCH  19  20
ENDBRANCH  15  19
ENDBRANCH   7  11
BRANCH   1  22
ATOM     22  N   LIG    1        5.399   0.299  -0.532  0.00  0.00    -0.341 N 
ATOM     23  H   LIG    1        6.073  -0.473  -0.367  0.00  0.00    +0.144 HD
ATOM     24  H   LIG    1        5.699   1.076  -1.162  0.00  0.00    +0.144 HD
ENDBRANCH   1  22
TORSDOF 5
