REMARK  Name = molecules/WDEFBBTXULIOBB-NVXWUHKLSA-N.pdb
REMARK                            x       y       z     vdW  Elec       q    Type
REMARK                         _______ _______ _______ _____ _____    ______ ____
ROOT
ATOM      1  C   LIG    1       -1.325   1.988   0.610  0.00  0.00    -0.011 C 
ATOM      2  C   LIG    1       -1.155   1.937   1.910  0.00  0.00    -0.029 C 
ATOM      3  C   LIG    1       -0.301   0.909   2.526  0.00  0.00    +0.028 C 
ATOM      4  C   LIG    1        0.590   0.230   1.551  0.00  0.00    +0.029 C 
ATOM      5  C   LIG    1       -0.092  -0.162   0.251  0.00  0.00    +0.112 C 
ATOM      6  C   LIG    1       -0.710   1.063  -0.355  0.00  0.00    +0.100 C 
ENDROOT
BRANCH   5   7
ATOM      7  C   LIG    1       -1.108  -1.229   0.518  0.00  0.00    -0.029 A 
ATOM      8  C   LIG    1       -0.700  -2.513   0.790  0.00  0.00    +0.005 A 
ATOM      9  C   LIG    1       -1.594  -3.539   1.049  0.00  0.00    +0.000 A 
ATOM     10  C   LIG    1       -2.947  -3.317   1.045  0.00  0.00    +0.000 A 
ATOM     11  C   LIG    1       -3.378  -2.038   0.775  0.00  0.00    +0.000 A 
ATOM     12  C   LIG    1       -2.468  -1.003   0.514  0.00  0.00    +0.005 A 
ENDBRANCH   5   7
BRANCH   6  13
ATOM     13  N   LIG    1        0.160   1.799  -1.262  0.00  0.00    -0.301 NA
ATOM     14  C   LIG    1        1.178   2.569  -0.574  0.00  0.00    +0.105 C 
ATOM     15  C   LIG    1       -0.627   2.728  -2.067  0.00  0.00    +0.105 C 
ENDBRANCH   6  13
BRANCH   5  16
ATOM     16  C   LIG    1        0.969  -0.644  -0.670  0.00  0.00    +0.320 C 
ATOM     17  O   LIG    1        1.061  -0.108  -1.831  0.00  0.00    -0.250 OA
BRANCH  16  18
ATOM     18  O   LIG    1        1.882  -1.624  -0.402  0.00  0.00    -0.464 OA
BRANCH  18  19
ATOM     19  C   LIG    1        2.832  -1.968  -1.387  0.00  0.00    +0.229 C 
ATOM     20  C   LIG    1        3.645  -0.750  -1.696  0.00  0.00    +0.048 C 
ENDBRANCH  18  19
ENDBRANCH  16  18
ENDBRANCH   5  16
TORSDOF 5
