REMARK  Name = molecules/WDFKMLRRRCGAKS-UHFFFAOYSA-N.pdb
REMARK                            x       y       z     vdW  Elec       q    Type
REMARK                         _______ _______ _______ _____ _____    ______ ____
ROOT
ATOM      1  C   LIG    1       -1.447   0.756   0.004  0.00  0.00    +0.161 A 
ATOM      2  C   LIG    1       -2.228  -0.318   0.380  0.00  0.00    +0.086 A 
ATOM      3  C   LIG    1       -1.622  -1.525   0.602  0.00  0.00    +0.044 A 
ATOM      4  C   LIG    1       -0.262  -1.674   0.456  0.00  0.00    +0.052 A 
ATOM      5 CL   LIG    1        0.575  -3.179   0.722  0.00  0.00    -0.083 Cl
ATOM      6  C   LIG    1        0.495  -0.574   0.078  0.00  0.00    +0.022 A 
ATOM      7  C   LIG    1        1.873  -0.676  -0.082  0.00  0.00    +0.013 A 
ATOM      8  C   LIG    1        2.623   0.434  -0.462  0.00  0.00    +0.020 A 
ATOM      9  C   LIG    1        1.984   1.636  -0.678  0.00  0.00    +0.111 A 
ATOM     10  N   LIG    1        0.649   1.743  -0.526  0.00  0.00    -0.251 NA
ATOM     11 CL   LIG    1       -3.971  -0.154   0.573  0.00  0.00    -0.080 Cl
ATOM     12  C   LIG    1       -0.071   0.662  -0.157  0.00  0.00    +0.115 A 
ENDROOT
BRANCH   1  13
ATOM     13  O   LIG    1       -2.032   1.980  -0.225  0.00  0.00    -0.503 OA
ATOM     14  H   LIG    1       -3.005   2.140  -0.134  0.00  0.00    +0.292 HD
ENDBRANCH   1  13
TORSDOF 1
