REMARK  Name = molecules/WDICTQVBXKADBP-UHFFFAOYSA-N.pdb
REMARK                            x       y       z     vdW  Elec       q    Type
REMARK                         _______ _______ _______ _____ _____    ______ ____
ROOT
ATOM      1  C   LIG    1        1.610   0.926  -0.823  0.00  0.00    +0.339 C 
ATOM      2  O   LIG    1        1.353   2.135  -0.859  0.00  0.00    -0.245 OA
ENDROOT
BRANCH   1   3
ATOM      3  C   LIG    1        2.906   0.396  -0.362  0.00  0.00    +0.059 A 
ATOM      4  C   LIG    1        3.909   1.244   0.054  0.00  0.00    +0.017 A 
ATOM      5  C   LIG    1        5.135   0.771   0.492  0.00  0.00    +0.023 A 
ATOM      6  C   LIG    1        5.354  -0.585   0.508  0.00  0.00    +0.025 A 
ATOM      7  C   LIG    1        4.359  -1.457   0.093  0.00  0.00    +0.023 A 
ATOM      8  C   LIG    1        3.153  -0.958  -0.335  0.00  0.00    +0.017 A 
BRANCH   6   9
ATOM      9  N   LIG    1        6.591  -1.122   0.947  0.00  0.00    -0.358 N 
ATOM     10  H   LIG    1        6.603  -1.531   1.911  0.00  0.00    +0.142 HD
ATOM     11  H   LIG    1        7.432  -1.102   0.330  0.00  0.00    +0.142 HD
ENDBRANCH   6   9
ENDBRANCH   1   3
BRANCH   1  12
ATOM     12  O   LIG    1        0.590   0.093  -1.246  0.00  0.00    -0.460 OA
BRANCH  12  13
ATOM     13  C   LIG    1       -0.651   0.515  -1.691  0.00  0.00    +0.247 C 
BRANCH  13  14
ATOM     14  C   LIG    1       -1.468   1.290  -0.713  0.00  0.00    +0.122 C 
BRANCH  14  15
ATOM     15  N   LIG    1       -1.788   0.618   0.486  0.00  0.00    -0.313 NA
ATOM     16  H   LIG    1       -1.049   0.474   1.168  0.00  0.00    +0.122 HD
BRANCH  15  17
ATOM     17  C   LIG    1       -2.670  -0.474   0.419  0.00  0.00    +0.084 C 
BRANCH  17  18
ATOM     18  C   LIG    1       -4.086  -0.171   0.068  0.00  0.00    -0.003 C 
ATOM     19  C   LIG    1       -4.768   0.700   1.101  0.00  0.00    +0.008 C 
ATOM     20  C   LIG    1       -4.849  -1.502   0.056  0.00  0.00    +0.008 C 
ENDBRANCH  17  18
ENDBRANCH  15  17
ENDBRANCH  14  15
ENDBRANCH  13  14
ENDBRANCH  12  13
ENDBRANCH   1  12
TORSDOF 8
