REMARK  Name = molecules/WDKXLLJDNUBYCY-UHFFFAOYSA-N.pdb
REMARK                            x       y       z     vdW  Elec       q    Type
REMARK                         _______ _______ _______ _____ _____    ______ ____
ROOT
ATOM      1  C   LIG    1       -0.309  -1.631   0.020  0.00  0.00    +0.174 A 
ATOM      2  C   LIG    1        0.585  -2.601   0.423  0.00  0.00    +0.050 A 
ATOM      3  C   LIG    1        1.916  -2.582   0.060  0.00  0.00    +0.007 A 
ATOM      4  C   LIG    1        2.422  -1.574  -0.736  0.00  0.00    -0.042 A 
ATOM      5  C   LIG    1        1.530  -0.602  -1.142  0.00  0.00    +0.053 A 
ATOM      6  C   LIG    1        0.198  -0.625  -0.776  0.00  0.00    +0.174 A 
ENDROOT
BRANCH   1   7
ATOM      7  O   LIG    1       -1.647  -1.665   0.394  0.00  0.00    -0.422 OA
BRANCH   7   8
ATOM      8  C   LIG    1       -2.171  -1.113   1.529  0.00  0.00    +0.315 C 
ATOM      9  O   LIG    1       -1.391  -0.519   2.318  0.00  0.00    -0.250 OA
BRANCH   8  10
ATOM     10  C   LIG    1       -3.642  -1.220   1.819  0.00  0.00    +0.092 C 
ATOM     11  C   LIG    1       -4.041  -2.685   1.921  0.00  0.00    +0.019 C 
ATOM     12  C   LIG    1       -4.440  -0.570   0.722  0.00  0.00    +0.019 C 
ENDBRANCH   8  10
ENDBRANCH   7   8
ENDBRANCH   1   7
BRANCH   4  13
ATOM     13  C   LIG    1        3.852  -1.533  -1.139  0.00  0.00    +0.050 C 
BRANCH  13  14
ATOM     14  C   LIG    1        4.692  -0.764  -0.147  0.00  0.00    +0.085 C 
BRANCH  14  15
ATOM     15  N   LIG    1        4.266   0.594  -0.005  0.00  0.00    -0.319 NA
ATOM     16  C   LIG    1        5.128   1.246   0.963  0.00  0.00    +0.101 C 
ATOM     17  H   LIG    1        3.304   0.588   0.403  0.00  0.00    +0.122 HD
ENDBRANCH  14  15
ENDBRANCH  13  14
ENDBRANCH   4  13
BRANCH   6  18
ATOM     18  O   LIG    1       -0.684   0.374  -1.201  0.00  0.00    -0.422 OA
BRANCH  18  19
ATOM     19  C   LIG    1       -0.899   1.548  -0.518  0.00  0.00    +0.315 C 
ATOM     20  O   LIG    1       -0.288   1.767   0.546  0.00  0.00    -0.250 OA
BRANCH  19  21
ATOM     21  C   LIG    1       -1.854   2.531  -1.060  0.00  0.00    +0.092 C 
ATOM     22  C   LIG    1       -1.888   3.772  -0.194  0.00  0.00    +0.019 C 
ATOM     23  C   LIG    1       -1.381   2.969  -2.450  0.00  0.00    +0.019 C 
ENDBRANCH  19  21
ENDBRANCH  18  19
ENDBRANCH   6  18
TORSDOF 9
