REMARK  Name = molecules/WDPYZTKOEFDTCU-WDJQFAPHSA-N.pdb
REMARK                            x       y       z     vdW  Elec       q    Type
REMARK                         _______ _______ _______ _____ _____    ______ ____
ROOT
ATOM      1  C   LIG    1       -4.891  -0.475  -1.797  0.00  0.00    +0.015 C 
ATOM      2  C   LIG    1       -4.955  -0.124  -0.354  0.00  0.00    +0.010 C 
ATOM      3  C   LIG    1       -5.288  -1.307   0.518  0.00  0.00    +0.044 C 
ATOM      4  C   LIG    1       -6.718  -1.729   0.384  0.00  0.00    +0.154 C 
ATOM      5  C   LIG    1       -7.698  -0.623   0.587  0.00  0.00    +0.153 C 
ATOM      6  F   LIG    1       -7.489  -0.111   1.848  0.00  0.00    -0.238 F 
ATOM      7  C   LIG    1       -9.130  -1.042   0.417  0.00  0.00    +0.044 C 
ATOM      8  C   LIG    1       -9.561  -1.940   1.470  0.00  0.00    -0.009 C 
ATOM      9  C   LIG    1      -10.635  -1.774   2.215  0.00  0.00    +0.047 C 
ATOM     10  C   LIG    1      -11.507  -0.628   2.039  0.00  0.00    +0.179 C 
ATOM     11  O   LIG    1      -12.522  -0.448   2.720  0.00  0.00    -0.288 OA
ATOM     12  C   LIG    1      -11.077   0.301   0.977  0.00  0.00    +0.051 C 
ATOM     13  C   LIG    1      -10.017   0.114   0.261  0.00  0.00    -0.053 C 
ATOM     14  C   LIG    1       -9.656   1.186  -0.743  0.00  0.00    +0.032 C 
ATOM     15  C   LIG    1       -8.310   1.692  -0.252  0.00  0.00    +0.011 C 
ATOM     16  C   LIG    1       -9.331  -1.829  -0.885  0.00  0.00    +0.023 C 
ATOM     17  C   LIG    1       -7.342   0.510  -0.382  0.00  0.00    +0.034 C 
ATOM     18  C   LIG    1       -3.708   0.602   0.044  0.00  0.00    +0.135 C 
ATOM     19  C   LIG    1       -3.945   2.006  -0.547  0.00  0.00    +0.026 C 
ATOM     20  C   LIG    1       -3.549   3.010   0.539  0.00  0.00    +0.011 C 
ATOM     21  C   LIG    1       -5.440   2.124  -0.748  0.00  0.00    +0.011 C 
ATOM     22  C   LIG    1       -5.963   0.934  -0.023  0.00  0.00    +0.005 C 
ENDROOT
BRANCH   4  23
ATOM     23  O   LIG    1       -6.836  -2.380  -0.843  0.00  0.00    -0.389 OA
ATOM     24  H   LIG    1       -6.011  -2.863  -1.090  0.00  0.00    +0.210 HD
ENDBRANCH   4  23
BRANCH  18  25
ATOM     25  O   LIG    1       -3.657   0.682   1.436  0.00  0.00    -0.380 OA
ATOM     26  H   LIG    1       -3.266  -0.165   1.765  0.00  0.00    +0.211 HD
ENDBRANCH  18  25
BRANCH  18  27
ATOM     27  C   LIG    1       -2.453   0.067  -0.508  0.00  0.00    +0.202 C 
ATOM     28  O   LIG    1       -2.346  -0.104  -1.705  0.00  0.00    -0.291 OA
BRANCH  27  29
ATOM     29  C   LIG    1       -1.307  -0.272   0.370  0.00  0.00    +0.309 C 
BRANCH  29  30
ATOM     30  O   LIG    1       -0.220  -0.779  -0.402  0.00  0.00    -0.457 OA
BRANCH  30  31
ATOM     31  C   LIG    1        0.941  -1.106   0.306  0.00  0.00    +0.307 C 
ATOM     32  O   LIG    1        0.993  -0.949   1.554  0.00  0.00    -0.251 OA
BRANCH  31  33
ATOM     33  C   LIG    1        2.149  -1.646  -0.374  0.00  0.00    +0.120 C 
BRANCH  33  34
ATOM     34  C   LIG    1        2.945  -0.477  -0.877  0.00  0.00    +0.011 C 
BRANCH  34  35
ATOM     35  C   LIG    1        4.205  -0.833  -1.591  0.00  0.00    +0.001 C 
BRANCH  35  36
ATOM     36  C   LIG    1        5.191  -1.590  -0.728  0.00  0.00    +0.000 C 
BRANCH  36  37
ATOM     37  C   LIG    1        5.598  -0.766   0.481  0.00  0.00    +0.000 C 
BRANCH  37  38
ATOM     38  C   LIG    1        6.232   0.542   0.058  0.00  0.00    +0.000 C 
BRANCH  38  39
ATOM     39  C   LIG    1        7.472   0.360  -0.782  0.00  0.00    -0.000 C 
BRANCH  39  40
ATOM     40  C   LIG    1        7.968   1.744  -1.128  0.00  0.00    -0.000 C 
BRANCH  40  41
ATOM     41  C   LIG    1        9.210   1.735  -1.970  0.00  0.00    -0.000 C 
BRANCH  41  42
ATOM     42  C   LIG    1       10.398   1.096  -1.325  0.00  0.00    -0.000 C 
BRANCH  42  43
ATOM     43  C   LIG    1       10.727   1.883  -0.081  0.00  0.00    -0.000 C 
BRANCH  43  44
ATOM     44  C   LIG    1       11.943   1.335   0.603  0.00  0.00    -0.000 C 
BRANCH  44  45
ATOM     45  C   LIG    1       11.745  -0.074   1.026  0.00  0.00    -0.000 C 
BRANCH  45  46
ATOM     46  C   LIG    1       10.616  -0.181   2.001  0.00  0.00    -0.003 C 
ATOM     47  C   LIG    1       10.501  -1.664   2.375  0.00  0.00    +0.004 C 
ENDBRANCH  45  46
ENDBRANCH  44  45
ENDBRANCH  43  44
ENDBRANCH  42  43
ENDBRANCH  41  42
ENDBRANCH  40  41
ENDBRANCH  39  40
ENDBRANCH  38  39
ENDBRANCH  37  38
ENDBRANCH  36  37
ENDBRANCH  35  36
ENDBRANCH  34  35
ENDBRANCH  33  34
ENDBRANCH  31  33
ENDBRANCH  30  31
ENDBRANCH  29  30
ENDBRANCH  27  29
ENDBRANCH  18  27
TORSDOF 20
