REMARK  Name = molecules/WDQPAMHFFCXSNU-BGABXYSRSA-N.pdb
REMARK                            x       y       z     vdW  Elec       q    Type
REMARK                         _______ _______ _______ _____ _____    ______ ____
ROOT
ATOM      1  N   LIG    1        1.474  -2.128   0.271  0.00  0.00    -0.279 NA
ATOM      2  C   LIG    1        1.057  -0.913   0.228  0.00  0.00    +0.082 A 
ATOM      3  C   LIG    1        1.921   0.171   0.246  0.00  0.00    +0.059 A 
ATOM      4  C   LIG    1        1.454   1.452   0.200  0.00  0.00    +0.055 A 
ATOM      5  C   LIG    1        0.073   1.685   0.131  0.00  0.00    +0.090 A 
ATOM      6  C   LIG    1       -0.831   0.552   0.111  0.00  0.00    +0.075 A 
ATOM      7  N   LIG    1       -2.176   0.709   0.046  0.00  0.00    -0.306 N 
ATOM      8  C   LIG    1       -2.637   1.968  -0.001  0.00  0.00    +0.073 A 
ATOM      9  C   LIG    1       -1.795   3.067   0.017  0.00  0.00    +0.088 A 
ATOM     10  C   LIG    1       -2.339   4.336  -0.034  0.00  0.00    +0.030 A 
ATOM     11  C   LIG    1       -3.698   4.546  -0.101  0.00  0.00    +0.002 A 
ATOM     12  C   LIG    1       -4.535   3.446  -0.118  0.00  0.00    +0.002 A 
ATOM     13  C   LIG    1       -4.004   2.184  -0.068  0.00  0.00    +0.028 A 
ATOM     14  N   LIG    1       -0.443   2.916   0.082  0.00  0.00    -0.244 NA
ATOM     15  C   LIG    1       -0.305  -0.718   0.161  0.00  0.00    +0.057 A 
ENDROOT
BRANCH   7  16
ATOM     16  C   LIG    1       -2.987  -0.451   0.031  0.00  0.00    +0.047 A 
ATOM     17  C   LIG    1       -3.465  -1.075   1.151  0.00  0.00    +0.027 A 
ATOM     18  C   LIG    1       -4.252  -2.204   1.076  0.00  0.00    +0.022 A 
ATOM     19  C   LIG    1       -4.581  -2.738  -0.157  0.00  0.00    +0.041 A 
ATOM     20 CL   LIG    1       -5.581  -4.173  -0.275  0.00  0.00    -0.084 Cl
ATOM     21  C   LIG    1       -4.099  -2.109  -1.304  0.00  0.00    +0.022 A 
ATOM     22  C   LIG    1       -3.313  -0.981  -1.201  0.00  0.00    +0.027 A 
ENDBRANCH   7  16
BRANCH   1  23
ATOM     23  C   LIG    1        0.551  -3.246   0.251  0.00  0.00    +0.100 C 
ATOM     24  C   LIG    1        1.407  -4.488   0.533  0.00  0.00    +0.032 C 
ATOM     25  C   LIG    1       -0.056  -3.469  -1.117  0.00  0.00    +0.032 C 
ENDBRANCH   1  23
BRANCH   3  26
ATOM     26  N   LIG    1        3.301  -0.086   0.351  0.00  0.00    -0.313 N 
ATOM     27  H   LIG    1        3.648  -1.082   0.564  0.00  0.00    +0.152 HD
BRANCH  26  28
ATOM     28  C   LIG    1        4.349   0.850   0.202  0.00  0.00    +0.031 A 
ATOM     29  C   LIG    1        5.450   0.753   1.039  0.00  0.00    +0.024 A 
ATOM     30  C   LIG    1        6.493   1.622   0.892  0.00  0.00    +0.022 A 
ATOM     31  C   LIG    1        6.490   2.616  -0.081  0.00  0.00    +0.041 A 
ATOM     32 CL   LIG    1        7.854   3.711  -0.231  0.00  0.00    -0.084 Cl
ATOM     33  C   LIG    1        5.402   2.716  -0.912  0.00  0.00    +0.022 A 
ATOM     34  C   LIG    1        4.336   1.835  -0.771  0.00  0.00    +0.024 A 
ENDBRANCH  26  28
ENDBRANCH   3  26
TORSDOF 4
