REMARK  Name = molecules/WDSCBUNMANHPFH-UHFFFAOYSA-N.pdb
REMARK                            x       y       z     vdW  Elec       q    Type
REMARK                         _______ _______ _______ _____ _____    ______ ____
ROOT
ATOM      1  C   LIG    1        0.542  -1.463  -0.255  0.00  0.00    +0.002 C 
ENDROOT
BRANCH   1   2
ATOM      2  C   LIG    1        1.532  -0.407   0.151  0.00  0.00    +0.011 C 
BRANCH   2   3
ATOM      3  C   LIG    1        2.362  -0.044  -1.063  0.00  0.00    +0.120 C 
BRANCH   3   4
ATOM      4  C   LIG    1        3.351   0.992  -0.713  0.00  0.00    +0.305 C 
ATOM      5  O   LIG    1        3.387   1.421   0.465  0.00  0.00    -0.251 OA
BRANCH   4   6
ATOM      6  O   LIG    1        4.201   1.445  -1.714  0.00  0.00    -0.481 OA
ATOM      7  H   LIG    1        4.894   2.160  -1.560  0.00  0.00    +0.295 HD
ENDBRANCH   4   6
ENDBRANCH   3   4
ENDBRANCH   2   3
ENDBRANCH   1   2
BRANCH   1   8
ATOM      8  C   LIG    1       -0.342  -1.916   0.857  0.00  0.00    +0.019 C 
BRANCH   8   9
ATOM      9  C   LIG    1       -1.131  -0.751   1.385  0.00  0.00    +0.104 C 
BRANCH   9  10
ATOM     10  N   LIG    1       -1.964  -0.137   0.396  0.00  0.00    -0.316 N 
ATOM     11  C   LIG    1       -2.773   0.977   0.734  0.00  0.00    +0.210 C 
ATOM     12  O   LIG    1       -2.795   1.466   1.897  0.00  0.00    -0.276 OA
ATOM     13  C   LIG    1       -3.659   1.650  -0.267  0.00  0.00    +0.109 C 
ATOM     14  H   LIG    1       -1.981  -0.503  -0.575  0.00  0.00    +0.149 HD
ENDBRANCH   9  10
ENDBRANCH   8   9
ENDBRANCH   1   8
TORSDOF 7
