REMARK  Name = molecules/WDYYVNNRTDZKAZ-UHFFFAOYSA-N.pdb
REMARK                            x       y       z     vdW  Elec       q    Type
REMARK                         _______ _______ _______ _____ _____    ______ ____
ROOT
ATOM      1  C   LIG    1       -0.339   0.549   0.427  0.00  0.00    -0.039 C 
ATOM      2  C   LIG    1        0.645   0.374  -0.425  0.00  0.00    -0.007 C 
ENDROOT
BRANCH   1   3
ATOM      3  C   LIG    1       -1.044   1.843   0.385  0.00  0.00    -0.022 A 
ATOM      4  C   LIG    1       -1.951   2.104   1.385  0.00  0.00    +0.008 A 
ATOM      5  C   LIG    1       -2.689   3.288   1.403  0.00  0.00    +0.001 A 
ATOM      6  C   LIG    1       -2.487   4.196   0.391  0.00  0.00    +0.000 A 
ATOM      7  C   LIG    1       -1.584   3.957  -0.622  0.00  0.00    +0.001 A 
ATOM      8  C   LIG    1       -0.881   2.775  -0.595  0.00  0.00    +0.008 A 
ENDBRANCH   1   3
BRANCH   1   9
ATOM      9  C   LIG    1       -0.701  -0.533   1.346  0.00  0.00    +0.070 C 
BRANCH   9  10
ATOM     10  C   LIG    1       -1.984  -1.211   1.044  0.00  0.00    -0.043 A 
ATOM     11  C   LIG    1       -3.081  -1.190   1.859  0.00  0.00    +0.005 A 
ATOM     12  C   LIG    1       -4.253  -1.882   1.521  0.00  0.00    +0.020 A 
ATOM     13  C   LIG    1       -4.352  -2.611   0.359  0.00  0.00    +0.041 A 
ATOM     14 CL   LIG    1       -5.831  -3.477  -0.055  0.00  0.00    -0.084 Cl
ATOM     15  C   LIG    1       -3.251  -2.640  -0.472  0.00  0.00    +0.020 A 
ATOM     16  C   LIG    1       -2.104  -1.959  -0.136  0.00  0.00    +0.005 A 
ENDBRANCH   9  10
ENDBRANCH   1   9
BRANCH   2  17
ATOM     17  C   LIG    1        1.464  -0.843  -0.575  0.00  0.00    +0.112 C 
BRANCH  17  18
ATOM     18  N   LIG    1        2.856  -0.528  -0.303  0.00  0.00    -0.299 NA
ATOM     19  C   LIG    1        3.672  -1.713  -0.222  0.00  0.00    +0.085 C 
ATOM     20  C   LIG    1        5.066  -1.285  -0.694  0.00  0.00    +0.017 C 
ATOM     21  C   LIG    1        4.715  -0.288  -1.772  0.00  0.00    +0.017 C 
ATOM     22  C   LIG    1        3.440   0.327  -1.301  0.00  0.00    +0.085 C 
ENDBRANCH  17  18
ENDBRANCH   2  17
TORSDOF 5
