REMARK  Name = molecules/WDZCUPBHRAEYDL-AROXDKNKSA-N.pdb
REMARK                            x       y       z     vdW  Elec       q    Type
REMARK                         _______ _______ _______ _____ _____    ______ ____
ROOT
ATOM      1  C   LIG    1        1.273   0.075  -2.226  0.00  0.00    +0.071 A 
ATOM      2  C   LIG    1        1.487   0.519  -0.947  0.00  0.00    +0.045 A 
ATOM      3  C   LIG    1        2.382  -0.198  -0.212  0.00  0.00    +0.132 A 
ATOM      4  C   LIG    1        3.084  -1.367  -0.687  0.00  0.00    +0.041 A 
ATOM      5  C   LIG    1        2.839  -1.842  -1.958  0.00  0.00    +0.084 A 
ATOM      6  N   LIG    1        3.171  -3.243  -2.380  0.00  0.00    -0.282 N 
ATOM      7  C   LIG    1        2.268  -4.306  -1.868  0.00  0.00    +0.224 C 
ATOM      8  C   LIG    1        1.324  -4.138  -0.778  0.00  0.00    +0.062 C 
ATOM      9  C   LIG    1        1.391  -5.107   0.396  0.00  0.00    +0.022 C 
ATOM     10  C   LIG    1        0.403  -3.153  -0.735  0.00  0.00    +0.013 C 
ATOM     11  C   LIG    1       -0.647  -2.994  -1.689  0.00  0.00    +0.001 C 
ATOM     12  C   LIG    1       -1.807  -3.634  -1.793  0.00  0.00    +0.002 C 
ATOM     13  C   LIG    1       -2.907  -3.695  -0.813  0.00  0.00    +0.018 C 
ATOM     14  C   LIG    1       -3.428  -2.301  -0.411  0.00  0.00    +0.123 C 
ATOM     15  C   LIG    1       -4.549  -2.313   0.547  0.00  0.00    +0.044 C 
ATOM     16  C   LIG    1       -4.126  -2.047   1.983  0.00  0.00    +0.013 C 
ATOM     17  C   LIG    1       -5.766  -1.530   0.263  0.00  0.00    +0.126 C 
ATOM     18  C   LIG    1       -5.734  -0.246  -0.443  0.00  0.00    +0.056 C 
ATOM     19  C   LIG    1       -5.763   1.023   0.403  0.00  0.00    +0.187 C 
ATOM     20  C   LIG    1       -5.186   2.233  -0.315  0.00  0.00    +0.056 C 
ATOM     21  C   LIG    1       -4.317   3.165   0.417  0.00  0.00    +0.130 C 
ATOM     22  C   LIG    1       -3.828   2.818   1.756  0.00  0.00    +0.058 C 
ATOM     23  C   LIG    1       -2.631   3.134   2.254  0.00  0.00    +0.158 C 
ATOM     24  O   LIG    1       -1.500   3.426   1.474  0.00  0.00    -0.327 OA
ATOM     25  C   LIG    1       -0.934   2.691   0.523  0.00  0.00    +0.274 C 
ATOM     26  C   LIG    1        0.566   2.415   0.609  0.00  0.00    +0.238 C 
ATOM     27  O   LIG    1        1.116   2.908   1.589  0.00  0.00    -0.285 OA
ATOM     28  C   LIG    1       -1.492   1.298   0.331  0.00  0.00    +0.098 C 
ATOM     29  O   LIG    1       -0.828   3.285  -0.811  0.00  0.00    -0.453 OA
ATOM     30  C   LIG    1       -0.167   2.201  -1.468  0.00  0.00    +0.142 A 
ATOM     31  C   LIG    1       -0.365   1.755  -2.754  0.00  0.00    +0.034 A 
ATOM     32  C   LIG    1       -1.311   2.395  -3.689  0.00  0.00    +0.051 C 
ATOM     33  C   LIG    1       -4.489   1.889  -1.616  0.00  0.00    +0.014 C 
ATOM     34  C   LIG    1       -7.113  -0.194  -1.176  0.00  0.00    +0.014 C 
ATOM     35  C   LIG    1       -4.095  -4.470  -1.343  0.00  0.00    +0.010 C 
ATOM     36  O   LIG    1        2.299  -5.458  -2.393  0.00  0.00    -0.275 OA
ATOM     37  H   LIG    1        3.913  -3.665  -2.962  0.00  0.00    +0.155 HD
ATOM     38  C   LIG    1        0.721   1.626  -0.600  0.00  0.00    +0.078 A 
ATOM     39  C   LIG    1        1.938  -1.104  -2.737  0.00  0.00    +0.150 A 
ATOM     40  C   LIG    1        0.372   0.669  -3.129  0.00  0.00    +0.135 A 
ENDROOT
BRANCH   3  41
ATOM     41  O   LIG    1        2.838  -0.056   1.133  0.00  0.00    -0.506 OA
ATOM     42  H   LIG    1        2.622   0.472   1.879  0.00  0.00    +0.292 HD
ENDBRANCH   3  41
BRANCH  17  43
ATOM     43  O   LIG    1       -6.488  -1.426   1.482  0.00  0.00    -0.391 OA
ATOM     44  H   LIG    1       -6.784  -2.312   1.803  0.00  0.00    +0.210 HD
ENDBRANCH  17  43
BRANCH  21  45
ATOM     45  O   LIG    1       -4.981   4.431   0.459  0.00  0.00    -0.379 OA
ATOM     46  C   LIG    1       -4.173   5.334  -0.195  0.00  0.00    +0.194 C 
ENDBRANCH  21  45
BRANCH  14  47
ATOM     47  O   LIG    1       -2.316  -1.768   0.312  0.00  0.00    -0.391 OA
ATOM     48  H   LIG    1       -2.205  -2.429   1.046  0.00  0.00    +0.210 HD
ENDBRANCH  14  47
BRANCH  39  49
ATOM     49  O   LIG    1        1.470  -1.231  -4.043  0.00  0.00    -0.504 OA
ATOM     50  H   LIG    1        1.422  -1.631  -4.857  0.00  0.00    +0.292 HD
ENDBRANCH  39  49
BRANCH  40  51
ATOM     51  O   LIG    1        0.220   0.147  -4.416  0.00  0.00    -0.506 OA
ATOM     52  H   LIG    1       -0.367   0.686  -5.055  0.00  0.00    +0.292 HD
ENDBRANCH  40  51
BRANCH   4  53
ATOM     53  C   LIG    1        4.348  -1.497   0.185  0.00  0.00    +0.151 C 
BRANCH  53  54
ATOM     54  N   LIG    1        4.837  -0.846   1.038  0.00  0.00    -0.149 NA
BRANCH  54  55
ATOM     55  N   LIG    1        5.350  -0.108   1.974  0.00  0.00    -0.223 NA
ATOM     56  C   LIG    1        6.255  -0.790   2.975  0.00  0.00    +0.119 C 
ATOM     57  C   LIG    1        7.632  -0.170   2.650  0.00  0.00    +0.101 C 
ATOM     58  N   LIG    1        7.574   0.836   1.675  0.00  0.00    -0.297 NA
ATOM     59  C   LIG    1        6.673   1.931   2.002  0.00  0.00    +0.101 C 
ATOM     60  C   LIG    1        5.281   1.306   2.210  0.00  0.00    +0.119 C 
BRANCH  58  61
ATOM     61  C   LIG    1        8.596   1.155   0.822  0.00  0.00    +0.057 C 
ATOM     62  C   LIG    1        9.890   1.687   1.419  0.00  0.00    +0.019 C 
ATOM     63  C   LIG    1       10.698   1.896   0.103  0.00  0.00    +0.002 C 
ATOM     64  C   LIG    1       10.602   0.441  -0.383  0.00  0.00    +0.002 C 
ATOM     65  C   LIG    1        9.126   0.141  -0.153  0.00  0.00    +0.019 C 
ENDBRANCH  58  61
ENDBRANCH  54  55
ENDBRANCH  53  54
ENDBRANCH   4  53
BRANCH  19  66
ATOM     66  O   LIG    1       -7.079   1.287   0.822  0.00  0.00    -0.461 OA
BRANCH  66  67
ATOM     67  C   LIG    1       -7.585   1.351   2.056  0.00  0.00    +0.304 C 
ATOM     68  O   LIG    1       -6.860   1.160   3.049  0.00  0.00    -0.251 OA
ATOM     69  C   LIG    1       -9.033   1.646   2.318  0.00  0.00    +0.136 C 
ENDBRANCH  66  67
ENDBRANCH  19  66
TORSDOF 12
