REMARK  Name = molecules/WEEGYLXZBRQIMU-WAAGHKOSSA-N.pdb
REMARK                            x       y       z     vdW  Elec       q    Type
REMARK                         _______ _______ _______ _____ _____    ______ ____
ROOT
ATOM      1  C   LIG    1       -2.245   1.540   0.271  0.00  0.00    +0.041 C 
ATOM      2  C   LIG    1       -1.149   0.534   0.117  0.00  0.00    +0.067 C 
ATOM      3  C   LIG    1       -1.197  -0.540   1.213  0.00  0.00    +0.035 C 
ATOM      4  C   LIG    1       -0.252  -1.635   0.705  0.00  0.00    +0.009 C 
ATOM      5  C   LIG    1        0.733  -1.072  -0.263  0.00  0.00    +0.021 C 
ATOM      6  C   LIG    1        1.155   0.342   0.135  0.00  0.00    +0.067 C 
ATOM      7  C   LIG    1        1.927   0.216   1.426  0.00  0.00    +0.041 C 
ATOM      8  C   LIG    1        2.022   0.959  -0.923  0.00  0.00    +0.041 C 
ATOM      9  C   LIG    1        0.001  -0.896  -1.600  0.00  0.00    +0.009 C 
ATOM     10  O   LIG    1        0.062   1.169   0.282  0.00  0.00    -0.367 OA
ATOM     11  C   LIG    1       -1.289  -0.158  -1.217  0.00  0.00    +0.035 C 
ENDROOT
TORSDOF 0
