REMARK  Name = molecules/WFJIVOKAWHGMBH-UHFFFAOYSA-N.pdb
REMARK                            x       y       z     vdW  Elec       q    Type
REMARK                         _______ _______ _______ _____ _____    ______ ____
ROOT
ATOM      1  C   LIG    1       -2.104  -0.001  -0.207  0.00  0.00    -0.006 A 
ATOM      2  C   LIG    1       -2.627   1.055   0.476  0.00  0.00    +0.123 A 
ATOM      3  C   LIG    1       -3.901   0.966   1.032  0.00  0.00    +0.091 A 
ATOM      4  C   LIG    1       -4.632  -0.182   0.895  0.00  0.00    +0.120 A 
ATOM      5  C   LIG    1       -4.124  -1.259   0.210  0.00  0.00    +0.046 A 
ATOM      6  C   LIG    1       -2.846  -1.153  -0.341  0.00  0.00    +0.011 A 
ENDROOT
BRANCH   4   7
ATOM      7  O   LIG    1       -5.922  -0.320   1.438  0.00  0.00    -0.507 OA
ATOM      8  H   LIG    1       -6.737  -0.061   0.892  0.00  0.00    +0.292 HD
ENDBRANCH   4   7
BRANCH   2   9
ATOM      9  O   LIG    1       -1.951   2.274   0.668  0.00  0.00    -0.506 OA
ATOM     10  H   LIG    1       -1.050   2.490   0.330  0.00  0.00    +0.292 HD
ENDBRANCH   2   9
BRANCH   1  11
ATOM     11  C   LIG    1       -0.753   0.073  -0.788  0.00  0.00    +0.039 C 
BRANCH  11  12
ATOM     12  C   LIG    1        0.351  -0.117   0.258  0.00  0.00    +0.005 C 
BRANCH  12  13
ATOM     13  C   LIG    1        1.655  -0.014  -0.494  0.00  0.00    +0.000 C 
BRANCH  13  14
ATOM     14  C   LIG    1        2.865  -0.184   0.369  0.00  0.00    -0.000 C 
BRANCH  14  15
ATOM     15  C   LIG    1        4.095  -0.052  -0.513  0.00  0.00    -0.003 C 
ATOM     16  C   LIG    1        5.359  -0.217   0.317  0.00  0.00    +0.004 C 
ENDBRANCH  14  15
ENDBRANCH  13  14
ENDBRANCH  12  13
ENDBRANCH  11  12
ENDBRANCH   1  11
TORSDOF 7
