REMARK  Name = molecules/WFNAKBGANONZEQ-GOSISDBHSA-N.pdb
REMARK                            x       y       z     vdW  Elec       q    Type
REMARK                         _______ _______ _______ _____ _____    ______ ____
ROOT
ATOM      1  C   LIG    1       -0.595  -0.020   0.383  0.00  0.00    +0.117 C 
ENDROOT
BRANCH   1   6
ATOM      2  C   LIG    1        4.495  -0.113   0.621  0.00  0.00    +0.105 C 
ATOM      3  N   LIG    1        3.250  -0.553   1.185  0.00  0.00    -0.303 NA
ATOM      4  C   LIG    1        2.405   0.511   1.645  0.00  0.00    +0.099 C 
ATOM      5  C   LIG    1        1.565   1.039   0.507  0.00  0.00    +0.100 C 
ATOM      6  N   LIG    1        0.765  -0.004  -0.010  0.00  0.00    -0.289 NA
ATOM      7  C   LIG    1        1.388  -1.230  -0.294  0.00  0.00    +0.100 C 
ATOM      8  C   LIG    1        2.603  -1.590   0.483  0.00  0.00    +0.099 C 
ENDBRANCH   1   6
BRANCH   1   9
ATOM      9  C   LIG    1       -1.203   1.297   0.052  0.00  0.00    -0.026 A 
ATOM     10  C   LIG    1       -2.033   1.960   0.964  0.00  0.00    +0.007 A 
ATOM     11  C   LIG    1       -2.607   3.179   0.677  0.00  0.00    +0.020 A 
ATOM     12  C   LIG    1       -2.377   3.787  -0.531  0.00  0.00    +0.041 A 
ATOM     13 CL   LIG    1       -3.075   5.336  -0.960  0.00  0.00    -0.084 Cl
ATOM     14  C   LIG    1       -1.560   3.166  -1.468  0.00  0.00    +0.020 A 
ATOM     15  C   LIG    1       -0.998   1.943  -1.151  0.00  0.00    +0.007 A 
ENDBRANCH   1   9
BRANCH   1  16
ATOM     16  C   LIG    1       -1.373  -1.112  -0.197  0.00  0.00    -0.026 A 
ATOM     17  C   LIG    1       -2.228  -1.845   0.593  0.00  0.00    +0.005 A 
ATOM     18  C   LIG    1       -3.000  -2.889   0.138  0.00  0.00    +0.000 A 
ATOM     19  C   LIG    1       -2.883  -3.189  -1.200  0.00  0.00    +0.000 A 
ATOM     20  C   LIG    1       -2.035  -2.474  -2.019  0.00  0.00    +0.000 A 
ATOM     21  C   LIG    1       -1.278  -1.436  -1.526  0.00  0.00    +0.005 A 
ENDBRANCH   1  16
TORSDOF 3
