REMARK  Name = molecules/WFPIAZLQTJBIFN-UHFFFAOYSA-N.pdb
REMARK                            x       y       z     vdW  Elec       q    Type
REMARK                         _______ _______ _______ _____ _____    ______ ____
ROOT
ATOM      1  C   LIG    1       -4.440   0.432   3.894  0.00  0.00    +0.001 A 
ATOM      2  C   LIG    1       -5.793   0.534   3.627  0.00  0.00    +0.001 A 
ATOM      3  C   LIG    1       -6.158   0.323   2.327  0.00  0.00    +0.015 A 
ATOM      4  C   LIG    1       -5.242   0.028   1.342  0.00  0.00    +0.020 A 
ATOM      5  C   LIG    1       -3.909  -0.074   1.593  0.00  0.00    -0.007 A 
ATOM      6  C   LIG    1       -2.864  -0.321   0.527  0.00  0.00    -0.027 C 
ATOM      7  C   LIG    1       -3.212  -0.462  -0.879  0.00  0.00    -0.006 A 
ATOM      8  C   LIG    1       -4.508  -0.402  -1.369  0.00  0.00    +0.020 A 
ATOM      9  C   LIG    1       -4.817  -0.445  -2.712  0.00  0.00    +0.017 A 
ATOM     10  C   LIG    1       -3.818  -0.552  -3.646  0.00  0.00    +0.021 A 
ATOM     11  C   LIG    1       -2.526  -0.612  -3.209  0.00  0.00    +0.042 A 
ATOM     12 CL   LIG    1       -1.232  -0.749  -4.372  0.00  0.00    -0.084 Cl
ATOM     13  C   LIG    1       -2.215  -0.567  -1.857  0.00  0.00    +0.029 A 
ATOM     14  S   LIG    1       -5.900  -0.267  -0.269  0.00  0.00    -0.088 S 
ATOM     15  C   LIG    1       -3.531   0.137   2.903  0.00  0.00    +0.009 A 
ENDROOT
BRANCH   6  16
ATOM     16  C   LIG    1       -1.647  -0.470   0.982  0.00  0.00    +0.029 C 
BRANCH  16  17
ATOM     17  C   LIG    1       -0.349  -0.728   0.415  0.00  0.00    +0.024 C 
BRANCH  17  18
ATOM     18  C   LIG    1        0.501   0.529   0.463  0.00  0.00    +0.085 C 
BRANCH  18  19
ATOM     19  N   LIG    1        1.796   0.415  -0.064  0.00  0.00    -0.300 NA
ATOM     20  C   LIG    1        2.751  -0.377   0.590  0.00  0.00    +0.100 C 
ATOM     21  C   LIG    1        3.716  -0.932  -0.433  0.00  0.00    +0.100 C 
ATOM     22  N   LIG    1        4.396   0.141  -1.075  0.00  0.00    -0.298 NA
ATOM     23  C   LIG    1        3.580   1.207  -1.551  0.00  0.00    +0.100 C 
ATOM     24  C   LIG    1        2.107   1.016  -1.297  0.00  0.00    +0.100 C 
BRANCH  22  25
ATOM     25  C   LIG    1        5.535   0.669  -0.399  0.00  0.00    +0.112 C 
BRANCH  25  26
ATOM     26  C   LIG    1        6.464  -0.367   0.153  0.00  0.00    +0.171 C 
BRANCH  26  27
ATOM     27  O   LIG    1        7.523   0.333   0.775  0.00  0.00    -0.394 OA
ATOM     28  H   LIG    1        8.113   0.669   0.038  0.00  0.00    +0.209 HD
ENDBRANCH  26  27
ENDBRANCH  25  26
ENDBRANCH  22  25
ENDBRANCH  18  19
ENDBRANCH  17  18
ENDBRANCH  16  17
ENDBRANCH   6  16
TORSDOF 7
