REMARK  Name = molecules/WFWLQNSHRPWKFK-ZCFIWIBFSA-N.pdb
REMARK                            x       y       z     vdW  Elec       q    Type
REMARK                         _______ _______ _______ _____ _____    ______ ____
ROOT
ATOM      1  C   LIG    1        3.313   0.159  -0.111  0.00  0.00    +0.289 A 
ATOM      2  N   LIG    1        2.734  -1.046   0.055  0.00  0.00    -0.273 N 
ATOM      3  C   LIG    1        1.426  -1.188   0.332  0.00  0.00    +0.331 A 
ATOM      4  O   LIG    1        0.882  -2.308   0.488  0.00  0.00    -0.246 OA
ATOM      5  N   LIG    1        0.667  -0.084   0.446  0.00  0.00    -0.271 N 
ATOM      6  C   LIG    1        1.207   1.134   0.287  0.00  0.00    +0.137 A 
ATOM      7  H   LIG    1        3.303  -1.934  -0.028  0.00  0.00    +0.174 HD
ATOM      8  C   LIG    1        2.551   1.301   0.002  0.00  0.00    +0.204 A 
ATOM      9  F   LIG    1        3.094   2.554  -0.159  0.00  0.00    -0.198 F 
ATOM     10  O   LIG    1        4.537   0.254  -0.368  0.00  0.00    -0.265 OA
ENDROOT
BRANCH   5  11
ATOM     11  C   LIG    1       -0.751  -0.161   0.743  0.00  0.00    +0.223 C 
ATOM     12  O   LIG    1       -1.295  -1.369   0.411  0.00  0.00    -0.356 OA
ATOM     13  C   LIG    1       -2.447  -1.176  -0.306  0.00  0.00    +0.162 C 
ATOM     14  C   LIG    1       -2.824   0.283  -0.201  0.00  0.00    +0.032 C 
ATOM     15  C   LIG    1       -1.433   0.900  -0.113  0.00  0.00    +0.057 C 
ENDBRANCH   5  11
TORSDOF 1
