REMARK  Name = molecules/WGFOBBZOWHGYQH-MXHNKVEKSA-N.pdb
REMARK                            x       y       z     vdW  Elec       q    Type
REMARK                         _______ _______ _______ _____ _____    ______ ____
ROOT
ATOM      1  C   LIG    1        0.807  -1.686   1.044  0.00  0.00    +0.133 C 
ATOM      2  C   LIG    1        0.213  -0.265   1.186  0.00  0.00    +0.029 C 
ATOM      3  C   LIG    1        1.079   0.380   2.211  0.00  0.00    +0.012 C 
ATOM      4  C   LIG    1        2.459  -0.139   2.317  0.00  0.00    +0.071 C 
ATOM      5  C   LIG    1        2.929  -1.097   1.322  0.00  0.00    +0.232 C 
ATOM      6  C   LIG    1       -1.172  -0.553   1.623  0.00  0.00    +0.061 C 
ATOM      7  C   LIG    1       -1.491  -1.901   1.020  0.00  0.00    +0.139 C 
ATOM      8  O   LIG    1       -2.563  -2.429   1.170  0.00  0.00    -0.297 OA
ATOM      9  O   LIG    1        1.992  -1.482   0.363  0.00  0.00    -0.340 OA
ATOM     10  C   LIG    1       -0.278  -2.349   0.282  0.00  0.00    +0.106 C 
ENDROOT
BRANCH   5  11
ATOM     11  C   LIG    1        4.138  -0.578   0.573  0.00  0.00    +0.301 C 
ATOM     12  F   LIG    1        5.163  -0.422   1.478  0.00  0.00    -0.200 F 
ATOM     13  F   LIG    1        4.559  -1.529  -0.365  0.00  0.00    -0.200 F 
BRANCH  11  14
ATOM     14  C   LIG    1        3.865   0.720  -0.119  0.00  0.00    +0.081 C 
BRANCH  14  15
ATOM     15  C   LIG    1        4.990   1.318  -0.871  0.00  0.00    +0.006 C 
BRANCH  15  16
ATOM     16  C   LIG    1        5.563   0.513  -1.984  0.00  0.00    -0.003 C 
ATOM     17  C   LIG    1        6.709   1.281  -2.670  0.00  0.00    +0.004 C 
ENDBRANCH  15  16
ENDBRANCH  14  15
ENDBRANCH  11  14
ENDBRANCH   5  11
BRANCH   5  18
ATOM     18  O   LIG    1        3.351  -2.316   1.912  0.00  0.00    -0.360 OA
ATOM     19  H   LIG    1        3.394  -3.042   1.243  0.00  0.00    +0.213 HD
ENDBRANCH   5  18
BRANCH   6  20
ATOM     20  C   LIG    1       -2.162   0.427   1.072  0.00  0.00    +0.011 C 
BRANCH  20  21
ATOM     21  C   LIG    1       -2.175   0.595  -0.400  0.00  0.00    +0.001 C 
BRANCH  21  22
ATOM     22  C   LIG    1       -3.224   1.587  -0.829  0.00  0.00    +0.000 C 
BRANCH  22  23
ATOM     23  C   LIG    1       -4.580   1.097  -0.402  0.00  0.00    +0.001 C 
BRANCH  23  24
ATOM     24  C   LIG    1       -4.913  -0.246  -0.982  0.00  0.00    +0.011 C 
BRANCH  24  25
ATOM     25  C   LIG    1       -6.265  -0.683  -0.523  0.00  0.00    +0.120 C 
BRANCH  25  26
ATOM     26  C   LIG    1       -7.368   0.203  -0.942  0.00  0.00    +0.305 C 
ATOM     27  O   LIG    1       -8.507  -0.080  -0.417  0.00  0.00    -0.251 OA
BRANCH  26  28
ATOM     28  O   LIG    1       -7.289   1.259  -1.811  0.00  0.00    -0.481 OA
ATOM     29  H   LIG    1       -8.027   1.537  -2.431  0.00  0.00    +0.295 HD
ENDBRANCH  26  28
ENDBRANCH  25  26
ENDBRANCH  24  25
ENDBRANCH  23  24
ENDBRANCH  22  23
ENDBRANCH  21  22
ENDBRANCH  20  21
ENDBRANCH   6  20
TORSDOF 13
