REMARK  Name = molecules/WGMASVSHOSNKMF-NSHDSACASA-N.pdb
REMARK                            x       y       z     vdW  Elec       q    Type
REMARK                         _______ _______ _______ _____ _____    ______ ____
ROOT
ATOM      1  C   LIG    1       -0.398   0.052   0.188  0.00  0.00    +0.130 C 
ATOM      2  C   LIG    1        1.009  -0.157   0.563  0.00  0.00    +0.238 C 
ATOM      3  O   LIG    1        1.272  -0.209   1.804  0.00  0.00    -0.274 OA
ATOM      4  N   LIG    1        2.077  -0.303  -0.330  0.00  0.00    -0.228 N 
ATOM      5  C   LIG    1        3.451  -0.328   0.175  0.00  0.00    +0.143 C 
ATOM      6  C   LIG    1        1.805  -0.425  -1.705  0.00  0.00    +0.315 C 
ATOM      7  N   LIG    1        0.465  -0.397  -2.160  0.00  0.00    -0.239 N 
ATOM      8  H   LIG    1        0.281  -0.490  -3.193  0.00  0.00    +0.159 HD
ATOM      9  O   LIG    1        2.738  -0.557  -2.525  0.00  0.00    -0.252 OA
ATOM     10  C   LIG    1       -0.623  -0.246  -1.228  0.00  0.00    +0.236 C 
ATOM     11  O   LIG    1       -1.775  -0.393  -1.737  0.00  0.00    -0.274 OA
ENDROOT
BRANCH   1  12
ATOM     12  C   LIG    1       -0.732   1.505   0.527  0.00  0.00    +0.007 C 
ATOM     13  C   LIG    1       -2.177   1.816   0.315  0.00  0.00    +0.009 C 
ATOM     14  C   LIG    1        0.138   2.455  -0.298  0.00  0.00    +0.009 C 
ENDBRANCH   1  12
BRANCH   1  15
ATOM     15  C   LIG    1       -1.247  -0.806   1.105  0.00  0.00    +0.068 C 
BRANCH  15  16
ATOM     16  C   LIG    1       -1.041  -2.249   0.903  0.00  0.00    -0.010 C 
ATOM     17 BR   LIG    1        0.688  -3.006   1.157  0.00  0.00    -0.056 Br
ATOM     18  C   LIG    1       -2.022  -3.064   0.544  0.00  0.00    +0.020 C 
ENDBRANCH  15  16
ENDBRANCH   1  15
TORSDOF 3
