REMARK  Name = molecules/WGMYEOIMVYADRJ-UHFFFAOYSA-N.pdb
REMARK                            x       y       z     vdW  Elec       q    Type
REMARK                         _______ _______ _______ _____ _____    ______ ____
ROOT
ATOM      1  C   LIG    1        4.789  -0.093   0.328  0.00  0.00    +0.161 A 
ATOM      2  S   LIG    1        3.594  -1.281   0.587  0.00  0.00    -0.052 S 
ATOM      3  C   LIG    1        2.247  -0.452  -0.088  0.00  0.00    +0.044 A 
ATOM      4  C   LIG    1        0.880  -0.734  -0.273  0.00  0.00    +0.063 A 
ATOM      5  C   LIG    1        0.068   0.206  -0.878  0.00  0.00    +0.122 A 
ATOM      6  C   LIG    1        0.664   1.379  -1.267  0.00  0.00    +0.048 A 
ATOM      7  C   LIG    1        1.980   1.668  -1.097  0.00  0.00    +0.032 A 
ATOM      8  C   LIG    1        2.825   0.722  -0.481  0.00  0.00    +0.081 A 
ATOM      9  N   LIG    1        4.108   0.870  -0.257  0.00  0.00    -0.225 NA
ENDROOT
BRANCH   1  10
ATOM     10  N   LIG    1        6.175  -0.087   0.640  0.00  0.00    -0.316 N 
ATOM     11  C   LIG    1        6.735  -1.254   1.277  0.00  0.00    +0.131 C 
ATOM     12  C   LIG    1        7.046   1.025   0.352  0.00  0.00    +0.131 C 
ENDBRANCH   1  10
BRANCH   5  13
ATOM     13  O   LIG    1       -1.258  -0.058  -1.061  0.00  0.00    -0.491 OA
BRANCH  13  14
ATOM     14  C   LIG    1       -1.938  -1.216  -0.697  0.00  0.00    +0.244 C 
BRANCH  14  15
ATOM     15  C   LIG    1       -3.388  -1.222  -1.026  0.00  0.00    +0.125 C 
BRANCH  15  16
ATOM     16  N   LIG    1       -4.189  -0.210  -0.434  0.00  0.00    -0.300 NA
BRANCH  16  17
ATOM     17  C   LIG    1       -4.324  -0.365   1.004  0.00  0.00    +0.081 C 
ATOM     18  C   LIG    1       -5.146  -1.605   1.257  0.00  0.00    +0.020 C 
ENDBRANCH  16  17
BRANCH  16  19
ATOM     19  C   LIG    1       -3.928   1.134  -0.826  0.00  0.00    +0.081 C 
ATOM     20  C   LIG    1       -4.945   2.049  -0.129  0.00  0.00    +0.020 C 
ENDBRANCH  16  19
ENDBRANCH  15  16
ENDBRANCH  14  15
ENDBRANCH  13  14
ENDBRANCH   5  13
TORSDOF 7
