REMARK  Name = molecules/WGNUNYPERJMVRM-UHFFFAOYSA-N.pdb
REMARK                            x       y       z     vdW  Elec       q    Type
REMARK                         _______ _______ _______ _____ _____    ______ ____
ROOT
ATOM      1  C   LIG    1       -0.061  -0.172   0.129  0.00  0.00    -0.019 A 
ATOM      2  C   LIG    1       -0.909   0.882   0.397  0.00  0.00    +0.007 A 
ATOM      3  C   LIG    1       -2.264   0.702   0.225  0.00  0.00    +0.020 A 
ATOM      4  C   LIG    1       -2.781  -0.498  -0.205  0.00  0.00    +0.111 A 
ATOM      5  N   LIG    1       -1.940  -1.510  -0.461  0.00  0.00    -0.263 NA
ATOM      6  C   LIG    1       -0.620  -1.356  -0.300  0.00  0.00    +0.114 A 
ENDROOT
BRANCH   1   7
ATOM      7  C   LIG    1        1.395  -0.061   0.287  0.00  0.00    +0.157 C 
BRANCH   7   8
ATOM      8  C   LIG    1        2.087   0.394  -0.923  0.00  0.00    +0.309 C 
ATOM      9  O   LIG    1        1.484   0.661  -1.989  0.00  0.00    -0.251 OA
BRANCH   8  10
ATOM     10  O   LIG    1        3.464   0.539  -0.903  0.00  0.00    -0.480 OA
ATOM     11  H   LIG    1        4.003   0.378  -0.083  0.00  0.00    +0.295 HD
ENDBRANCH   8  10
ENDBRANCH   7   8
ENDBRANCH   1   7
TORSDOF 3
