REMARK  Name = molecules/WGRQANOPCQRCME-PMACEKPBSA-N.pdb
REMARK                            x       y       z     vdW  Elec       q    Type
REMARK                         _______ _______ _______ _____ _____    ______ ____
ROOT
ATOM      1  C   LIG    1        0.455  -0.591  -0.822  0.00  0.00    +0.103 C 
ATOM      2  N   LIG    1        0.481   0.362   0.268  0.00  0.00    -0.295 NA
ATOM      3  C   LIG    1       -0.516  -0.001   1.290  0.00  0.00    +0.103 C 
ATOM      4  C   LIG    1       -1.933   0.113   0.744  0.00  0.00    +0.122 C 
ATOM      5  N   LIG    1       -1.972  -0.654  -0.478  0.00  0.00    -0.313 N 
ATOM      6  C   LIG    1       -0.943  -0.466  -1.448  0.00  0.00    +0.122 C 
ENDROOT
BRANCH   5   7
ATOM      7  C   LIG    1       -3.024  -1.570  -0.685  0.00  0.00    +0.125 A 
ATOM      8  N   LIG    1       -4.355  -1.407  -0.678  0.00  0.00    -0.218 N 
ATOM      9  N   LIG    1       -4.973  -2.574  -0.926  0.00  0.00    -0.170 NA
ATOM     10  C   LIG    1       -4.066  -3.548  -1.106  0.00  0.00    +0.062 A 
ATOM     11  C   LIG    1       -4.291  -4.986  -1.402  0.00  0.00    +0.067 C 
ATOM     12  C   LIG    1       -2.845  -2.928  -0.956  0.00  0.00    +0.068 A 
BRANCH   8  13
ATOM     13  C   LIG    1       -5.051  -0.199  -0.445  0.00  0.00    +0.067 A 
ATOM     14  C   LIG    1       -6.208  -0.145   0.323  0.00  0.00    +0.028 A 
ATOM     15  C   LIG    1       -6.885   1.029   0.547  0.00  0.00    +0.002 A 
ATOM     16  C   LIG    1       -6.422   2.216   0.000  0.00  0.00    +0.000 A 
ATOM     17  C   LIG    1       -5.276   2.166  -0.761  0.00  0.00    +0.002 A 
ATOM     18  C   LIG    1       -4.594   0.968  -0.983  0.00  0.00    +0.028 A 
ENDBRANCH   8  13
ENDBRANCH   5   7
BRANCH   2  19
ATOM     19  C   LIG    1        1.748   0.375   0.969  0.00  0.00    +0.072 C 
ATOM     20  C   LIG    1        1.774   1.394   2.072  0.00  0.00    +0.100 C 
ATOM     21  N   LIG    1        3.111   1.866   2.164  0.00  0.00    -0.304 NA
ATOM     22  H   LIG    1        3.494   1.590   3.104  0.00  0.00    +0.123 HD
ATOM     23  C   LIG    1        3.920   1.135   1.193  0.00  0.00    +0.142 C 
ATOM     24  C   LIG    1        2.903   0.786   0.094  0.00  0.00    +0.048 C 
BRANCH  23  25
ATOM     25  C   LIG    1        5.003   1.989   0.714  0.00  0.00    +0.233 C 
ATOM     26  O   LIG    1        5.080   3.198   1.040  0.00  0.00    -0.274 OA
ATOM     27  N   LIG    1        5.998   1.454  -0.137  0.00  0.00    -0.290 N 
ATOM     28  C   LIG    1        6.135   0.077  -0.578  0.00  0.00    +0.119 C 
ATOM     29  C   LIG    1        5.921   0.119  -2.089  0.00  0.00    +0.089 C 
ATOM     30  S   LIG    1        7.011   1.561  -2.453  0.00  0.00    -0.140 S 
ATOM     31  C   LIG    1        7.126   2.203  -0.729  0.00  0.00    +0.177 C 
ENDBRANCH  23  25
ENDBRANCH   2  19
TORSDOF 4
