REMARK  Name = molecules/WGZDBVOTUVNQFP-UHFFFAOYSA-N.pdb
REMARK                            x       y       z     vdW  Elec       q    Type
REMARK                         _______ _______ _______ _____ _____    ______ ____
ROOT
ATOM      1  C   LIG    1        1.117  -0.691  -0.203  0.00  0.00    +0.165 A 
ATOM      2  C   LIG    1        2.228   0.045   0.111  0.00  0.00    +0.027 A 
ATOM      3  C   LIG    1        2.201   1.239   0.804  0.00  0.00    +0.012 A 
ATOM      4  C   LIG    1        3.393   1.904   1.069  0.00  0.00    +0.001 A 
ATOM      5  C   LIG    1        4.620   1.419   0.666  0.00  0.00    +0.001 A 
ATOM      6  C   LIG    1        4.656   0.234  -0.023  0.00  0.00    +0.010 A 
ATOM      7  C   LIG    1        3.464  -0.434  -0.290  0.00  0.00    +0.005 A 
ATOM      8  C   LIG    1        3.518  -1.613  -0.977  0.00  0.00    +0.143 A 
ATOM      9  N   LIG    1        2.404  -2.306  -1.266  0.00  0.00    -0.155 NA
ATOM     10  N   LIG    1        1.234  -1.862  -0.891  0.00  0.00    -0.132 NA
ENDROOT
BRANCH   1  11
ATOM     11  N   LIG    1       -0.160  -0.225   0.196  0.00  0.00    -0.244 N 
ATOM     12  H   LIG    1       -0.275   0.647   0.711  0.00  0.00    +0.172 HD
BRANCH  11  13
ATOM     13  N   LIG    1       -1.288  -0.971  -0.116  0.00  0.00    -0.200 N 
ATOM     14  C   LIG    1       -2.560  -0.303  -0.159  0.00  0.00    +0.417 C 
ATOM     15  O   LIG    1       -2.667   0.911   0.071  0.00  0.00    -0.225 OA
ATOM     16  H   LIG    1       -1.219  -1.980  -0.312  0.00  0.00    +0.176 HD
BRANCH  14  17
ATOM     17  O   LIG    1       -3.730  -0.997  -0.464  0.00  0.00    -0.450 OA
BRANCH  17  18
ATOM     18  C   LIG    1       -4.974  -0.316  -0.499  0.00  0.00    +0.230 C 
ATOM     19  C   LIG    1       -5.285   0.317   0.846  0.00  0.00    +0.048 C 
ENDBRANCH  17  18
ENDBRANCH  14  17
ENDBRANCH  11  13
ENDBRANCH   1  11
TORSDOF 4
