REMARK  Name = molecules/WHBIGIKBNXZKFE-UHFFFAOYSA-N.pdb
REMARK                            x       y       z     vdW  Elec       q    Type
REMARK                         _______ _______ _______ _____ _____    ______ ____
ROOT
ATOM      1  N   LIG    1       -2.517  -0.217  -0.397  0.00  0.00    -0.311 N 
ATOM      2  C   LIG    1       -2.521   0.262   0.943  0.00  0.00    +0.125 C 
ATOM      3  C   LIG    1       -1.675   1.541   1.049  0.00  0.00    +0.127 C 
ATOM      4  N   LIG    1       -0.297   1.224   0.632  0.00  0.00    -0.293 N 
ATOM      5  C   LIG    1        0.774   1.554   1.456  0.00  0.00    +0.263 C 
ATOM      6  O   LIG    1        0.455   2.142   2.568  0.00  0.00    -0.268 OA
ATOM      7  C   LIG    1       -0.186   0.571  -0.638  0.00  0.00    +0.127 C 
ATOM      8  C   LIG    1       -1.551   0.420  -1.310  0.00  0.00    +0.125 C 
ENDROOT
BRANCH   5   9
ATOM      9  C   LIG    1        2.182   1.328   1.236  0.00  0.00    +0.103 A 
ATOM     10  N   LIG    1        3.150   1.692   2.126  0.00  0.00    -0.351 N 
ATOM     11  H   LIG    1        2.986   2.176   3.059  0.00  0.00    +0.166 HD
ATOM     12  C   LIG    1        4.362   1.365   1.685  0.00  0.00    +0.047 A 
ATOM     13  C   LIG    1        5.631   1.527   2.230  0.00  0.00    +0.028 A 
ATOM     14  C   LIG    1        6.730   1.087   1.550  0.00  0.00    +0.026 A 
ATOM     15  C   LIG    1        6.610   0.476   0.317  0.00  0.00    +0.048 A 
ATOM     16  C   LIG    1        5.332   0.313  -0.232  0.00  0.00    +0.034 A 
ATOM     17  C   LIG    1        4.228   0.760   0.458  0.00  0.00    +0.002 A 
ATOM     18  C   LIG    1        2.859   0.746   0.195  0.00  0.00    +0.041 A 
BRANCH  15  19
ATOM     19  N   LIG    1        7.723  -0.002  -0.418  0.00  0.00    -0.221 N 
ATOM     20  H   LIG    1        7.801   0.213  -1.457  0.00  0.00    +0.173 HD
BRANCH  19  21
ATOM     21  S   LIG    1        8.953  -0.927   0.352  0.00  0.00    +0.040 S 
ATOM     22  O   LIG    1        9.616  -0.068   1.378  0.00  0.00    -0.155 OA
ATOM     23  C   LIG    1        8.309  -2.440   1.022  0.00  0.00    +0.218 C 
ATOM     24  O   LIG    1       10.021  -1.285  -0.671  0.00  0.00    -0.155 OA
ENDBRANCH  19  21
ENDBRANCH  15  19
ENDBRANCH   5   9
BRANCH   1  26
ATOM     25  C   LIG    1       -4.672  -1.041  -1.111  0.00  0.00    +0.068 A 
ATOM     26  C   LIG    1       -3.336  -1.228  -0.932  0.00  0.00    +0.142 A 
ATOM     27  N   LIG    1       -2.788  -2.437  -1.255  0.00  0.00    -0.238 NA
ATOM     28  C   LIG    1       -3.521  -3.442  -1.740  0.00  0.00    +0.113 A 
ATOM     29  C   LIG    1       -4.869  -3.296  -1.934  0.00  0.00    +0.022 A 
ATOM     30  C   LIG    1       -5.454  -2.088  -1.619  0.00  0.00    +0.028 A 
BRANCH  25  31
ATOM     31  N   LIG    1       -5.262   0.205  -0.817  0.00  0.00    -0.339 N 
ATOM     32  H   LIG    1       -4.675   0.995  -0.503  0.00  0.00    +0.146 HD
BRANCH  31  33
ATOM     33  C   LIG    1       -6.686   0.453  -0.946  0.00  0.00    +0.064 C 
ATOM     34  C   LIG    1       -7.539  -0.427  -0.094  0.00  0.00    +0.027 C 
ATOM     35  C   LIG    1       -7.024   1.908  -0.727  0.00  0.00    +0.027 C 
ENDBRANCH  31  33
ENDBRANCH  25  31
ENDBRANCH   1  26
TORSDOF 6
