REMARK  Name = molecules/WHGYBXFWUBPSRW-FOUAGVGXSA-N.pdb
REMARK                            x       y       z     vdW  Elec       q    Type
REMARK                         _______ _______ _______ _____ _____    ______ ____
ROOT
ATOM      1  C   LIG    1        0.719   4.751  -1.471  0.00  0.00    +0.178 C 
ATOM      2  C   LIG    1       -0.378   5.226  -0.533  0.00  0.00    +0.183 C 
ATOM      3  C   LIG    1        0.121   5.950   0.669  0.00  0.00    +0.179 C 
ATOM      4  C   LIG    1        1.534   6.403   0.605  0.00  0.00    +0.201 C 
ATOM      5  C   LIG    1        2.470   5.523  -0.146  0.00  0.00    +0.282 C 
ATOM      6  O   LIG    1        3.502   5.021   0.651  0.00  0.00    -0.340 OA
ATOM      7  C   LIG    1        3.857   3.730   0.278  0.00  0.00    +0.183 C 
ATOM      8  C   LIG    1        4.611   2.984   1.357  0.00  0.00    +0.178 C 
ATOM      9  O   LIG    1        4.532   1.636   1.014  0.00  0.00    -0.341 OA
ATOM     10  C   LIG    1        4.998   1.344  -0.240  0.00  0.00    +0.282 C 
ATOM     11  O   LIG    1        5.847   0.257  -0.151  0.00  0.00    -0.340 OA
ATOM     12  C   LIG    1        5.083  -0.899  -0.009  0.00  0.00    +0.183 C 
ATOM     13  C   LIG    1        5.423  -1.701   1.199  0.00  0.00    +0.178 C 
ATOM     14  O   LIG    1        4.423  -2.591   1.475  0.00  0.00    -0.341 OA
ATOM     15  C   LIG    1        3.832  -3.143   0.324  0.00  0.00    +0.282 C 
ATOM     16  O   LIG    1        3.404  -4.391   0.661  0.00  0.00    -0.340 OA
ATOM     17  C   LIG    1        2.871  -5.154  -0.328  0.00  0.00    +0.183 C 
ATOM     18  C   LIG    1        2.477  -6.499   0.302  0.00  0.00    +0.179 C 
ATOM     19  C   LIG    1        1.188  -6.367   1.080  0.00  0.00    +0.201 C 
ATOM     20  C   LIG    1        0.096  -5.774   0.212  0.00  0.00    +0.282 C 
ATOM     21  O   LIG    1       -1.032  -5.598   0.989  0.00  0.00    -0.340 OA
ATOM     22  C   LIG    1       -1.997  -4.792   0.382  0.00  0.00    +0.183 C 
ATOM     23  C   LIG    1       -2.925  -4.311   1.447  0.00  0.00    +0.178 C 
ATOM     24  O   LIG    1       -4.185  -3.982   1.016  0.00  0.00    -0.341 OA
ATOM     25  C   LIG    1       -4.143  -3.659  -0.354  0.00  0.00    +0.282 C 
ATOM     26  O   LIG    1       -5.276  -2.934  -0.740  0.00  0.00    -0.340 OA
ATOM     27  C   LIG    1       -4.958  -1.601  -0.678  0.00  0.00    +0.183 C 
ATOM     28  C   LIG    1       -6.195  -0.728  -0.465  0.00  0.00    +0.178 C 
ATOM     29  O   LIG    1       -5.978   0.578  -0.833  0.00  0.00    -0.341 OA
ATOM     30  C   LIG    1       -4.666   0.993  -0.622  0.00  0.00    +0.282 C 
ATOM     31  O   LIG    1       -4.465   2.308  -0.802  0.00  0.00    -0.340 OA
ATOM     32  C   LIG    1       -4.877   3.188   0.143  0.00  0.00    +0.183 C 
ATOM     33  C   LIG    1       -4.160   2.997   1.455  0.00  0.00    +0.179 C 
ATOM     34  C   LIG    1       -2.704   3.207   1.247  0.00  0.00    +0.201 C 
ATOM     35  C   LIG    1       -2.329   4.395   0.426  0.00  0.00    +0.282 C 
ATOM     36  O   LIG    1       -3.149   4.686  -0.619  0.00  0.00    -0.341 OA
ATOM     37  C   LIG    1       -4.489   4.568  -0.413  0.00  0.00    +0.178 C 
ATOM     38  C   LIG    1       -3.822   0.287  -1.699  0.00  0.00    +0.201 C 
ATOM     39  C   LIG    1       -4.348  -1.082  -1.986  0.00  0.00    +0.179 C 
ATOM     40  C   LIG    1       -4.023  -4.966  -1.095  0.00  0.00    +0.201 C 
ATOM     41  C   LIG    1       -2.716  -5.604  -0.670  0.00  0.00    +0.179 C 
ATOM     42  O   LIG    1        0.531  -4.553  -0.234  0.00  0.00    -0.341 OA
ATOM     43  C   LIG    1        1.671  -4.598  -1.013  0.00  0.00    +0.178 C 
ATOM     44  C   LIG    1        4.815  -3.185  -0.824  0.00  0.00    +0.201 C 
ATOM     45  C   LIG    1        5.301  -1.823  -1.214  0.00  0.00    +0.179 C 
ATOM     46  C   LIG    1        5.653   2.495  -0.954  0.00  0.00    +0.201 C 
ATOM     47  C   LIG    1        4.746   3.702  -0.957  0.00  0.00    +0.179 C 
ATOM     48  O   LIG    1       -1.059   4.096  -0.111  0.00  0.00    -0.340 OA
ATOM     49  O   LIG    1        1.868   4.482  -0.787  0.00  0.00    -0.341 OA
ENDROOT
BRANCH  47  50
ATOM     50  O   LIG    1        4.014   3.753  -2.130  0.00  0.00    -0.386 OA
ATOM     51  H   LIG    1        3.808   2.860  -2.499  0.00  0.00    +0.210 HD
ENDBRANCH  47  50
BRANCH  46  52
ATOM     52  O   LIG    1        6.919   2.787  -0.477  0.00  0.00    -0.384 OA
ATOM     53  H   LIG    1        7.422   1.927  -0.468  0.00  0.00    +0.210 HD
ENDBRANCH  46  52
BRANCH  45  54
ATOM     54  O   LIG    1        4.668  -1.325  -2.345  0.00  0.00    -0.386 OA
ATOM     55  H   LIG    1        4.464  -2.099  -2.954  0.00  0.00    +0.210 HD
ENDBRANCH  45  54
BRANCH  44  56
ATOM     56  O   LIG    1        5.842  -4.055  -0.467  0.00  0.00    -0.384 OA
ATOM     57  H   LIG    1        5.631  -4.557   0.371  0.00  0.00    +0.210 HD
ENDBRANCH  44  56
BRANCH  18  58
ATOM     58  O   LIG    1        2.458  -7.517  -0.622  0.00  0.00    -0.386 OA
ATOM     59  H   LIG    1        1.869  -8.237  -0.342  0.00  0.00    +0.210 HD
ENDBRANCH  18  58
BRANCH  41  60
ATOM     60  O   LIG    1       -1.942  -5.733  -1.824  0.00  0.00    -0.386 OA
ATOM     61  H   LIG    1       -2.353  -6.450  -2.368  0.00  0.00    +0.210 HD
ENDBRANCH  41  60
BRANCH  40  62
ATOM     62  O   LIG    1       -5.062  -5.798  -0.686  0.00  0.00    -0.384 OA
ATOM     63  H   LIG    1       -5.787  -5.816  -1.359  0.00  0.00    +0.210 HD
ENDBRANCH  40  62
BRANCH  39  64
ATOM     64  O   LIG    1       -3.420  -1.935  -2.513  0.00  0.00    -0.386 OA
ATOM     65  H   LIG    1       -3.836  -2.572  -3.118  0.00  0.00    +0.210 HD
ENDBRANCH  39  64
BRANCH  38  66
ATOM     66  O   LIG    1       -4.003   1.063  -2.861  0.00  0.00    -0.384 OA
ATOM     67  H   LIG    1       -4.832   0.816  -3.329  0.00  0.00    +0.210 HD
ENDBRANCH  38  66
BRANCH  34  68
ATOM     68  O   LIG    1       -2.072   2.046   0.741  0.00  0.00    -0.384 OA
ATOM     69  H   LIG    1       -1.924   2.240  -0.218  0.00  0.00    +0.210 HD
ENDBRANCH  34  68
BRANCH  33  70
ATOM     70  O   LIG    1       -4.609   3.826   2.450  0.00  0.00    -0.386 OA
ATOM     71  H   LIG    1       -3.893   3.967   3.125  0.00  0.00    +0.210 HD
ENDBRANCH  33  70
BRANCH  19  72
ATOM     72  O   LIG    1        1.438  -5.482   2.129  0.00  0.00    -0.384 OA
ATOM     73  H   LIG    1        0.560  -5.298   2.562  0.00  0.00    +0.210 HD
ENDBRANCH  19  72
BRANCH   4  74
ATOM     74  O   LIG    1        2.006   6.463   1.939  0.00  0.00    -0.384 OA
ATOM     75  H   LIG    1        1.245   6.502   2.580  0.00  0.00    +0.210 HD
ENDBRANCH   4  74
BRANCH   3  76
ATOM     76  O   LIG    1       -0.692   7.097   0.825  0.00  0.00    -0.386 OA
ATOM     77  H   LIG    1       -0.779   7.354   1.768  0.00  0.00    +0.210 HD
ENDBRANCH   3  76
BRANCH  37  78
ATOM     78  C   LIG    1       -5.103   5.682   0.379  0.00  0.00    +0.190 C 
BRANCH  78  79
ATOM     79  O   LIG    1       -6.469   5.443   0.519  0.00  0.00    -0.392 OA
ATOM     80  H   LIG    1       -6.736   5.259   1.442  0.00  0.00    +0.210 HD
ENDBRANCH  78  79
ENDBRANCH  37  78
BRANCH  28  81
ATOM     81  C   LIG    1       -6.761  -0.896   0.912  0.00  0.00    +0.190 C 
BRANCH  81  82
ATOM     82  O   LIG    1       -7.985  -0.228   0.950  0.00  0.00    -0.392 OA
ATOM     83  H   LIG    1       -8.011   0.498   0.266  0.00  0.00    +0.210 HD
ENDBRANCH  81  82
ENDBRANCH  28  81
BRANCH  23  84
ATOM     84  C   LIG    1       -2.248  -3.195   2.207  0.00  0.00    +0.190 C 
BRANCH  84  85
ATOM     85  O   LIG    1       -2.979  -2.835   3.347  0.00  0.00    -0.392 OA
ATOM     86  H   LIG    1       -3.307  -3.614   3.840  0.00  0.00    +0.210 HD
ENDBRANCH  84  85
ENDBRANCH  23  84
BRANCH  43  87
ATOM     87  C   LIG    1        1.441  -5.354  -2.322  0.00  0.00    +0.190 C 
BRANCH  87  88
ATOM     88  O   LIG    1        2.620  -5.355  -3.040  0.00  0.00    -0.392 OA
ATOM     89  H   LIG    1        3.128  -6.217  -2.951  0.00  0.00    +0.210 HD
ENDBRANCH  87  88
ENDBRANCH  43  87
BRANCH  13  90
ATOM     90  C   LIG    1        5.722  -0.882   2.424  0.00  0.00    +0.190 C 
BRANCH  90  91
ATOM     91  O   LIG    1        6.124  -1.794   3.427  0.00  0.00    -0.392 OA
ATOM     92  H   LIG    1        6.199  -2.706   3.097  0.00  0.00    +0.210 HD
ENDBRANCH  90  91
ENDBRANCH  13  90
BRANCH   8  93
ATOM     93  C   LIG    1        4.005   3.133   2.721  0.00  0.00    +0.190 C 
BRANCH  93  94
ATOM     94  O   LIG    1        4.076   4.474   3.087  0.00  0.00    -0.392 OA
ATOM     95  H   LIG    1        5.026   4.748   2.997  0.00  0.00    +0.210 HD
ENDBRANCH  93  94
ENDBRANCH   8  93
BRANCH   1  96
ATOM     96  C   LIG    1        0.878   5.655  -2.668  0.00  0.00    +0.190 C 
BRANCH  96  97
ATOM     97  O   LIG    1        1.372   6.901  -2.391  0.00  0.00    -0.392 OA
ATOM     98  H   LIG    1        0.650   7.549  -2.190  0.00  0.00    +0.210 HD
ENDBRANCH  96  97
ENDBRANCH   1  96
TORSDOF 28
