REMARK  Name = molecules/WHQCHUCQKNIQEC-UHFFFAOYSA-N.pdb
REMARK                            x       y       z     vdW  Elec       q    Type
REMARK                         _______ _______ _______ _____ _____    ______ ____
ROOT
ATOM      1  C   LIG    1        0.497  -0.955  -0.582  0.00  0.00    +0.198 C 
ATOM      2  O   LIG    1        0.519  -2.140  -1.163  0.00  0.00    -0.213 OA
ENDROOT
BRANCH   1   3
ATOM      3  C   LIG    1       -0.799  -0.393  -0.472  0.00  0.00    +0.044 A 
ATOM      4  C   LIG    1       -1.918  -1.073  -0.018  0.00  0.00    +0.027 A 
ATOM      5  C   LIG    1       -2.103  -2.376   0.464  0.00  0.00    +0.012 A 
ATOM      6  C   LIG    1       -3.379  -2.798   0.837  0.00  0.00    +0.001 A 
ATOM      7  C   LIG    1       -4.460  -1.981   0.741  0.00  0.00    +0.004 A 
ATOM      8  C   LIG    1       -4.260  -0.710   0.266  0.00  0.00    +0.047 A 
ATOM      9  C   LIG    1       -3.021  -0.251  -0.110  0.00  0.00    +0.136 A 
ATOM     10  O   LIG    1       -2.606   0.875  -0.583  0.00  0.00    -0.459 OA
ATOM     11  C   LIG    1       -1.296   0.834  -0.812  0.00  0.00    +0.113 A 
BRANCH  11  12
ATOM     12  C   LIG    1       -0.574   2.005  -1.352  0.00  0.00    +0.071 C 
ATOM     13  C   LIG    1       -1.204   3.259  -0.730  0.00  0.00    +0.012 C 
ENDBRANCH  11  12
ENDBRANCH   1   3
BRANCH   1  14
ATOM     14  C   LIG    1        1.797  -0.474  -0.165  0.00  0.00    -0.002 A 
ATOM     15  C   LIG    1        2.029   0.306   0.963  0.00  0.00    +0.026 A 
ATOM     16  C   LIG    1        3.330   0.648   1.289  0.00  0.00    +0.061 A 
ATOM     17 BR   LIG    1        3.730   1.789   2.787  0.00  0.00    -0.046 Br
ATOM     18  C   LIG    1        4.439   0.239   0.535  0.00  0.00    +0.145 A 
ATOM     19  C   LIG    1        4.197  -0.545  -0.592  0.00  0.00    +0.061 A 
ATOM     20 BR   LIG    1        5.674  -1.104  -1.663  0.00  0.00    -0.046 Br
ATOM     21  C   LIG    1        2.917  -0.876  -0.916  0.00  0.00    +0.026 A 
BRANCH  18  22
ATOM     22  O   LIG    1        5.715   0.612   0.889  0.00  0.00    -0.505 OA
ATOM     23  H   LIG    1        6.488   0.258   0.341  0.00  0.00    +0.292 HD
ENDBRANCH  18  22
ENDBRANCH   1  14
TORSDOF 4
