REMARK  Name = molecules/WHSOLWOTCHFFBK-ZQGJOIPISA-N.pdb
REMARK                            x       y       z     vdW  Elec       q    Type
REMARK                         _______ _______ _______ _____ _____    ______ ____
ROOT
ATOM      1  C   LIG    1        0.578  -0.843  -0.979  0.00  0.00    -0.040 A 
ATOM      2  C   LIG    1       -0.666  -0.327  -0.559  0.00  0.00    +0.012 A 
ATOM      3  C   LIG    1       -1.668  -1.159  -0.082  0.00  0.00    +0.010 A 
ATOM      4  C   LIG    1       -1.440  -2.520  -0.015  0.00  0.00    +0.125 A 
ATOM      5  C   LIG    1       -0.221  -3.000  -0.425  0.00  0.00    +0.049 A 
ATOM      6  C   LIG    1        0.818  -2.199  -0.913  0.00  0.00    -0.043 A 
ATOM      7  C   LIG    1        2.103  -2.844  -1.320  0.00  0.00    +0.044 C 
ENDROOT
BRANCH   3   8
ATOM      8  C   LIG    1       -3.025  -0.635   0.150  0.00  0.00    +0.111 C 
ATOM      9  C   LIG    1       -3.067   0.570   1.055  0.00  0.00    +0.163 C 
ATOM     10  C   LIG    1       -4.485   0.927   1.409  0.00  0.00    +0.174 C 
ATOM     11  C   LIG    1       -5.408   1.106   0.279  0.00  0.00    +0.161 C 
ATOM     12  C   LIG    1       -4.785   1.379  -1.063  0.00  0.00    +0.103 C 
ATOM     13  S   LIG    1       -3.549   0.148  -1.495  0.00  0.00    -0.142 S 
BRANCH   9  14
ATOM     14  O   LIG    1       -2.451   0.258   2.301  0.00  0.00    -0.388 OA
ATOM     15  H   LIG    1       -2.631  -0.685   2.566  0.00  0.00    +0.210 HD
ENDBRANCH   9  14
BRANCH  10  16
ATOM     16  O   LIG    1       -4.524   1.974   2.315  0.00  0.00    -0.387 OA
ATOM     17  H   LIG    1       -5.314   1.944   2.924  0.00  0.00    +0.210 HD
ENDBRANCH  10  16
BRANCH  11  18
ATOM     18  O   LIG    1       -6.327   0.036   0.102  0.00  0.00    -0.388 OA
ATOM     19  H   LIG    1       -6.131  -0.468  -0.733  0.00  0.00    +0.210 HD
ENDBRANCH  11  18
BRANCH  12  20
ATOM     20  C   LIG    1       -4.436   2.803  -1.353  0.00  0.00    +0.172 C 
BRANCH  20  21
ATOM     21  O   LIG    1       -3.564   3.437  -0.534  0.00  0.00    -0.394 OA
ATOM     22  H   LIG    1       -4.106   3.741   0.268  0.00  0.00    +0.209 HD
ENDBRANCH  20  21
ENDBRANCH  12  20
ENDBRANCH   3   8
BRANCH   4  23
ATOM     23  O   LIG    1       -2.421  -3.339   0.461  0.00  0.00    -0.495 OA
ATOM     24  C   LIG    1       -2.398  -4.709   0.618  0.00  0.00    +0.277 C 
ENDBRANCH   4  23
BRANCH   1  25
ATOM     25  C   LIG    1        1.552   0.044  -1.627  0.00  0.00    +0.070 C 
BRANCH  25  31
ATOM     26  C   LIG    1        3.959  -0.037  -1.023  0.00  0.00    +0.007 A 
ATOM     27  C   LIG    1        5.095   0.553  -0.445  0.00  0.00    +0.046 A 
ATOM     28  C   LIG    1        4.984   1.756   0.210  0.00  0.00    +0.121 A 
ATOM     29  C   LIG    1        3.724   2.353   0.280  0.00  0.00    +0.046 A 
ATOM     30  C   LIG    1        2.631   1.776  -0.279  0.00  0.00    +0.007 A 
ATOM     31  C   LIG    1        2.713   0.540  -0.962  0.00  0.00    -0.043 A 
BRANCH  28  32
ATOM     32  O   LIG    1        6.064   2.379   0.778  0.00  0.00    -0.492 OA
BRANCH  32  33
ATOM     33  C   LIG    1        7.361   1.959   0.831  0.00  0.00    +0.225 C 
ATOM     34  C   LIG    1        7.487   0.672   1.641  0.00  0.00    +0.048 C 
ENDBRANCH  32  33
ENDBRANCH  28  32
ENDBRANCH  25  31
ENDBRANCH   1  25
TORSDOF 11
