REMARK  Name = molecules/WHUUTDBJXJRKMK-VKHMYHEASA-N.pdb
REMARK                            x       y       z     vdW  Elec       q    Type
REMARK                         _______ _______ _______ _____ _____    ______ ____
ROOT
ATOM      1  CA  GLU A  1       -1.093   0.227  -0.676  0.00  0.00    +0.161 C 
ENDROOT
BRANCH   1   2
ATOM      2  N   GLU A  1       -1.855   1.448  -0.512  0.00  0.00    -0.318 NA
ATOM      3  H1  GLU A  1       -2.722   1.320   0.011  0.00  0.00    +0.119 HD
ATOM      4  H2  GLU A  1       -1.280   2.263  -0.230  0.00  0.00    +0.119 HD
ENDBRANCH   1   2
BRANCH   1   5
ATOM      5  C   GLU A  1       -1.782  -0.812   0.124  0.00  0.00    +0.322 C 
ATOM      6  O   GLU A  1       -1.384  -2.001   0.180  0.00  0.00    -0.249 OA
BRANCH   5   7
ATOM      7  OXT GLU A  1       -2.935  -0.541   0.881  0.00  0.00    -0.480 OA
ATOM      8  HXT GLU A  1       -2.909  -0.450   1.872  0.00  0.00    +0.295 HD
ENDBRANCH   5   7
ENDBRANCH   1   5
BRANCH   1   9
ATOM      9  CB  GLU A  1        0.323   0.471  -0.304  0.00  0.00    +0.041 C 
BRANCH   9  10
ATOM     10  CG  GLU A  1        1.243  -0.695  -0.422  0.00  0.00    +0.122 C 
BRANCH  10  11
ATOM     11  CD  GLU A  1        2.635  -0.359  -0.039  0.00  0.00    +0.305 C 
ATOM     12  OE1 GLU A  1        3.426   0.211  -0.824  0.00  0.00    -0.251 OA
BRANCH  11  13
ATOM     13  OE2 GLU A  1        3.078  -0.686   1.228  0.00  0.00    -0.481 OA
ATOM     14  HE2 GLU A  1        3.193   0.064   1.920  0.00  0.00    +0.295 HD
ENDBRANCH  11  13
ENDBRANCH  10  11
ENDBRANCH   9  10
ENDBRANCH   1   9
TORSDOF 7
