REMARK  Name = molecules/WHXMKTBCFHIYNQ-SECBINFHSA-N.pdb
REMARK                            x       y       z     vdW  Elec       q    Type
REMARK                         _______ _______ _______ _____ _____    ______ ____
ROOT
ATOM      1  C   LIG    1       -0.390  -0.651  -0.191  0.00  0.00    -0.002 A 
ATOM      2  C   LIG    1        0.678  -1.343   0.380  0.00  0.00    +0.011 A 
ATOM      3  C   LIG    1        1.967  -1.294  -0.084  0.00  0.00    +0.025 A 
ATOM      4  C   LIG    1        2.193  -0.503  -1.189  0.00  0.00    +0.048 A 
ATOM      5  C   LIG    1        1.160   0.188  -1.771  0.00  0.00    +0.025 A 
ATOM      6  C   LIG    1       -0.149   0.128  -1.285  0.00  0.00    +0.011 A 
ENDROOT
BRANCH   1  15
ATOM      7  C   LIG    1       -2.663   1.446  -0.302  0.00  0.00    +0.014 C 
ATOM      8  C   LIG    1       -2.914  -0.011  -0.002  0.00  0.00    +0.046 C 
ATOM      9  C   LIG    1       -3.924   0.030   1.161  0.00  0.00    +0.107 C 
ATOM     10  C   LIG    1       -4.203  -1.352   1.576  0.00  0.00    +0.233 C 
ATOM     11  N   LIG    1       -3.029  -2.113   1.907  0.00  0.00    -0.207 N 
ATOM     12  H   LIG    1       -3.079  -2.889   2.609  0.00  0.00    +0.177 HD
ATOM     13  N   LIG    1       -1.867  -1.758   1.240  0.00  0.00    -0.184 NA
ATOM     14  O   LIG    1       -5.347  -1.872   1.650  0.00  0.00    -0.274 OA
ATOM     15  C   LIG    1       -1.754  -0.803   0.352  0.00  0.00    +0.070 C 
ENDBRANCH   1  15
BRANCH   4  16
ATOM     16  N   LIG    1        3.519  -0.385  -1.720  0.00  0.00    -0.236 N 
ATOM     17  H   LIG    1        3.864  -1.150  -2.325  0.00  0.00    +0.174 HD
BRANCH  16  18
ATOM     18  N   LIG    1        4.336   0.689  -1.456  0.00  0.00    -0.160 NA
ATOM     19  C   LIG    1        5.062   0.858  -0.412  0.00  0.00    +0.234 C 
BRANCH  19  20
ATOM     20  C   LIG    1        5.100  -0.106   0.645  0.00  0.00    +0.132 C 
ATOM     21  N   LIG    1        5.131  -0.872   1.515  0.00  0.00    -0.188 NA
ENDBRANCH  19  20
BRANCH  19  22
ATOM     22  C   LIG    1        5.854   2.046  -0.296  0.00  0.00    +0.132 C 
ATOM     23  N   LIG    1        6.479   3.016  -0.208  0.00  0.00    -0.188 NA
ENDBRANCH  19  22
ENDBRANCH  16  18
ENDBRANCH   4  16
TORSDOF 5
