REMARK  Name = molecules/WIGIZIANZCJQQY-RUCARUNLSA-N.pdb
REMARK                            x       y       z     vdW  Elec       q    Type
REMARK                         _______ _______ _______ _____ _____    ______ ____
ROOT
ATOM      1  C   LIG    1       -1.246  -0.144  -0.916  0.00  0.00    -0.046 A 
ATOM      2  C   LIG    1       -0.372  -1.166  -0.688  0.00  0.00    +0.005 A 
ATOM      3  C   LIG    1        0.929  -1.114  -1.239  0.00  0.00    +0.029 A 
ATOM      4  C   LIG    1        1.303  -0.043  -1.993  0.00  0.00    +0.109 A 
ATOM      5  C   LIG    1        0.397   1.004  -2.214  0.00  0.00    +0.029 A 
ATOM      6  C   LIG    1       -0.884   0.936  -1.663  0.00  0.00    +0.005 A 
ENDROOT
BRANCH   4   7
ATOM      7  S   LIG    1        2.820   0.009  -2.820  0.00  0.00    +0.076 S 
ATOM      8  O   LIG    1        3.086  -1.358  -3.438  0.00  0.00    -0.150 OA
ATOM      9  O   LIG    1        2.705   0.954  -4.036  0.00  0.00    -0.150 OA
BRANCH   7  10
ATOM     10  N   LIG    1        4.094   0.511  -1.836  0.00  0.00    -0.169 N 
ATOM     11  C   LIG    1        4.457  -0.060  -0.615  0.00  0.00    +0.319 C 
ATOM     12  N   LIG    1        5.637   0.465   0.079  0.00  0.00    -0.295 N 
ATOM     13  H   LIG    1        6.200   1.242  -0.327  0.00  0.00    +0.151 HD
ATOM     14  O   LIG    1        3.847  -1.004  -0.056  0.00  0.00    -0.251 OA
ATOM     15  H   LIG    1        4.676   1.343  -2.174  0.00  0.00    +0.178 HD
BRANCH  12  16
ATOM     16  C   LIG    1        6.057  -0.096   1.348  0.00  0.00    +0.074 C 
ATOM     17  C   LIG    1        6.555   1.008   2.223  0.00  0.00    +0.022 C 
ATOM     18  C   LIG    1        7.960   1.434   1.904  0.00  0.00    +0.005 C 
ATOM     19  C   LIG    1        8.575   0.917   0.672  0.00  0.00    -0.014 C 
ATOM     20  C   LIG    1       10.080   0.749   0.953  0.00  0.00    +0.007 C 
ATOM     21  C   LIG    1        8.083  -0.336   0.073  0.00  0.00    +0.005 C 
ATOM     22  C   LIG    1        7.181  -1.078   1.009  0.00  0.00    +0.022 C 
ENDBRANCH  12  16
ENDBRANCH   7  10
ENDBRANCH   4   7
BRANCH   1  23
ATOM     23  C   LIG    1       -2.670  -0.227  -0.428  0.00  0.00    +0.054 C 
BRANCH  23  24
ATOM     24  C   LIG    1       -3.339  -1.096  -1.509  0.00  0.00    +0.110 C 
BRANCH  24  33
ATOM     25  C   LIG    1       -5.971  -1.645  -1.535  0.00  0.00    +0.309 C 
ATOM     26  N   LIG    1       -6.850  -1.097  -0.508  0.00  0.00    -0.218 N 
ATOM     27  C   LIG    1       -6.598  -0.237   0.547  0.00  0.00    +0.250 C 
ATOM     28  C   LIG    1       -7.867  -0.002   1.223  0.00  0.00    +0.015 C 
ATOM     29  C   LIG    1       -8.830  -0.671   0.634  0.00  0.00    -0.047 C 
ATOM     30  C   LIG    1      -10.279  -0.690   1.045  0.00  0.00    +0.041 C 
ATOM     31  O   LIG    1       -5.478   0.250   0.859  0.00  0.00    -0.270 OA
ATOM     32  C   LIG    1       -8.273  -1.415  -0.499  0.00  0.00    +0.149 C 
ATOM     33  N   LIG    1       -4.619  -1.363  -1.522  0.00  0.00    -0.299 N 
ATOM     34  H   LIG    1       -4.470  -2.118  -2.676  0.00  0.00    +0.150 HD
ATOM     35  O   LIG    1       -6.555  -2.374  -2.407  0.00  0.00    -0.252 OA
BRANCH  28  36
ATOM     36  C   LIG    1       -8.083   0.881   2.411  0.00  0.00    +0.037 C 
ATOM     37  C   LIG    1       -7.621   2.281   2.053  0.00  0.00    +0.009 C 
ENDBRANCH  28  36
ENDBRANCH  24  33
ENDBRANCH  23  24
ENDBRANCH   1  23
TORSDOF 7
