REMARK  Name = molecules/WIIZWVCIJKGZOK-RKDXNWHRSA-N.pdb
REMARK                            x       y       z     vdW  Elec       q    Type
REMARK                         _______ _______ _______ _____ _____    ______ ____
ROOT
ATOM      1  C   LIG    1        0.170   1.631   0.083  0.00  0.00    +0.167 C 
ENDROOT
BRANCH   1   2
ATOM      2  C   LIG    1        1.107   0.482   0.026  0.00  0.00    -0.017 A 
ATOM      3  C   LIG    1        1.956   0.241   1.084  0.00  0.00    +0.008 A 
ATOM      4  C   LIG    1        2.849  -0.801   1.104  0.00  0.00    +0.033 A 
ATOM      5  C   LIG    1        2.904  -1.647   0.023  0.00  0.00    +0.126 A 
ATOM      6  C   LIG    1        2.046  -1.404  -1.047  0.00  0.00    +0.033 A 
ATOM      7  C   LIG    1        1.151  -0.357  -1.063  0.00  0.00    +0.008 A 
BRANCH   5   8
ATOM      8  N   LIG    1        3.813  -2.737   0.001  0.00  0.00    +0.056 N 
ATOM      9  O   LIG    1        4.553  -2.910   0.975  0.00  0.00    -0.126 OA
ATOM     10  O   LIG    1        3.822  -3.548  -1.106  0.00  0.00    -0.126 OA
ENDBRANCH   5   8
ENDBRANCH   1   2
BRANCH   1  11
ATOM     11  O   LIG    1        0.163   2.340  -1.127  0.00  0.00    -0.385 OA
ATOM     12  H   LIG    1        0.649   3.197  -1.069  0.00  0.00    +0.210 HD
ENDBRANCH   1  11
BRANCH   1  13
ATOM     13  CA  LIG    1       -1.225   1.172   0.449  0.00  0.00    +0.131 C 
BRANCH  13  14
ATOM     14  N   LIG    1       -1.799   0.309  -0.542  0.00  0.00    -0.305 N 
ATOM     15  C   LIG    1       -2.256  -0.981  -0.175  0.00  0.00    +0.246 C 
ATOM     16  O   LIG    1       -2.143  -1.340   1.027  0.00  0.00    -0.273 OA
ATOM     17  H   LIG    1       -1.894   0.598  -1.531  0.00  0.00    +0.149 HD
BRANCH  15  18
ATOM     18  C   LIG    1       -2.860  -1.919  -1.160  0.00  0.00    +0.256 C 
ATOM     19 CL   LIG    1       -3.152  -3.466  -0.342  0.00  0.00    -0.094 Cl
ATOM     20 CL   LIG    1       -1.648  -2.243  -2.446  0.00  0.00    -0.094 Cl
ENDBRANCH  15  18
ENDBRANCH  13  14
BRANCH  13  21
ATOM     21  C   LIG    1       -2.097   2.421   0.542  0.00  0.00    +0.181 C 
BRANCH  21  22
ATOM     22  O   LIG    1       -2.074   3.000  -0.734  0.00  0.00    -0.393 OA
ATOM     23  H   LIG    1       -2.922   3.458  -0.941  0.00  0.00    +0.209 HD
ENDBRANCH  21  22
ENDBRANCH  13  21
ENDBRANCH   1  13
TORSDOF 8
