REMARK  Name = molecules/WIKYUJGCLQQFNW-UHFFFAOYSA-N.pdb
REMARK                            x       y       z     vdW  Elec       q    Type
REMARK                         _______ _______ _______ _____ _____    ______ ____
ROOT
ATOM      1  N   LIG    1       -2.393  -0.201  -0.546  0.00  0.00    -0.313 N 
ATOM      2  C   LIG    1       -3.215  -1.174   0.076  0.00  0.00    +0.046 A 
ATOM      3  C   LIG    1       -4.388  -0.910   0.748  0.00  0.00    +0.034 A 
ATOM      4  C   LIG    1       -5.156  -1.899   1.314  0.00  0.00    +0.018 A 
ATOM      5  C   LIG    1       -4.811  -3.237   1.253  0.00  0.00    +0.021 A 
ATOM      6  C   LIG    1       -3.640  -3.505   0.583  0.00  0.00    +0.043 A 
ATOM      7 CL   LIG    1       -3.171  -5.199   0.482  0.00  0.00    -0.083 Cl
ATOM      8  S   LIG    1       -4.927   0.782   0.911  0.00  0.00    -0.089 S 
ATOM      9  C   LIG    1       -3.768   1.779   0.025  0.00  0.00    +0.020 C 
ATOM     10  C   LIG    1       -4.007   3.109  -0.045  0.00  0.00    +0.013 C 
ATOM     11  C   LIG    1       -3.152   3.966  -0.720  0.00  0.00    +0.001 C 
ATOM     12  C   LIG    1       -2.043   3.445  -1.327  0.00  0.00    -0.002 C 
ATOM     13  C   LIG    1       -1.822   2.083  -1.241  0.00  0.00    +0.007 C 
ATOM     14  C   LIG    1       -2.865  -2.521   0.013  0.00  0.00    +0.044 A 
ATOM     15  C   LIG    1       -2.668   1.209  -0.568  0.00  0.00    +0.115 C 
ENDROOT
BRANCH   1  16
ATOM     16  C   LIG    1       -1.119  -0.559  -1.167  0.00  0.00    +0.108 C 
BRANCH  16  17
ATOM     17  C   LIG    1        0.015  -0.082  -0.268  0.00  0.00    +0.034 C 
BRANCH  17  18
ATOM     18  C   LIG    1        1.344  -0.393  -0.882  0.00  0.00    +0.086 C 
BRANCH  18  23
ATOM     19  C   LIG    1        5.701   1.112   1.195  0.00  0.00    +0.105 C 
ATOM     20  N   LIG    1        4.904  -0.085   1.316  0.00  0.00    -0.303 NA
ATOM     21  C   LIG    1        3.638   0.111   1.962  0.00  0.00    +0.099 C 
ATOM     22  C   LIG    1        2.585  -0.640   1.165  0.00  0.00    +0.100 C 
ATOM     23  N   LIG    1        2.454   0.073  -0.087  0.00  0.00    -0.300 NA
ATOM     24  C   LIG    1        3.688  -0.154  -0.825  0.00  0.00    +0.100 C 
ATOM     25  C   LIG    1        4.802  -0.680   0.014  0.00  0.00    +0.099 C 
ENDBRANCH  18  23
ENDBRANCH  17  18
ENDBRANCH  16  17
ENDBRANCH   1  16
TORSDOF 4
