REMARK  Name = molecules/WILANEPAIMJUCP-HNAYVOBHSA-N.pdb
REMARK                            x       y       z     vdW  Elec       q    Type
REMARK                         _______ _______ _______ _____ _____    ______ ____
ROOT
ATOM      1  C   LIG    1       -0.924  -0.448   0.505  0.00  0.00    +0.117 C 
ATOM      2  C   LIG    1       -1.063  -0.356   2.012  0.00  0.00    +0.052 C 
ENDROOT
BRANCH   1   3
ATOM      3  C   LIG    1       -1.033   0.922  -0.041  0.00  0.00    -0.012 A 
ATOM      4  C   LIG    1       -1.182   2.027   0.800  0.00  0.00    +0.008 A 
ATOM      5  C   LIG    1       -1.283   3.303   0.297  0.00  0.00    +0.020 A 
ATOM      6  C   LIG    1       -1.239   3.541  -1.065  0.00  0.00    +0.041 A 
ATOM      7 CL   LIG    1       -1.363   5.144  -1.739  0.00  0.00    -0.084 Cl
ATOM      8  C   LIG    1       -1.094   2.476  -1.918  0.00  0.00    +0.020 A 
ATOM      9  C   LIG    1       -0.996   1.209  -1.397  0.00  0.00    +0.008 A 
ENDBRANCH   1   3
BRANCH   1  10
ATOM     10  C   LIG    1       -2.067  -1.302   0.057  0.00  0.00    -0.012 A 
ATOM     11  C   LIG    1       -1.988  -2.640   0.401  0.00  0.00    +0.007 A 
ATOM     12  C   LIG    1       -3.022  -3.463   0.005  0.00  0.00    +0.000 A 
ATOM     13  C   LIG    1       -4.117  -2.990  -0.716  0.00  0.00    +0.000 A 
ATOM     14  C   LIG    1       -4.151  -1.650  -1.035  0.00  0.00    +0.000 A 
ATOM     15  C   LIG    1       -3.133  -0.826  -0.648  0.00  0.00    +0.007 A 
ENDBRANCH   1  10
BRANCH   1  16
ATOM     16  O   LIG    1        0.225  -1.123   0.125  0.00  0.00    -0.360 OA
BRANCH  16  17
ATOM     17  C   LIG    1        1.405  -0.585   0.545  0.00  0.00    +0.131 C 
ATOM     18  C   LIG    1        2.102  -1.635   1.424  0.00  0.00    +0.039 C 
BRANCH  17  19
ATOM     19  C   LIG    1        2.280  -0.308  -0.662  0.00  0.00    +0.115 C 
BRANCH  19  20
ATOM     20  N   LIG    1        3.552   0.267  -0.265  0.00  0.00    -0.306 NA
ATOM     21  C   LIG    1        3.396   1.447   0.551  0.00  0.00    +0.104 C 
ATOM     22  C   LIG    1        4.402   0.541  -1.388  0.00  0.00    +0.104 C 
ENDBRANCH  19  20
ENDBRANCH  17  19
ENDBRANCH  16  17
ENDBRANCH   1  16
TORSDOF 6
