REMARK  Name = molecules/WINHZLLDWRZWRT-ATVHPVEESA-N.pdb
REMARK                            x       y       z     vdW  Elec       q    Type
REMARK                         _______ _______ _______ _____ _____    ______ ____
ROOT
ATOM      1  C   LIG    1       -0.053  -0.185   1.167  0.00  0.00    +0.060 A 
ATOM      2  C   LIG    1       -0.501  -1.319   1.836  0.00  0.00    +0.026 A 
ATOM      3  C   LIG    1        0.402  -2.341   2.426  0.00  0.00    +0.064 C 
ATOM      4  N   LIG    1       -1.842  -1.337   1.861  0.00  0.00    -0.358 N 
ATOM      5  H   LIG    1       -2.437  -2.084   2.326  0.00  0.00    +0.166 HD
ATOM      6  C   LIG    1       -2.337  -0.278   1.244  0.00  0.00    +0.044 A 
ATOM      7  C   LIG    1       -1.220   0.462   0.800  0.00  0.00    -0.013 A 
ATOM      8  C   LIG    1       -1.341   1.727   0.059  0.00  0.00    +0.047 C 
ENDROOT
BRANCH   6   9
ATOM      9  C   LIG    1       -3.703   0.146   0.977  0.00  0.00    +0.039 C 
ATOM     10  C   LIG    1       -4.648  -0.555   0.423  0.00  0.00    +0.048 C 
ATOM     11  C   LIG    1       -6.042  -0.113   0.172  0.00  0.00    +0.011 A 
ATOM     12  C   LIG    1       -6.681   1.077   0.424  0.00  0.00    +0.048 A 
ATOM     13  C   LIG    1       -8.000   1.243   0.089  0.00  0.00    +0.124 A 
ATOM     14  F   LIG    1       -8.692   2.399   0.312  0.00  0.00    -0.205 F 
ATOM     15  C   LIG    1       -8.699   0.196  -0.511  0.00  0.00    +0.040 A 
ATOM     16  C   LIG    1       -8.031  -0.979  -0.748  0.00  0.00    +0.027 A 
ATOM     17  C   LIG    1       -6.690  -1.177  -0.418  0.00  0.00    +0.042 A 
ATOM     18  N   LIG    1       -5.807  -2.279  -0.567  0.00  0.00    -0.281 N 
ATOM     19  H   LIG    1       -6.016  -3.218  -0.979  0.00  0.00    +0.155 HD
ATOM     20  C   LIG    1       -4.519  -1.923  -0.050  0.00  0.00    +0.249 C 
ATOM     21  O   LIG    1       -3.483  -2.643  -0.013  0.00  0.00    -0.270 OA
ENDBRANCH   6   9
BRANCH   1  23
ATOM     22  N   LIG    1        1.831   1.290   0.267  0.00  0.00    -0.310 N 
ATOM     23  C   LIG    1        1.338   0.182   0.942  0.00  0.00    +0.246 C 
ATOM     24  O   LIG    1        2.199  -0.636   1.441  0.00  0.00    -0.270 OA
ATOM     25  H   LIG    1        1.202   2.005  -0.163  0.00  0.00    +0.149 HD
BRANCH  22  26
ATOM     26  C   LIG    1        3.245   1.529   0.112  0.00  0.00    +0.120 C 
BRANCH  26  27
ATOM     27  C   LIG    1        3.883   0.430  -0.657  0.00  0.00    +0.103 C 
BRANCH  27  28
ATOM     28  N   LIG    1        5.303   0.649  -0.866  0.00  0.00    -0.301 NA
BRANCH  28  29
ATOM     29  C   LIG    1        5.898  -0.566  -1.353  0.00  0.00    +0.081 C 
ATOM     30  C   LIG    1        5.943  -1.674  -0.343  0.00  0.00    +0.020 C 
ENDBRANCH  28  29
BRANCH  28  31
ATOM     31  C   LIG    1        5.600   1.727  -1.748  0.00  0.00    +0.081 C 
ATOM     32  C   LIG    1        7.102   1.859  -1.871  0.00  0.00    +0.020 C 
ENDBRANCH  28  31
ENDBRANCH  27  28
ENDBRANCH  26  27
ENDBRANCH  22  26
ENDBRANCH   1  23
TORSDOF 7
