REMARK  Name = molecules/WJBLNOPPDWQMCH-MBPVOVBZSA-N.pdb
REMARK                            x       y       z     vdW  Elec       q    Type
REMARK                         _______ _______ _______ _____ _____    ______ ____
ROOT
ATOM      1  C   LIG    1       -0.143   0.875   0.345  0.00  0.00    +0.096 C 
ATOM      2  C   LIG    1       -0.904   1.143   1.618  0.00  0.00    +0.042 C 
ATOM      3  C   LIG    1       -1.953   2.177   1.309  0.00  0.00    +0.037 C 
ATOM      4  C   LIG    1       -2.727   1.862   0.084  0.00  0.00    -0.036 C 
ATOM      5  C   LIG    1       -3.878   2.512  -0.080  0.00  0.00    +0.011 C 
ATOM      6  C   LIG    1       -2.326   0.906  -0.944  0.00  0.00    +0.213 C 
ATOM      7  O   LIG    1       -3.249  -0.198  -1.082  0.00  0.00    -0.480 OA
ATOM      8  C   LIG    1       -2.837  -1.214  -0.230  0.00  0.00    +0.167 A 
ATOM      9  C   LIG    1       -3.401  -2.327   0.382  0.00  0.00    +0.159 A 
ATOM     10  C   LIG    1       -2.663  -3.154   1.207  0.00  0.00    +0.049 A 
ATOM     11  C   LIG    1       -1.311  -2.860   1.431  0.00  0.00    +0.008 A 
ATOM     12  C   LIG    1       -0.735  -1.764   0.835  0.00  0.00    -0.038 A 
ATOM     13  C   LIG    1        0.663  -1.405   1.047  0.00  0.00    +0.057 C 
ATOM     14  C   LIG    1       -1.524  -1.001   0.039  0.00  0.00    +0.014 A 
ATOM     15  C   LIG    1        1.038  -0.037   0.575  0.00  0.00    +0.094 C 
ATOM     16  N   LIG    1        1.792  -0.083  -0.608  0.00  0.00    -0.296 NA
ATOM     17  C   LIG    1        1.176  -0.239  -1.854  0.00  0.00    +0.086 C 
ATOM     18  C   LIG    1       -0.297  -0.186  -1.916  0.00  0.00    +0.034 C 
ATOM     19  C   LIG    1       -1.005   0.227  -0.674  0.00  0.00    +0.072 C 
ENDROOT
BRANCH   1  20
ATOM     20  O   LIG    1        0.330   2.081  -0.147  0.00  0.00    -0.386 OA
ATOM     21  H   LIG    1       -0.307   2.504  -0.780  0.00  0.00    +0.210 HD
ENDBRANCH   1  20
BRANCH   9  22
ATOM     22  O   LIG    1       -4.747  -2.582   0.131  0.00  0.00    -0.503 OA
ATOM     23  H   LIG    1       -5.322  -2.015  -0.454  0.00  0.00    +0.292 HD
ENDBRANCH   9  22
BRANCH  16  24
ATOM     24  C   LIG    1        3.168  -0.372  -0.475  0.00  0.00    +0.088 C 
BRANCH  24  25
ATOM     25  C   LIG    1        3.974   0.729   0.176  0.00  0.00    +0.003 C 
ATOM     26  C   LIG    1        4.617   0.517   1.510  0.00  0.00    +0.005 C 
ATOM     27  C   LIG    1        5.483   0.361   0.305  0.00  0.00    +0.005 C 
ENDBRANCH  24  25
ENDBRANCH  16  24
TORSDOF 4
