REMARK  Name = molecules/WKEDVNSFRWHDNR-UHFFFAOYSA-N.pdb
REMARK                            x       y       z     vdW  Elec       q    Type
REMARK                         _______ _______ _______ _____ _____    ______ ____
ROOT
ATOM      1  C   LIG    1       -0.424  -0.083  -0.478  0.00  0.00    +0.252 C 
ATOM      2  N   LIG    1        0.514   0.084   0.546  0.00  0.00    -0.281 N 
ATOM      3  H   LIG    1        0.159   0.131   1.534  0.00  0.00    +0.155 HD
ATOM      4  O   LIG    1       -0.076  -0.148  -1.689  0.00  0.00    -0.270 OA
ENDROOT
BRANCH   2   5
ATOM      5  C   LIG    1        1.929   0.201   0.394  0.00  0.00    +0.034 A 
ATOM      6  C   LIG    1        2.716   0.360   1.540  0.00  0.00    +0.023 A 
ATOM      7  C   LIG    1        4.082   0.478   1.462  0.00  0.00    +0.002 A 
ATOM      8  C   LIG    1        4.734   0.444   0.249  0.00  0.00    +0.000 A 
ATOM      9  C   LIG    1        3.992   0.288  -0.895  0.00  0.00    +0.002 A 
ATOM     10  C   LIG    1        2.598   0.171  -0.785  0.00  0.00    +0.023 A 
ENDBRANCH   2   5
BRANCH   1  11
ATOM     11  C   LIG    1       -1.857  -0.190  -0.188  0.00  0.00    +0.078 A 
ATOM     12  C   LIG    1       -2.302  -0.126   1.116  0.00  0.00    +0.017 A 
ATOM     13  C   LIG    1       -3.638  -0.221   1.454  0.00  0.00    +0.001 A 
ATOM     14  C   LIG    1       -4.557  -0.385   0.447  0.00  0.00    +0.004 A 
ATOM     15  C   LIG    1       -4.147  -0.451  -0.854  0.00  0.00    +0.046 A 
ATOM     16  C   LIG    1       -2.771  -0.353  -1.194  0.00  0.00    +0.129 A 
BRANCH  16  17
ATOM     17  O   LIG    1       -2.443  -0.428  -2.507  0.00  0.00    -0.506 OA
ATOM     18  H   LIG    1       -1.644  -0.397  -3.020  0.00  0.00    +0.292 HD
ENDBRANCH  16  17
ENDBRANCH   1  11
TORSDOF 3
