REMARK  Name = molecules/WKEMJKQOLOHJLZ-UHFFFAOYSA-N.pdb
REMARK                            x       y       z     vdW  Elec       q    Type
REMARK                         _______ _______ _______ _____ _____    ______ ____
ROOT
ATOM      1  C   LIG    1        2.299  -1.388  -0.974  0.00  0.00    -0.021 A 
ATOM      2  C   LIG    1        1.155  -0.589  -1.130  0.00  0.00    +0.003 A 
ATOM      3  C   LIG    1        0.543   0.227  -0.207  0.00  0.00    +0.015 A 
ATOM      4  C   LIG    1       -0.603   0.944  -0.575  0.00  0.00    -0.024 A 
ATOM      5  C   LIG    1       -1.054   0.788  -1.856  0.00  0.00    +0.007 A 
ATOM      6  C   LIG    1       -0.434  -0.040  -2.792  0.00  0.00    +0.026 A 
ATOM      7  C   LIG    1        0.686  -0.736  -2.420  0.00  0.00    +0.047 A 
ATOM      8  N   LIG    1        1.521  -1.607  -3.043  0.00  0.00    -0.360 N 
ATOM      9  H   LIG    1        1.423  -1.915  -4.029  0.00  0.00    +0.165 HD
ATOM     10  C   LIG    1        2.484  -2.001  -2.194  0.00  0.00    +0.087 A 
ENDROOT
BRANCH   1  11
ATOM     11  C   LIG    1        3.094  -1.494   0.281  0.00  0.00    +0.052 C 
BRANCH  11  12
ATOM     12  C   LIG    1        3.918  -0.243   0.373  0.00  0.00    +0.088 C 
BRANCH  12  13
ATOM     13  N   LIG    1        4.756  -0.103   1.486  0.00  0.00    -0.308 NA
ATOM     14  C   LIG    1        4.191   0.081   2.763  0.00  0.00    +0.104 C 
ATOM     15  C   LIG    1        6.144   0.026   1.318  0.00  0.00    +0.104 C 
ENDBRANCH  12  13
ENDBRANCH  11  12
ENDBRANCH   1  11
BRANCH   4  16
ATOM     16  C   LIG    1       -1.258   1.832   0.426  0.00  0.00    +0.220 C 
BRANCH  16  17
ATOM     17  S   LIG    1       -2.421   0.961   1.441  0.00  0.00    +0.036 S 
ATOM     18  O   LIG    1       -2.901   1.817   2.579  0.00  0.00    -0.158 OA
ATOM     19  O   LIG    1       -1.671  -0.220   2.049  0.00  0.00    -0.158 OA
BRANCH  17  20
ATOM     20  N   LIG    1       -3.676   0.311   0.501  0.00  0.00    -0.181 NA
ATOM     21  C   LIG    1       -4.603  -0.514   1.239  0.00  0.00    +0.109 C 
ATOM     22  C   LIG    1       -5.916  -0.439   0.490  0.00  0.00    +0.018 C 
ATOM     23  C   LIG    1       -5.608   0.432  -0.707  0.00  0.00    +0.018 C 
ATOM     24  C   LIG    1       -4.472   1.295  -0.197  0.00  0.00    +0.109 C 
ENDBRANCH  17  20
ENDBRANCH  16  17
ENDBRANCH   4  16
TORSDOF 6
