REMARK  Name = molecules/WKGXYQFOCVYPAC-UHFFFAOYSA-N.pdb
REMARK                            x       y       z     vdW  Elec       q    Type
REMARK                         _______ _______ _______ _____ _____    ______ ____
ROOT
ATOM      1  C   LIG    1        0.009  -0.627  -0.782  0.00  0.00    +0.094 C 
ENDROOT
BRANCH   1   2
ATOM      2  C   LIG    1        0.114   0.781  -0.285  0.00  0.00    -0.038 A 
ATOM      3  C   LIG    1       -0.703   1.276   0.708  0.00  0.00    +0.004 A 
ATOM      4  C   LIG    1       -0.554   2.586   1.121  0.00  0.00    +0.000 A 
ATOM      5  C   LIG    1        0.398   3.425   0.564  0.00  0.00    +0.000 A 
ATOM      6  C   LIG    1        1.217   2.940  -0.427  0.00  0.00    +0.000 A 
ATOM      7  C   LIG    1        1.047   1.630  -0.820  0.00  0.00    +0.004 A 
ENDBRANCH   1   2
BRANCH   1   8
ATOM      8  C   LIG    1        0.438  -1.570   0.285  0.00  0.00    +0.245 C 
BRANCH   8   9
ATOM      9  O   LIG    1        1.701  -1.172   0.854  0.00  0.00    -0.450 OA
BRANCH   9  10
ATOM     10  C   LIG    1        2.876  -1.098   0.138  0.00  0.00    +0.398 C 
ATOM     11  N   LIG    1        4.086  -0.682   0.803  0.00  0.00    -0.295 N 
ATOM     12  H   LIG    1        4.282  -1.040   1.755  0.00  0.00    +0.148 HD
ATOM     13  H   LIG    1        4.781  -0.039   0.378  0.00  0.00    +0.148 HD
ATOM     14  O   LIG    1        2.917  -1.385  -1.081  0.00  0.00    -0.227 OA
ENDBRANCH   9  10
ENDBRANCH   8   9
ENDBRANCH   1   8
BRANCH   1  15
ATOM     15  C   LIG    1       -1.254  -0.892  -1.493  0.00  0.00    +0.245 C 
BRANCH  15  16
ATOM     16  O   LIG    1       -2.449  -0.966  -0.847  0.00  0.00    -0.450 OA
BRANCH  16  17
ATOM     17  C   LIG    1       -2.960  -1.851   0.034  0.00  0.00    +0.398 C 
ATOM     18  N   LIG    1       -4.277  -1.621   0.556  0.00  0.00    -0.295 N 
ATOM     19  H   LIG    1       -4.517  -1.733   1.556  0.00  0.00    +0.148 HD
ATOM     20  H   LIG    1       -5.043  -1.326  -0.083  0.00  0.00    +0.148 HD
ATOM     21  O   LIG    1       -2.271  -2.838   0.365  0.00  0.00    -0.227 OA
ENDBRANCH  16  17
ENDBRANCH  15  16
ENDBRANCH   1  15
TORSDOF 7
