REMARK  Name = molecules/WKSAUQYGYAYLPV-UHFFFAOYSA-N.pdb
REMARK                            x       y       z     vdW  Elec       q    Type
REMARK                         _______ _______ _______ _____ _____    ______ ____
ROOT
ATOM      1  C   LIG    1       -1.317   0.529  -0.583  0.00  0.00    +0.056 A 
ATOM      2  C   LIG    1       -0.380  -0.456  -0.396  0.00  0.00    +0.043 A 
ATOM      3  C   LIG    1       -0.774  -1.793  -0.488  0.00  0.00    +0.129 A 
ATOM      4  N   LIG    1       -2.049  -2.056  -0.756  0.00  0.00    -0.199 NA
ATOM      5  C   LIG    1       -2.974  -1.102  -0.941  0.00  0.00    +0.214 A 
ATOM      6  N   LIG    1       -2.584   0.193  -0.849  0.00  0.00    -0.219 NA
ENDROOT
BRANCH   2   7
ATOM      7  C   LIG    1        0.992  -0.157  -0.106  0.00  0.00    -0.013 A 
ATOM      8  C   LIG    1        1.447  -0.255   1.187  0.00  0.00    +0.010 A 
ATOM      9  C   LIG    1        2.768   0.016   1.528  0.00  0.00    +0.020 A 
ATOM     10  C   LIG    1        3.612   0.388   0.520  0.00  0.00    +0.041 A 
ATOM     11 CL   LIG    1        5.283   0.741   0.882  0.00  0.00    -0.084 Cl
ATOM     12  C   LIG    1        3.173   0.491  -0.780  0.00  0.00    +0.020 A 
ATOM     13  C   LIG    1        1.861   0.219  -1.102  0.00  0.00    +0.010 A 
ENDBRANCH   2   7
BRANCH   3  14
ATOM     14  N   LIG    1        0.149  -2.841  -0.306  0.00  0.00    -0.343 N 
ATOM     15  H   LIG    1        0.080  -3.445   0.518  0.00  0.00    +0.144 HD
ATOM     16  H   LIG    1        0.891  -2.995  -1.005  0.00  0.00    +0.144 HD
ENDBRANCH   3  14
BRANCH   5  17
ATOM     17  N   LIG    1       -4.310  -1.484  -1.222  0.00  0.00    -0.327 N 
ATOM     18  H   LIG    1       -5.003  -1.434  -0.458  0.00  0.00    +0.145 HD
ATOM     19  H   LIG    1       -4.579  -1.805  -2.174  0.00  0.00    +0.145 HD
ENDBRANCH   5  17
BRANCH   1  20
ATOM     20  C   LIG    1       -0.932   1.938  -0.493  0.00  0.00    +0.053 C 
ATOM     21  C   LIG    1       -0.748   2.398   0.936  0.00  0.00    +0.010 C 
ENDBRANCH   1  20
TORSDOF 4
