REMARK  Name = molecules/WKWOJBUWWZTUQV-JJXSEGSLSA-N.pdb
REMARK                            x       y       z     vdW  Elec       q    Type
REMARK                         _______ _______ _______ _____ _____    ______ ____
ROOT
ATOM      1  O   LIG    1        0.733   0.413  -0.706  0.00  0.00    -0.459 OA
ENDROOT
BRANCH   1   6
ATOM      2  C   LIG    1       -4.572  -0.420   0.680  0.00  0.00    -0.092 C 
ATOM      3  N   LIG    1       -3.243   0.124   0.363  0.00  0.00    +0.380 N 
ATOM      4  C   LIG    1       -2.318  -0.523   1.238  0.00  0.00    -0.062 C 
ATOM      5  C   LIG    1       -0.886  -0.259   0.984  0.00  0.00    +0.030 C 
ATOM      6  C   LIG    1       -0.586   0.440  -0.306  0.00  0.00    +0.174 C 
ATOM      7  C   LIG    1       -1.555   0.059  -1.425  0.00  0.00    +0.030 C 
ATOM      8  C   LIG    1       -2.611  -1.992   0.887  0.00  0.00    -0.016 C 
ATOM      9  C   LIG    1       -2.755  -1.894  -0.617  0.00  0.00    -0.016 C 
ATOM     10  C   LIG    1       -3.318   1.530   0.461  0.00  0.00    -0.092 C 
ATOM     11  C   LIG    1       -2.879  -0.399  -0.926  0.00  0.00    -0.062 C 
ENDBRANCH   1   6
BRANCH   1  12
ATOM     12  C   LIG    1        1.593   1.489  -0.849  0.00  0.00    +0.341 C 
ATOM     13  O   LIG    1        1.020   2.573  -0.560  0.00  0.00    -0.248 OA
BRANCH  12  14
ATOM     14  C   LIG    1        2.983   1.375  -1.282  0.00  0.00    +0.253 C 
BRANCH  14  15
ATOM     15  C   LIG    1        3.865   0.549  -0.473  0.00  0.00    -0.008 A 
ATOM     16  C   LIG    1        3.428  -0.270   0.536  0.00  0.00    +0.007 A 
ATOM     17  C   LIG    1        4.321  -1.046   1.284  0.00  0.00    +0.000 A 
ATOM     18  C   LIG    1        5.664  -1.005   1.022  0.00  0.00    +0.000 A 
ATOM     19  C   LIG    1        6.118  -0.188   0.012  0.00  0.00    +0.000 A 
ATOM     20  C   LIG    1        5.223   0.573  -0.717  0.00  0.00    +0.007 A 
ENDBRANCH  14  15
BRANCH  14  21
ATOM     21  O   LIG    1        3.549   2.667  -1.373  0.00  0.00    -0.376 OA
ATOM     22  H   LIG    1        4.205   2.727  -2.091  0.00  0.00    +0.211 HD
ENDBRANCH  14  21
ENDBRANCH  12  14
ENDBRANCH   1  12
TORSDOF 5
