REMARK  Name = molecules/WLHQHAUOOXYABV-UHFFFAOYSA-N.pdb
REMARK                            x       y       z     vdW  Elec       q    Type
REMARK                         _______ _______ _______ _____ _____    ______ ____
ROOT
ATOM      1  C   LIG    1       -1.443   0.517  -1.942  0.00  0.00    +0.165 C 
ATOM      2  C   LIG    1       -0.429   0.050  -1.238  0.00  0.00    +0.186 C 
ATOM      3  N   LIG    1       -0.652  -0.360   0.095  0.00  0.00    -0.159 NA
ATOM      4  S   LIG    1       -1.674   0.606   1.056  0.00  0.00    +0.063 S 
ATOM      5  O   LIG    1       -2.223  -0.231   2.174  0.00  0.00    -0.153 OA
ATOM      6  O   LIG    1       -1.020   1.853   1.518  0.00  0.00    -0.153 OA
ATOM      7  C   LIG    1       -3.038   0.991  -0.054  0.00  0.00    +0.120 A 
ATOM      8  C   LIG    1       -4.252   1.356   0.301  0.00  0.00    +0.056 A 
ATOM      9  C   LIG    1       -5.139   1.700  -0.695  0.00  0.00    +0.080 A 
ATOM     10 CL   LIG    1       -6.814   2.228  -0.582  0.00  0.00    -0.076 Cl
ATOM     11  S   LIG    1       -4.206   1.489  -2.103  0.00  0.00    -0.077 S 
ATOM     12  C   LIG    1       -0.147  -1.586   0.644  0.00  0.00    +0.133 C 
ATOM     13  C   LIG    1       -2.706   0.963  -1.372  0.00  0.00    +0.054 A 
ENDROOT
BRANCH   2  14
ATOM     14  C   LIG    1        0.791  -0.312  -1.935  0.00  0.00    +0.246 C 
ATOM     15  N   LIG    1        2.040  -0.661  -1.512  0.00  0.00    -0.269 N 
ATOM     16  H   LIG    1        2.724  -0.947  -2.326  0.00  0.00    +0.156 HD
ATOM     17  O   LIG    1        0.681  -0.342  -3.274  0.00  0.00    -0.273 OA
BRANCH  15  18
ATOM     18  C   LIG    1        2.734  -0.521  -0.308  0.00  0.00    +0.125 A 
ATOM     19  C   LIG    1        2.422   0.275   0.770  0.00  0.00    +0.044 A 
ATOM     20  C   LIG    1        3.136   0.324   1.946  0.00  0.00    +0.005 A 
ATOM     21  C   LIG    1        4.246  -0.471   2.072  0.00  0.00    +0.020 A 
ATOM     22  C   LIG    1        4.580  -1.267   1.021  0.00  0.00    +0.113 A 
ATOM     23  N   LIG    1        3.869  -1.285  -0.087  0.00  0.00    -0.240 NA
ENDBRANCH  15  18
ENDBRANCH   2  14
BRANCH   1  24
ATOM     24  O   LIG    1       -1.362   0.644  -3.350  0.00  0.00    -0.378 OA
ATOM     25  H   LIG    1       -1.927  -0.025  -3.881  0.00  0.00    +0.211 HD
ENDBRANCH   1  24
TORSDOF 3
