REMARK  Name = molecules/WLJVXDMOQOGPHL-UHFFFAOYSA-N.pdb
REMARK                            x       y       z     vdW  Elec       q    Type
REMARK                         _______ _______ _______ _____ _____    ______ ____
ROOT
ATOM      1  C   LIG    1        0.042  -0.143  -0.132  0.00  0.00    -0.037 A 
ATOM      2  C   LIG    1       -0.868  -0.943   0.530  0.00  0.00    +0.004 A 
ATOM      3  C   LIG    1       -2.187  -0.542   0.678  0.00  0.00    +0.000 A 
ATOM      4  C   LIG    1       -2.629   0.661   0.171  0.00  0.00    +0.000 A 
ATOM      5  C   LIG    1       -1.723   1.463  -0.491  0.00  0.00    +0.000 A 
ATOM      6  C   LIG    1       -0.424   1.052  -0.627  0.00  0.00    +0.004 A 
ENDROOT
BRANCH   1   7
ATOM      7  C   LIG    1        1.419  -0.614  -0.258  0.00  0.00    +0.155 C 
BRANCH   7   8
ATOM      8  C   LIG    1        2.307  -0.219   0.830  0.00  0.00    +0.309 C 
ATOM      9  O   LIG    1        1.948   0.470   1.810  0.00  0.00    -0.251 OA
BRANCH   8  10
ATOM     10  O   LIG    1        3.627  -0.628   0.780  0.00  0.00    -0.480 OA
ATOM     11  H   LIG    1        4.192  -0.548  -0.053  0.00  0.00    +0.295 HD
ENDBRANCH   8  10
ENDBRANCH   7   8
ENDBRANCH   1   7
TORSDOF 3
