REMARK  Name = molecules/WLWFNJKHKGIJNW-VIFPVBQESA-N.pdb
REMARK                            x       y       z     vdW  Elec       q    Type
REMARK                         _______ _______ _______ _____ _____    ______ ____
ROOT
ATOM      1  C   LIG    1        0.358  -0.912  -0.015  0.00  0.00    +0.114 C 
ATOM      2  C   LIG    1        0.961  -0.764   1.367  0.00  0.00    +0.113 C 
ATOM      3  C   LIG    1        2.397  -0.549   1.050  0.00  0.00    +0.223 C 
ATOM      4  O   LIG    1        3.405  -0.899   1.749  0.00  0.00    -0.275 OA
ATOM      5  N   LIG    1        2.419   0.130  -0.198  0.00  0.00    -0.245 N 
ATOM      6  C   LIG    1        3.492   0.980  -0.670  0.00  0.00    +0.141 C 
ATOM      7  C   LIG    1        1.236  -0.141  -0.926  0.00  0.00    +0.229 C 
ATOM      8  O   LIG    1        1.017   0.218  -2.100  0.00  0.00    -0.275 OA
ENDROOT
BRANCH   1  13
ATOM      9  C   LIG    1       -3.402  -0.740  -0.443  0.00  0.00    +0.000 A 
ATOM     10  C   LIG    1       -3.680   0.583  -0.167  0.00  0.00    +0.000 A 
ATOM     11  C   LIG    1       -2.614   1.397   0.157  0.00  0.00    +0.000 A 
ATOM     12  C   LIG    1       -1.317   0.923   0.207  0.00  0.00    +0.004 A 
ATOM     13  C   LIG    1       -1.036  -0.400  -0.068  0.00  0.00    -0.035 A 
ATOM     14  C   LIG    1       -2.103  -1.214  -0.392  0.00  0.00    +0.004 A 
ENDBRANCH   1  13
TORSDOF 1
