REMARK  Name = molecules/WMDSZGFJQKSLLH-RBBKRZOGSA-N.pdb
REMARK                            x       y       z     vdW  Elec       q    Type
REMARK                         _______ _______ _______ _____ _____    ______ ____
ROOT
ATOM      1  O   LIG    1       -0.252  -0.357   0.180  0.00  0.00    -0.489 OA
ENDROOT
BRANCH   1   5
ATOM      2  C   LIG    1        3.261   1.910   0.302  0.00  0.00    -0.047 A 
ATOM      3  C   LIG    1        3.044   0.841   1.133  0.00  0.00    +0.007 A 
ATOM      4  C   LIG    1        1.885   0.110   1.078  0.00  0.00    +0.046 A 
ATOM      5  C   LIG    1        0.879   0.422   0.179  0.00  0.00    +0.121 A 
ATOM      6  C   LIG    1        1.068   1.483  -0.658  0.00  0.00    +0.046 A 
ATOM      7  C   LIG    1        2.232   2.204  -0.592  0.00  0.00    +0.007 A 
BRANCH   2   8
ATOM      8  C   LIG    1        4.516   2.694   0.265  0.00  0.00    +0.046 C 
BRANCH   8   9
ATOM      9  C   LIG    1        5.405   2.415  -0.878  0.00  0.00    +0.125 C 
BRANCH   9  10
ATOM     10  C   LIG    1        5.827   1.003  -0.952  0.00  0.00    +0.307 C 
ATOM     11  O   LIG    1        6.543   0.598  -1.938  0.00  0.00    -0.251 OA
BRANCH  10  12
ATOM     12  O   LIG    1        5.491   0.087  -0.016  0.00  0.00    -0.462 OA
BRANCH  12  13
ATOM     13  C   LIG    1        5.803  -1.263   0.051  0.00  0.00    +0.266 C 
BRANCH  13  14
ATOM     14  C   LIG    1        7.252  -1.602   0.126  0.00  0.00    +0.185 C 
ATOM     15  C   LIG    1        7.860  -0.832   1.288  0.00  0.00    +0.198 C 
ATOM     16  O   LIG    1        8.629   0.124   0.626  0.00  0.00    -0.346 OA
ATOM     17  C   LIG    1        9.179  -0.637  -0.416  0.00  0.00    +0.165 C 
ATOM     18  C   LIG    1       10.139  -1.621   0.161  0.00  0.00    +0.074 C 
ATOM     19  C   LIG    1        9.880   0.215  -1.431  0.00  0.00    +0.074 C 
ATOM     20  O   LIG    1        8.026  -1.229  -0.929  0.00  0.00    -0.340 OA
ENDBRANCH  13  14
ENDBRANCH  12  13
ENDBRANCH  10  12
ENDBRANCH   9  10
ENDBRANCH   8   9
ENDBRANCH   2   8
ENDBRANCH   1   5
BRANCH   1  21
ATOM     21  C   LIG    1       -1.317  -0.122  -0.691  0.00  0.00    +0.261 C 
BRANCH  21  22
ATOM     22  C   LIG    1       -2.377  -1.212  -0.415  0.00  0.00    +0.166 C 
BRANCH  22  23
ATOM     23  O   LIG    1       -1.686  -2.425  -0.670  0.00  0.00    -0.387 OA
ATOM     24  H   LIG    1       -1.054  -2.272  -1.431  0.00  0.00    +0.210 HD
ENDBRANCH  22  23
BRANCH  22  25
ATOM     25  C   LIG    1       -2.761  -1.210   1.017  0.00  0.00    +0.115 C 
BRANCH  25  26
ATOM     26  N   LIG    1       -3.482  -0.107   1.478  0.00  0.00    -0.312 NA
ATOM     27  H   LIG    1       -2.879   0.751   1.546  0.00  0.00    +0.122 HD
BRANCH  26  28
ATOM     28  C   LIG    1       -4.827   0.109   1.222  0.00  0.00    +0.099 C 
BRANCH  28  29
ATOM     29  C   LIG    1       -5.280   0.410  -0.152  0.00  0.00    +0.121 C 
BRANCH  29  30
ATOM     30  N   LIG    1       -6.732   0.661  -0.127  0.00  0.00    -0.298 N 
ATOM     31  C   LIG    1       -7.641  -0.323   0.286  0.00  0.00    +0.302 C 
ATOM     32  O   LIG    1       -7.261  -1.487   0.666  0.00  0.00    -0.253 OA
ATOM     33  N   LIG    1       -9.025  -0.078   0.304  0.00  0.00    -0.281 N 
ATOM     34  C   LIG    1       -9.924  -1.142   0.775  0.00  0.00    +0.137 C 
ATOM     35  C   LIG    1      -10.893  -1.414  -0.348  0.00  0.00    +0.179 C 
ATOM     36  O   LIG    1      -10.620  -0.652  -1.453  0.00  0.00    -0.377 OA
ATOM     37  C   LIG    1      -10.627   0.722  -1.238  0.00  0.00    +0.179 C 
ATOM     38  C   LIG    1       -9.682   1.138  -0.122  0.00  0.00    +0.137 C 
ATOM     39  H   LIG    1       -7.057   1.592  -0.425  0.00  0.00    +0.150 HD
ENDBRANCH  29  30
ENDBRANCH  28  29
ENDBRANCH  26  28
ENDBRANCH  25  26
ENDBRANCH  22  25
ENDBRANCH  21  22
ENDBRANCH   1  21
TORSDOF 15
