REMARK  Name = molecules/WMJPAYUKEVEBCN-UHFFFAOYSA-N.pdb
REMARK                            x       y       z     vdW  Elec       q    Type
REMARK                         _______ _______ _______ _____ _____    ______ ____
ROOT
ATOM      1  C   LIG    1        0.396   0.438   0.008  0.00  0.00    +0.004 C 
ATOM      2  C   LIG    1       -0.302  -0.176   1.203  0.00  0.00    +0.010 C 
ATOM      3  C   LIG    1       -1.779  -0.359   0.981  0.00  0.00    +0.001 C 
ATOM      4  C   LIG    1       -2.088  -1.013  -0.348  0.00  0.00    +0.000 C 
ATOM      5  C   LIG    1       -1.500  -0.265  -1.509  0.00  0.00    +0.001 C 
ATOM      6  C   LIG    1       -0.670   0.866  -0.970  0.00  0.00    +0.010 C 
ENDROOT
BRANCH   1   7
ATOM      7  C   LIG    1        1.166   1.692   0.376  0.00  0.00    +0.163 C 
BRANCH   7   8
ATOM      8  O   LIG    1        0.306   2.623   0.957  0.00  0.00    -0.394 OA
ATOM      9  H   LIG    1        0.376   3.519   0.517  0.00  0.00    +0.209 HD
ENDBRANCH   7   8
ENDBRANCH   1   7
BRANCH   1  10
ATOM     10  C   LIG    1        1.269  -0.587  -0.670  0.00  0.00    +0.129 C 
BRANCH  10  11
ATOM     11  C   LIG    1        2.359  -1.081   0.185  0.00  0.00    +0.305 C 
ATOM     12  O   LIG    1        3.380  -0.375   0.429  0.00  0.00    -0.251 OA
BRANCH  11  13
ATOM     13  O   LIG    1        2.335  -2.332   0.771  0.00  0.00    -0.481 OA
ATOM     14  H   LIG    1        3.168  -2.769   1.069  0.00  0.00    +0.295 HD
ENDBRANCH  11  13
ENDBRANCH  10  11
ENDBRANCH   1  10
TORSDOF 5
