REMARK  Name = molecules/WMWTYOKRWGGJOA-CENSZEJFSA-N.pdb
REMARK                            x       y       z     vdW  Elec       q    Type
REMARK                         _______ _______ _______ _____ _____    ______ ____
ROOT
ATOM      1  C   LIG    1        4.047   1.955   0.121  0.00  0.00    -0.009 C 
ATOM      2  C   LIG    1        5.206   2.128   0.717  0.00  0.00    +0.047 C 
ATOM      3  C   LIG    1        6.007   0.952   1.013  0.00  0.00    +0.179 C 
ATOM      4  O   LIG    1        7.115   1.028   1.571  0.00  0.00    -0.288 OA
ATOM      5  C   LIG    1        5.415  -0.329   0.605  0.00  0.00    +0.054 C 
ATOM      6  C   LIG    1        4.267  -0.448   0.020  0.00  0.00    -0.020 C 
ATOM      7  C   LIG    1        3.732  -1.831  -0.296  0.00  0.00    +0.194 C 
ATOM      8  C   LIG    1        2.460  -1.891   0.532  0.00  0.00    +0.048 C 
ATOM      9  C   LIG    1        1.520  -0.890  -0.058  0.00  0.00    +0.037 C 
ATOM     10  C   LIG    1        0.164  -0.900   0.537  0.00  0.00    +0.006 C 
ATOM     11  C   LIG    1       -0.544  -2.161   0.742  0.00  0.00    +0.012 C 
ATOM     12  C   LIG    1       -1.938  -1.602   1.097  0.00  0.00    +0.039 C 
ATOM     13  C   LIG    1       -1.836  -1.009   2.483  0.00  0.00    +0.012 C 
ATOM     14  C   LIG    1       -2.105  -0.547   0.023  0.00  0.00    +0.189 C 
ATOM     15  C   LIG    1       -0.729  -0.163  -0.441  0.00  0.00    +0.022 C 
ATOM     16  C   LIG    1       -0.382   1.280  -0.154  0.00  0.00    +0.046 C 
ATOM     17  C   LIG    1        1.065   1.562  -0.325  0.00  0.00    +0.154 C 
ATOM     18  C   LIG    1       -0.544  -0.546  -1.860  0.00  0.00    +0.016 C 
ATOM     19  C   LIG    1        2.017   0.536   0.189  0.00  0.00    +0.153 C 
ATOM     20  F   LIG    1        2.036   0.668   1.567  0.00  0.00    -0.238 F 
ATOM     21  F   LIG    1        4.624  -2.806  -0.031  0.00  0.00    -0.241 F 
ATOM     22  C   LIG    1        3.423   0.716  -0.308  0.00  0.00    +0.047 C 
ATOM     23  C   LIG    1        3.431   0.792  -1.857  0.00  0.00    +0.023 C 
ENDROOT
BRANCH  14  24
ATOM     24  C   LIG    1       -2.875  -1.240  -1.064  0.00  0.00    +0.236 C 
ATOM     25  O   LIG    1       -2.481  -2.286  -1.529  0.00  0.00    -0.281 OA
BRANCH  24  26
ATOM     26  S   LIG    1       -4.394  -0.565  -1.720  0.00  0.00    -0.051 S 
BRANCH  26  27
ATOM     27  C   LIG    1       -5.078  -1.632  -3.015  0.00  0.00    +0.290 C 
ATOM     28  F   LIG    1       -6.235  -1.150  -3.535  0.00  0.00    -0.237 F 
ENDBRANCH  26  27
ENDBRANCH  24  26
ENDBRANCH  14  24
BRANCH  17  29
ATOM     29  O   LIG    1        1.309   1.995  -1.625  0.00  0.00    -0.389 OA
ATOM     30  H   LIG    1        0.854   2.892  -1.708  0.00  0.00    +0.210 HD
ENDBRANCH  17  29
BRANCH  14  31
ATOM     31  O   LIG    1       -2.774   0.613   0.457  0.00  0.00    -0.449 OA
BRANCH  31  32
ATOM     32  C   LIG    1       -4.035   0.710   0.970  0.00  0.00    +0.308 C 
ATOM     33  O   LIG    1       -4.692  -0.362   1.078  0.00  0.00    -0.251 OA
BRANCH  32  34
ATOM     34  C   LIG    1       -4.676   1.976   1.403  0.00  0.00    +0.117 C 
ATOM     35  C   LIG    1       -4.645   2.213   2.868  0.00  0.00    +0.015 C 
ENDBRANCH  32  34
ENDBRANCH  31  32
ENDBRANCH  14  31
TORSDOF 7
