REMARK  Name = molecules/WNKCJOWTKXGERE-UHFFFAOYSA-N.pdb
REMARK                            x       y       z     vdW  Elec       q    Type
REMARK                         _______ _______ _______ _____ _____    ______ ____
ROOT
ATOM      1  C   LIG    1       -0.045  -0.041   0.017  0.00  0.00    -0.010 C 
ATOM      2  C   LIG    1       -1.326  -0.292  -0.106  0.00  0.00    -0.048 C 
ENDROOT
BRANCH   1   3
ATOM      3  C   LIG    1        0.517   1.306   0.138  0.00  0.00    -0.017 A 
ATOM      4  C   LIG    1        0.021   2.197   1.050  0.00  0.00    +0.008 A 
ATOM      5  C   LIG    1        0.527   3.482   1.149  0.00  0.00    +0.001 A 
ATOM      6  C   LIG    1        1.550   3.899   0.330  0.00  0.00    +0.000 A 
ATOM      7  C   LIG    1        2.052   3.007  -0.585  0.00  0.00    +0.001 A 
ATOM      8  C   LIG    1        1.544   1.711  -0.690  0.00  0.00    +0.008 A 
ENDBRANCH   1   3
BRANCH   1   9
ATOM      9  C   LIG    1        0.959  -1.103   0.006  0.00  0.00    -0.017 A 
ATOM     10  C   LIG    1        1.873  -1.098   1.068  0.00  0.00    +0.008 A 
ATOM     11  C   LIG    1        2.863  -2.042   1.101  0.00  0.00    +0.001 A 
ATOM     12  C   LIG    1        2.967  -2.986   0.112  0.00  0.00    +0.000 A 
ATOM     13  C   LIG    1        2.069  -2.986  -0.927  0.00  0.00    +0.001 A 
ATOM     14  C   LIG    1        1.079  -2.054  -0.974  0.00  0.00    +0.008 A 
ENDBRANCH   1   9
BRANCH   2  15
ATOM     15  C   LIG    1       -2.383   0.757  -0.150  0.00  0.00    +0.029 C 
ATOM     16  C   LIG    1       -3.275   0.600  -1.378  0.00  0.00    +0.008 C 
ENDBRANCH   2  15
BRANCH   2  17
ATOM     17  C   LIG    1       -1.825  -1.690  -0.179  0.00  0.00    +0.109 C 
BRANCH  17  18
ATOM     18  N   LIG    1       -2.750  -1.824   0.967  0.00  0.00    -0.326 NA
ATOM     19  H   LIG    1       -2.239  -1.405   1.785  0.00  0.00    +0.119 HD
ATOM     20  H   LIG    1       -2.950  -2.832   1.115  0.00  0.00    +0.119 HD
ENDBRANCH  17  18
ENDBRANCH   2  17
TORSDOF 5
