REMARK  Name = molecules/WNMJYKCGWZFFKR-CQSZACIVSA-N.pdb
REMARK                            x       y       z     vdW  Elec       q    Type
REMARK                         _______ _______ _______ _____ _____    ______ ____
ROOT
ATOM      1  C   LIG    1       -2.869   2.176   0.204  0.00  0.00    +0.129 A 
ATOM      2  N   LIG    1       -1.562   1.911   0.276  0.00  0.00    -0.199 NA
ATOM      3  C   LIG    1       -1.040   0.676   0.238  0.00  0.00    +0.220 A 
ATOM      4  N   LIG    1       -1.925  -0.349   0.117  0.00  0.00    -0.214 NA
ATOM      5  C   LIG    1       -3.246  -0.141   0.040  0.00  0.00    +0.082 A 
ATOM      6  C   LIG    1       -4.128  -1.219  -0.080  0.00  0.00    +0.078 A 
ATOM      7  C   LIG    1       -5.485  -1.018  -0.155  0.00  0.00    +0.164 A 
ATOM      8  C   LIG    1       -5.978   0.273  -0.111  0.00  0.00    +0.162 A 
ATOM      9  C   LIG    1       -5.135   1.358   0.007  0.00  0.00    +0.062 A 
ATOM     10  C   LIG    1       -3.775   1.128   0.081  0.00  0.00    +0.044 A 
ENDROOT
BRANCH   1  11
ATOM     11  N   LIG    1       -3.417   3.478   0.244  0.00  0.00    -0.343 N 
ATOM     12  H   LIG    1       -3.639   3.941   1.137  0.00  0.00    +0.144 HD
ATOM     13  H   LIG    1       -3.598   3.974  -0.645  0.00  0.00    +0.144 HD
ENDBRANCH   1  11
BRANCH   3  14
ATOM     14  N   LIG    1        0.355   0.438   0.333  0.00  0.00    -0.303 N 
ATOM     15  C   LIG    1        0.909   0.268   1.652  0.00  0.00    +0.132 C 
BRANCH  14  16
ATOM     16  C   LIG    1        1.179   0.348  -0.837  0.00  0.00    +0.109 C 
BRANCH  16  17
ATOM     17  C   LIG    1        1.683  -1.008  -1.177  0.00  0.00    +0.038 C 
BRANCH  17  18
ATOM     18  C   LIG    1        2.528  -1.702  -0.180  0.00  0.00    +0.106 C 
BRANCH  18  19
ATOM     19  N   LIG    1        3.721  -0.997   0.135  0.00  0.00    -0.313 N 
ATOM     20  H   LIG    1        3.861  -0.722   1.148  0.00  0.00    +0.149 HD
ATOM     21  C   LIG    1        4.743  -0.634  -0.770  0.00  0.00    +0.242 C 
ATOM     22  O   LIG    1        4.614  -0.948  -1.973  0.00  0.00    -0.273 OA
BRANCH  21  23
ATOM     23  C   LIG    1        5.943   0.096  -0.330  0.00  0.00    +0.204 C 
ATOM     24  C   LIG    1        6.755  -0.744   0.656  0.00  0.00    +0.043 C 
ATOM     25  C   LIG    1        8.101  -0.069   0.594  0.00  0.00    +0.031 C 
ATOM     26  C   LIG    1        7.953   0.811  -0.627  0.00  0.00    +0.161 C 
ATOM     27  O   LIG    1        6.840   0.365  -1.332  0.00  0.00    -0.367 OA
ENDBRANCH  21  23
ENDBRANCH  18  19
ENDBRANCH  17  18
ENDBRANCH  16  17
ENDBRANCH  14  16
ENDBRANCH   3  14
BRANCH   8  28
ATOM     28  O   LIG    1       -7.360   0.481  -0.186  0.00  0.00    -0.491 OA
ATOM     29  C   LIG    1       -7.931   1.754  -0.144  0.00  0.00    +0.277 C 
ENDBRANCH   8  28
BRANCH   7  30
ATOM     30  O   LIG    1       -6.375  -2.044  -0.273  0.00  0.00    -0.491 OA
ATOM     31  C   LIG    1       -6.102  -3.411  -0.339  0.00  0.00    +0.277 C 
ENDBRANCH   7  30
TORSDOF 9
