REMARK  Name = molecules/WNTYBHLDCKXEOT-UHFFFAOYSA-N.pdb
REMARK                            x       y       z     vdW  Elec       q    Type
REMARK                         _______ _______ _______ _____ _____    ______ ____
ROOT
ATOM      1  C   LIG    1       -1.105  -4.295   2.382  0.00  0.00    +0.047 C 
ATOM      2  C   LIG    1       -1.252  -2.934   2.199  0.00  0.00    +0.006 C 
ATOM      3  C   LIG    1       -2.084  -2.443   1.192  0.00  0.00    +0.044 C 
ATOM      4  N   LIG    1       -2.236  -1.027   0.996  0.00  0.00    -0.298 N 
ATOM      5  C   LIG    1       -3.050  -0.429  -0.001  0.00  0.00    +0.049 A 
ATOM      6  C   LIG    1       -3.150   0.963  -0.104  0.00  0.00    +0.036 A 
ATOM      7  C   LIG    1       -3.930   1.608  -1.038  0.00  0.00    +0.019 A 
ATOM      8  C   LIG    1       -4.675   0.893  -1.946  0.00  0.00    +0.012 A 
ATOM      9  C   LIG    1       -4.588  -0.474  -1.859  0.00  0.00    +0.017 A 
ATOM     10  C   LIG    1       -3.810  -1.110  -0.927  0.00  0.00    +0.034 A 
ATOM     11  S   LIG    1       -3.793  -2.892  -0.904  0.00  0.00    -0.086 S 
ATOM     12  C   LIG    1       -2.723  -3.376   0.421  0.00  0.00    +0.034 C 
ATOM     13  C   LIG    1       -2.563  -4.720   0.619  0.00  0.00    +0.013 C 
ATOM     14  C   LIG    1       -1.753  -5.221   1.602  0.00  0.00    -0.017 C 
ENDROOT
BRANCH   7  15
ATOM     15  C   LIG    1       -3.995   3.060  -1.097  0.00  0.00    +0.160 C 
ATOM     16  O   LIG    1       -3.324   3.741  -0.278  0.00  0.00    -0.292 OA
ATOM     17  C   LIG    1       -4.817   3.789  -2.080  0.00  0.00    +0.091 C 
ENDBRANCH   7  15
BRANCH   4  18
ATOM     18  C   LIG    1       -1.440  -0.215   1.903  0.00  0.00    +0.112 C 
BRANCH  18  19
ATOM     19  C   LIG    1       -0.040   0.047   1.420  0.00  0.00    +0.035 C 
BRANCH  19  20
ATOM     20  C   LIG    1        0.099   0.756   0.130  0.00  0.00    +0.086 C 
BRANCH  20  21
ATOM     21  N   LIG    1        1.484   0.939  -0.234  0.00  0.00    -0.300 NA
ATOM     22  C   LIG    1        2.194   1.868   0.631  0.00  0.00    +0.100 C 
ATOM     23  C   LIG    1        3.461   2.213  -0.167  0.00  0.00    +0.100 C 
ATOM     24  N   LIG    1        4.286   0.987  -0.086  0.00  0.00    -0.298 NA
ATOM     25  C   LIG    1        3.624   0.016  -0.886  0.00  0.00    +0.100 C 
ATOM     26  C   LIG    1        2.239  -0.261  -0.317  0.00  0.00    +0.100 C 
BRANCH  24  27
ATOM     27  C   LIG    1        5.591   1.370  -0.475  0.00  0.00    +0.112 C 
BRANCH  27  28
ATOM     28  C   LIG    1        6.651   0.326  -0.462  0.00  0.00    +0.171 C 
BRANCH  28  29
ATOM     29  O   LIG    1        6.326  -0.692  -1.338  0.00  0.00    -0.394 OA
ATOM     30  H   LIG    1        6.490  -1.549  -0.879  0.00  0.00    +0.209 HD
ENDBRANCH  28  29
ENDBRANCH  27  28
ENDBRANCH  24  27
ENDBRANCH  20  21
ENDBRANCH  19  20
ENDBRANCH  18  19
ENDBRANCH   4  18
TORSDOF 8
