REMARK  Name = molecules/WOFMFGQZHJDGCX-ZULDAHANSA-N.pdb
REMARK                            x       y       z     vdW  Elec       q    Type
REMARK                         _______ _______ _______ _____ _____    ______ ____
ROOT
ATOM      1 CL   LIG    1       -1.087   0.117   2.184  0.00  0.00    -0.114 Cl
ATOM      2  C   LIG    1       -1.795   0.030   0.529  0.00  0.00    +0.086 C 
ATOM      3  C   LIG    1       -3.233   0.487   0.682  0.00  0.00    +0.029 C 
ATOM      4  C   LIG    1       -3.156   1.692   1.526  0.00  0.00    -0.055 C 
ATOM      5  C   LIG    1       -3.850   1.782   2.625  0.00  0.00    +0.051 C 
ATOM      6  C   LIG    1       -4.742   0.736   3.113  0.00  0.00    +0.179 C 
ATOM      7  O   LIG    1       -5.389   0.873   4.178  0.00  0.00    -0.288 OA
ATOM      8  C   LIG    1       -4.842  -0.473   2.300  0.00  0.00    +0.047 C 
ATOM      9  C   LIG    1       -2.271   2.802   1.120  0.00  0.00    +0.032 C 
ATOM     10  C   LIG    1       -0.941   2.297   0.597  0.00  0.00    +0.010 C 
ATOM     11  C   LIG    1       -4.133  -0.558   1.183  0.00  0.00    -0.011 C 
ATOM     12  C   LIG    1       -3.742   0.939  -0.677  0.00  0.00    +0.022 C 
ATOM     13  C   LIG    1       -1.657  -1.372   0.075  0.00  0.00    +0.137 C 
ATOM     14  C   LIG    1       -0.220  -1.716  -0.193  0.00  0.00    +0.044 C 
ATOM     15  C   LIG    1        0.309  -0.812  -1.235  0.00  0.00    +0.021 C 
ATOM     16  C   LIG    1        0.265   0.618  -0.651  0.00  0.00    +0.005 C 
ATOM     17  C   LIG    1        0.920   1.341  -1.796  0.00  0.00    +0.012 C 
ATOM     18  C   LIG    1        2.038   0.356  -2.200  0.00  0.00    +0.038 C 
ATOM     19  C   LIG    1        3.311   1.102  -2.026  0.00  0.00    +0.012 C 
ATOM     20  C   LIG    1        1.848  -0.874  -1.356  0.00  0.00    +0.180 C 
ATOM     21  C   LIG    1       -0.414  -0.895  -2.517  0.00  0.00    +0.016 C 
ATOM     22  C   LIG    1       -1.095   1.064  -0.287  0.00  0.00    +0.018 C 
ENDROOT
BRANCH  20  23
ATOM     23  C   LIG    1        2.344  -2.096  -1.986  0.00  0.00    +0.192 C 
ATOM     24  O   LIG    1        3.016  -2.857  -1.254  0.00  0.00    -0.292 OA
BRANCH  23  25
ATOM     25  C   LIG    1        2.144  -2.519  -3.363  0.00  0.00    +0.187 C 
ATOM     26 CL   LIG    1        3.080  -4.038  -3.641  0.00  0.00    -0.117 Cl
ENDBRANCH  23  25
ENDBRANCH  20  23
BRANCH  13  27
ATOM     27  O   LIG    1       -2.493  -1.743  -0.971  0.00  0.00    -0.390 OA
ATOM     28  H   LIG    1       -2.825  -2.672  -0.901  0.00  0.00    +0.210 HD
ENDBRANCH  13  27
BRANCH  20  29
ATOM     29  O   LIG    1        2.276  -0.710  -0.029  0.00  0.00    -0.444 OA
BRANCH  29  30
ATOM     30  C   LIG    1        3.555  -0.730   0.455  0.00  0.00    +0.376 C 
ATOM     31  O   LIG    1        4.480  -0.925  -0.358  0.00  0.00    -0.241 OA
BRANCH  30  32
ATOM     32  C   LIG    1        3.857  -0.529   1.888  0.00  0.00    +0.211 A 
ATOM     33  O   LIG    1        3.023  -0.318   2.845  0.00  0.00    -0.456 OA
ATOM     34  C   LIG    1        3.653  -0.184   4.005  0.00  0.00    +0.196 A 
ATOM     35  C   LIG    1        5.018  -0.318   3.789  0.00  0.00    +0.042 A 
ATOM     36  C   LIG    1        5.128  -0.541   2.411  0.00  0.00    +0.056 A 
ENDBRANCH  30  32
ENDBRANCH  29  30
ENDBRANCH  20  29
TORSDOF 6
