REMARK  Name = molecules/WOUUWUGULFOVHG-UHFFFAOYSA-N.pdb
REMARK                            x       y       z     vdW  Elec       q    Type
REMARK                         _______ _______ _______ _____ _____    ______ ____
ROOT
ATOM      1  C   LIG    1       -0.363  -0.011  -0.559  0.00  0.00    +0.140 C 
ATOM      2  C   LIG    1       -0.762   0.319  -1.765  0.00  0.00    +0.061 C 
ATOM      3  S   LIG    1       -2.346   0.226  -2.655  0.00  0.00    -0.106 S 
ATOM      4  C   LIG    1       -1.760   1.616  -3.675  0.00  0.00    +0.149 C 
ATOM      5  S   LIG    1       -0.089   1.032  -3.264  0.00  0.00    -0.106 S 
ENDROOT
BRANCH   1   6
ATOM      6  C   LIG    1        1.006   0.184  -0.110  0.00  0.00    +0.258 C 
ATOM      7  O   LIG    1        1.327  -0.163   1.090  0.00  0.00    -0.269 OA
ATOM      8  N   LIG    1        2.041   0.728  -0.873  0.00  0.00    -0.260 N 
ATOM      9  H   LIG    1        1.921   1.045  -1.843  0.00  0.00    +0.157 HD
BRANCH   8  10
ATOM     10  C   LIG    1        3.362   0.871  -0.312  0.00  0.00    +0.165 A 
ATOM     11  N   LIG    1        3.781   0.544   0.903  0.00  0.00    -0.230 NA
ATOM     12  C   LIG    1        5.012   0.744   1.239  0.00  0.00    +0.047 A 
ATOM     13  C   LIG    1        5.545   0.387   2.620  0.00  0.00    +0.066 C 
ATOM     14  C   LIG    1        5.846   1.299   0.298  0.00  0.00    +0.071 A 
ATOM     15  S   LIG    1        4.784   1.497  -1.024  0.00  0.00    -0.060 S 
ENDBRANCH   8  10
ENDBRANCH   1   6
BRANCH   1  16
ATOM     16  C   LIG    1       -1.371  -0.600   0.351  0.00  0.00    +0.346 C 
ATOM     17  O   LIG    1       -1.007  -0.914   1.491  0.00  0.00    -0.245 OA
BRANCH  16  18
ATOM     18  O   LIG    1       -2.670  -0.801  -0.031  0.00  0.00    -0.458 OA
BRANCH  18  19
ATOM     19  C   LIG    1       -3.668  -1.353   0.781  0.00  0.00    +0.171 C 
ATOM     20  C   LIG    1       -4.714  -0.285   1.019  0.00  0.00    +0.052 C 
ATOM     21  C   LIG    1       -4.287  -2.596   0.160  0.00  0.00    +0.052 C 
ENDBRANCH  18  19
ENDBRANCH  16  18
ENDBRANCH   1  16
TORSDOF 5
