REMARK  Name = molecules/WOVKYSAHUYNSMH-RRKCRQDMSA-N.pdb
REMARK                            x       y       z     vdW  Elec       q    Type
REMARK                         _______ _______ _______ _____ _____    ______ ____
ROOT
ATOM      1  O   LIG    1        1.146  -2.368   1.345  0.00  0.00    -0.246 OA
ATOM      2  C   LIG    1        1.879  -1.579   0.685  0.00  0.00    +0.331 A 
ATOM      3  N   LIG    1        3.169  -1.875   0.498  0.00  0.00    -0.274 N 
ATOM      4  H   LIG    1        3.612  -2.757   0.885  0.00  0.00    +0.173 HD
ATOM      5  C   LIG    1        3.951  -1.042  -0.201  0.00  0.00    +0.268 A 
ATOM      6  O   LIG    1        5.162  -1.342  -0.365  0.00  0.00    -0.267 OA
ATOM      7  C   LIG    1        3.404   0.113  -0.717  0.00  0.00    +0.098 A 
ATOM      8  C   LIG    1        2.058   0.377  -0.495  0.00  0.00    +0.113 A 
ATOM      9 BR   LIG    1        4.524   1.292  -1.710  0.00  0.00    -0.043 Br
ATOM     10  N   LIG    1        1.282  -0.470   0.211  0.00  0.00    -0.273 N 
ENDROOT
BRANCH  10  11
ATOM     11  C1* LIG    1       -0.098  -0.188   0.431  0.00  0.00    +0.226 C 
ATOM     12  C2* LIG    1       -0.381   1.206   0.906  0.00  0.00    +0.088 C 
ATOM     13  C3* LIG    1       -1.804   1.444   0.386  0.00  0.00    +0.150 C 
ATOM     14  C4* LIG    1       -2.112   0.126  -0.251  0.00  0.00    +0.175 C 
ATOM     15  O4* LIG    1       -0.863  -0.256  -0.756  0.00  0.00    -0.348 OA
BRANCH  13  16
ATOM     16  O3* LIG    1       -2.672   1.742   1.415  0.00  0.00    -0.389 OA
ATOM     17  H3* LIG    1       -2.218   1.795   2.286  0.00  0.00    +0.210 HD
ENDBRANCH  13  16
BRANCH  14  18
ATOM     18  C5* LIG    1       -3.154   0.207  -1.335  0.00  0.00    +0.190 C 
BRANCH  18  19
ATOM     19  O5* LIG    1       -3.236  -1.087  -1.901  0.00  0.00    -0.392 OA
ATOM     20  H5* LIG    1       -3.431  -1.747  -1.193  0.00  0.00    +0.210 HD
ENDBRANCH  18  19
ENDBRANCH  14  18
ENDBRANCH  10  11
TORSDOF 4
