REMARK  Name = molecules/WOXKDUGGOYFFRN-IIBYNOLFSA-N.pdb
REMARK                            x       y       z     vdW  Elec       q    Type
REMARK                         _______ _______ _______ _____ _____    ______ ____
ROOT
ATOM      1  C   LIG    1       -2.251   0.494  -1.645  0.00  0.00    +0.069 C 
ATOM      2  C   LIG    1       -1.253   1.434  -1.055  0.00  0.00    -0.015 A 
ATOM      3  C   LIG    1       -1.445   2.725  -0.634  0.00  0.00    +0.003 A 
ATOM      4  C   LIG    1       -0.186   3.126  -0.167  0.00  0.00    +0.047 A 
ATOM      5  C   LIG    1       -0.001   4.391   0.341  0.00  0.00    +0.026 A 
ATOM      6  C   LIG    1       -1.082   5.237   0.371  0.00  0.00    +0.002 A 
ATOM      7  C   LIG    1       -2.333   4.876  -0.080  0.00  0.00    +0.001 A 
ATOM      8  N   LIG    1        0.676   2.086  -0.324  0.00  0.00    -0.356 N 
ATOM      9  H   LIG    1        1.707   2.072  -0.065  0.00  0.00    +0.166 HD
ATOM     10  C   LIG    1       -2.497   3.609  -0.583  0.00  0.00    +0.010 A 
ATOM     11  C   LIG    1        0.056   1.047  -0.861  0.00  0.00    +0.046 A 
ATOM     12  C   LIG    1        0.425  -0.342  -1.277  0.00  0.00    +0.154 C 
ATOM     13  N   LIG    1       -0.627  -1.216  -0.862  0.00  0.00    -0.276 N 
ATOM     14  C   LIG    1       -0.402  -2.417  -0.117  0.00  0.00    +0.234 C 
ATOM     15  C   LIG    1       -1.343  -2.895   0.893  0.00  0.00    +0.203 C 
ATOM     16  N   LIG    1       -2.660  -2.343   0.770  0.00  0.00    -0.294 N 
ATOM     17  C   LIG    1       -3.689  -2.910   1.633  0.00  0.00    +0.132 C 
ATOM     18  C   LIG    1       -2.936  -1.318  -0.129  0.00  0.00    +0.237 C 
ATOM     19  O   LIG    1       -4.026  -0.676  -0.063  0.00  0.00    -0.274 OA
ATOM     20  O   LIG    1        0.639  -3.070  -0.349  0.00  0.00    -0.274 OA
ATOM     21  C   LIG    1       -1.995  -0.916  -1.200  0.00  0.00    +0.167 C 
ENDROOT
BRANCH  12  22
ATOM     22  C   LIG    1        1.770  -0.689  -0.796  0.00  0.00    -0.018 A 
ATOM     23  C   LIG    1        2.027  -0.936   0.527  0.00  0.00    +0.055 A 
ATOM     24  C   LIG    1        3.301  -1.259   0.942  0.00  0.00    +0.167 A 
ATOM     25  O   LIG    1        3.907  -1.562   2.160  0.00  0.00    -0.453 OA
ATOM     26  C   LIG    1        5.304  -1.517   2.042  0.00  0.00    +0.466 C 
ATOM     27  O   LIG    1        5.518  -1.672   0.650  0.00  0.00    -0.453 OA
ATOM     28  C   LIG    1        4.345  -1.338   0.017  0.00  0.00    +0.166 A 
ATOM     29  C   LIG    1        4.098  -1.092  -1.311  0.00  0.00    +0.050 A 
ATOM     30  C   LIG    1        2.803  -0.769  -1.696  0.00  0.00    +0.009 A 
ENDBRANCH  12  22
TORSDOF 1
