REMARK  Name = molecules/WPEWQEMJFLWMLV-UHFFFAOYSA-N.pdb
REMARK                            x       y       z     vdW  Elec       q    Type
REMARK                         _______ _______ _______ _____ _____    ______ ____
ROOT
ATOM      1  N   LIG    1       -0.004  -1.268  -0.841  0.00  0.00    -0.281 N 
ATOM      2  C   LIG    1       -1.146  -0.949  -0.088  0.00  0.00    +0.252 C 
ATOM      3  O   LIG    1       -0.949  -0.261   0.952  0.00  0.00    -0.270 OA
ATOM      4  H   LIG    1       -0.059  -1.812  -1.716  0.00  0.00    +0.155 HD
ENDROOT
BRANCH   1   7
ATOM      5  C   LIG    1        2.952  -0.366   1.224  0.00  0.00    +0.007 A 
ATOM      6  C   LIG    1        1.658  -0.777   0.912  0.00  0.00    +0.023 A 
ATOM      7  C   LIG    1        1.282  -0.841  -0.409  0.00  0.00    +0.034 A 
ATOM      8  C   LIG    1        2.173  -0.504  -1.437  0.00  0.00    +0.023 A 
ATOM      9  C   LIG    1        3.434  -0.107  -1.050  0.00  0.00    +0.007 A 
ATOM     10  C   LIG    1        3.852  -0.026   0.239  0.00  0.00    -0.027 A 
BRANCH  10  11
ATOM     11  C   LIG    1        5.212   0.418   0.627  0.00  0.00    +0.082 C 
ATOM     12  C   LIG    1        6.306  -0.450   0.059  0.00  0.00    +0.026 C 
ATOM     13  C   LIG    1        7.526   0.427   0.354  0.00  0.00    +0.002 C 
ATOM     14  C   LIG    1        7.034   1.859   0.241  0.00  0.00    +0.002 C 
ATOM     15  C   LIG    1        5.545   1.768  -0.001  0.00  0.00    +0.026 C 
BRANCH  11  16
ATOM     16  C   LIG    1        5.377   0.515   2.061  0.00  0.00    +0.074 C 
ATOM     17  N   LIG    1        5.521   0.610   3.202  0.00  0.00    -0.196 NA
ENDBRANCH  11  16
ENDBRANCH  10  11
ENDBRANCH   1   7
BRANCH   2  18
ATOM     18  C   LIG    1       -2.497  -1.370  -0.461  0.00  0.00    +0.077 A 
ATOM     19  C   LIG    1       -3.564  -0.962   0.284  0.00  0.00    +0.131 A 
ATOM     20  N   LIG    1       -4.797  -1.438  -0.110  0.00  0.00    -0.240 NA
ATOM     21  C   LIG    1       -4.939  -2.253  -1.163  0.00  0.00    +0.113 A 
ATOM     22  C   LIG    1       -3.856  -2.660  -1.910  0.00  0.00    +0.021 A 
ATOM     23  C   LIG    1       -2.613  -2.212  -1.555  0.00  0.00    +0.018 A 
BRANCH  19  24
ATOM     24  N   LIG    1       -3.530  -0.074   1.405  0.00  0.00    -0.324 N 
ATOM     25  H   LIG    1       -2.692   0.366   1.790  0.00  0.00    +0.148 HD
BRANCH  24  26
ATOM     26  C   LIG    1       -4.777   0.269   2.090  0.00  0.00    +0.138 C 
BRANCH  26  27
ATOM     27  C   LIG    1       -5.653   0.870   1.073  0.00  0.00    -0.028 A 
ATOM     28  C   LIG    1       -6.869   0.306   0.789  0.00  0.00    +0.025 A 
ATOM     29  C   LIG    1       -7.707   0.851  -0.171  0.00  0.00    +0.111 A 
ATOM     30  N   LIG    1       -7.290   1.949  -0.814  0.00  0.00    -0.263 NA
ATOM     31  C   LIG    1       -6.117   2.556  -0.591  0.00  0.00    +0.111 A 
ATOM     32  C   LIG    1       -5.277   1.993   0.385  0.00  0.00    +0.025 A 
ENDBRANCH  26  27
ENDBRANCH  24  26
ENDBRANCH  19  24
ENDBRANCH   2  18
TORSDOF 7
