REMARK  Name = molecules/WPGGHFDDFPHPOB-BBWFWOEESA-N.pdb
REMARK                            x       y       z     vdW  Elec       q    Type
REMARK                         _______ _______ _______ _____ _____    ______ ____
ROOT
ATOM      1  C   LIG    1       -0.981   0.244   0.316  0.00  0.00    +0.111 C 
ENDROOT
BRANCH   1   2
ATOM      2  C   LIG    1       -0.191  -0.917  -0.139  0.00  0.00    +0.216 C 
ATOM      3  N   LIG    1        1.252  -0.790  -0.076  0.00  0.00    -0.301 N 
ATOM      4  C   LIG    1        1.945   0.372   0.423  0.00  0.00    +0.111 C 
ATOM      5  C   LIG    1        3.345  -0.177   0.703  0.00  0.00    +0.011 C 
ATOM      6  C   LIG    1        4.372   0.884   0.854  0.00  0.00    +0.005 C 
ATOM      7  C   LIG    1        4.694   1.577  -0.453  0.00  0.00    +0.000 C 
ATOM      8  C   LIG    1        5.068   0.498  -1.446  0.00  0.00    +0.000 C 
ATOM      9  C   LIG    1        3.790  -0.298  -1.722  0.00  0.00    +0.005 C 
ATOM     10  C   LIG    1        3.514  -1.095  -0.464  0.00  0.00    +0.011 C 
ATOM     11  C   LIG    1        2.183  -1.811  -0.505  0.00  0.00    +0.111 C 
ATOM     12  O   LIG    1       -0.685  -1.985  -0.567  0.00  0.00    -0.276 OA
ENDBRANCH   1   2
BRANCH   1  13
ATOM     13  C   LIG    1       -1.923  -0.136   1.396  0.00  0.00    +0.111 C 
BRANCH  13  14
ATOM     14  C   LIG    1       -2.491   1.127   1.945  0.00  0.00    +0.309 C 
ATOM     15  O   LIG    1       -2.357   1.384   3.151  0.00  0.00    -0.251 OA
BRANCH  14  16
ATOM     16  O   LIG    1       -3.159   1.998   1.119  0.00  0.00    -0.480 OA
ATOM     17  H   LIG    1       -2.766   2.809   0.672  0.00  0.00    +0.295 HD
ENDBRANCH  14  16
ENDBRANCH  13  14
BRANCH  13  18
ATOM     18  C   LIG    1       -2.971  -1.114   1.015  0.00  0.00    +0.050 C 
BRANCH  18  19
ATOM     19  C   LIG    1       -3.912  -0.673  -0.026  0.00  0.00    -0.047 A 
ATOM     20  C   LIG    1       -5.043   0.018   0.447  0.00  0.00    +0.003 A 
ATOM     21  C   LIG    1       -5.971   0.471  -0.450  0.00  0.00    +0.000 A 
ATOM     22  C   LIG    1       -5.835   0.271  -1.820  0.00  0.00    +0.000 A 
ATOM     23  C   LIG    1       -4.740  -0.400  -2.295  0.00  0.00    +0.000 A 
ATOM     24  C   LIG    1       -3.791  -0.864  -1.377  0.00  0.00    +0.003 A 
ENDBRANCH  18  19
ENDBRANCH  13  18
ENDBRANCH   1  13
TORSDOF 6
