REMARK  Name = molecules/WPNJAUFVNXKLIM-UHFFFAOYSA-N.pdb
REMARK                            x       y       z     vdW  Elec       q    Type
REMARK                         _______ _______ _______ _____ _____    ______ ____
ROOT
ATOM      1  C   LIG    1       -0.518  -0.448  -0.917  0.00  0.00    +0.129 A 
ATOM      2  C   LIG    1       -1.300   0.465  -0.250  0.00  0.00    +0.241 A 
ATOM      3  N   LIG    1       -2.453  -0.007   0.274  0.00  0.00    -0.197 NA
ATOM      4  C   LIG    1       -2.814  -1.296   0.150  0.00  0.00    +0.132 A 
ATOM      5  C   LIG    1       -4.092  -1.814   0.731  0.00  0.00    +0.088 C 
ATOM      6  N   LIG    1       -2.026  -2.161  -0.508  0.00  0.00    -0.219 NA
ATOM      7  C   LIG    1       -0.850  -1.776  -1.066  0.00  0.00    +0.157 A 
ATOM      8 CL   LIG    1        0.171  -2.917  -1.923  0.00  0.00    -0.060 Cl
ENDROOT
BRANCH   1   9
ATOM      9  N   LIG    1        0.702   0.005  -1.482  0.00  0.00    -0.302 N 
ATOM     10  H   LIG    1        0.701   0.356  -2.444  0.00  0.00    +0.149 HD
BRANCH   9  11
ATOM     11  C   LIG    1        1.889  -0.055  -0.660  0.00  0.00    +0.206 C 
ATOM     12  N   LIG    1        2.169  -0.935   0.219  0.00  0.00    -0.196 NA
ATOM     13  C   LIG    1        3.439  -0.711   0.871  0.00  0.00    +0.121 C 
ATOM     14  C   LIG    1        3.827   0.695   0.465  0.00  0.00    +0.101 C 
ATOM     15  N   LIG    1        2.965   0.871  -0.689  0.00  0.00    -0.277 NA
ATOM     16  H   LIG    1        3.091   1.583  -1.469  0.00  0.00    +0.125 HD
ENDBRANCH   9  11
ENDBRANCH   1   9
BRANCH   2  17
ATOM     17  O   LIG    1       -0.873   1.755  -0.163  0.00  0.00    -0.478 OA
ATOM     18  C   LIG    1       -1.536   2.811   0.473  0.00  0.00    +0.279 C 
ENDBRANCH   2  17
TORSDOF 3
