REMARK  Name = molecules/WPUKUEMZZRVAKZ-NZQKXSOJSA-N.pdb
REMARK                            x       y       z     vdW  Elec       q    Type
REMARK                         _______ _______ _______ _____ _____    ______ ____
ROOT
ATOM      1  C   LIG    1       -2.303  -0.298   1.439  0.00  0.00    +0.213 C 
ENDROOT
BRANCH   1   2
ATOM      2  C   LIG    1       -2.627   1.111   1.117  0.00  0.00    -0.001 A 
ATOM      3  C   LIG    1       -3.925   1.533   1.313  0.00  0.00    +0.007 A 
ATOM      4  C   LIG    1       -4.341   2.816   1.046  0.00  0.00    +0.000 A 
ATOM      5  C   LIG    1       -3.442   3.742   0.561  0.00  0.00    +0.000 A 
ATOM      6  C   LIG    1       -2.121   3.332   0.356  0.00  0.00    +0.000 A 
ATOM      7  C   LIG    1       -1.726   2.025   0.635  0.00  0.00    +0.007 A 
ENDBRANCH   1   2
BRANCH   1   8
ATOM      8  C   LIG    1       -3.042  -1.163   0.460  0.00  0.00    -0.001 A 
ATOM      9  C   LIG    1       -3.949  -2.112   0.878  0.00  0.00    +0.007 A 
ATOM     10  C   LIG    1       -4.630  -2.902  -0.025  0.00  0.00    +0.000 A 
ATOM     11  C   LIG    1       -4.431  -2.777  -1.387  0.00  0.00    +0.000 A 
ATOM     12  C   LIG    1       -3.526  -1.830  -1.812  0.00  0.00    +0.000 A 
ATOM     13  C   LIG    1       -2.848  -1.043  -0.907  0.00  0.00    +0.007 A 
ENDBRANCH   1   8
BRANCH   1  14
ATOM     14  O   LIG    1       -2.871  -0.527   2.717  0.00  0.00    -0.370 OA
ATOM     15  H   LIG    1       -2.542   0.206   3.282  0.00  0.00    +0.212 HD
ENDBRANCH   1  14
BRANCH   1  16
ATOM     16  C   LIG    1       -0.879  -0.606   1.491  0.00  0.00    +0.349 C 
ATOM     17  O   LIG    1       -0.342  -0.960   2.570  0.00  0.00    -0.247 OA
BRANCH  16  18
ATOM     18  O   LIG    1       -0.090  -0.521   0.380  0.00  0.00    -0.461 OA
BRANCH  18  19
ATOM     19  C   LIG    1        1.297  -0.806   0.363  0.00  0.00    +0.161 C 
ATOM     20  C   LIG    1        2.030   0.444  -0.051  0.00  0.00    -0.030 C 
ATOM     21  N   LIG    1        3.415   0.208  -0.372  0.00  0.00    +0.380 N 
ATOM     22  C   LIG    1        4.189   0.098   0.877  0.00  0.00    -0.092 C 
ATOM     23  C   LIG    1        3.669  -0.968  -1.138  0.00  0.00    -0.075 C 
ATOM     24  C   LIG    1        2.418  -1.502  -1.762  0.00  0.00    -0.015 C 
ATOM     25  C   LIG    1        1.488  -1.927  -0.646  0.00  0.00    +0.041 C 
BRANCH  21  26
ATOM     26  C   LIG    1        3.902   1.428  -1.002  0.00  0.00    -0.079 C 
ATOM     27  C   LIG    1        5.292   1.343  -1.517  0.00  0.00    -0.016 C 
ENDBRANCH  21  26
ENDBRANCH  18  19
ENDBRANCH  16  18
ENDBRANCH   1  16
TORSDOF 7
