REMARK  Name = molecules/WPVFJKSGQUFQAP-IUCAKERBSA-N.pdb
REMARK                            x       y       z     vdW  Elec       q    Type
REMARK                         _______ _______ _______ _____ _____    ______ ____
ROOT
ATOM      1  O   LIG    1       -0.891  -2.470  -0.884  0.00  0.00    -0.350 OA
ENDROOT
BRANCH   1   2
ATOM      2  C   LIG    1       -0.431  -3.089   0.236  0.00  0.00    +0.183 C 
BRANCH   2   3
ATOM      3  C   LIG    1        0.947  -2.745   0.677  0.00  0.00    +0.266 C 
BRANCH   3   4
ATOM      4  O   LIG    1        1.218  -1.423   0.967  0.00  0.00    -0.461 OA
BRANCH   4   5
ATOM      5  C   LIG    1        1.179  -0.336   0.139  0.00  0.00    +0.324 C 
ATOM      6  O   LIG    1        0.859  -0.538  -1.057  0.00  0.00    -0.249 OA
BRANCH   5   7
ATOM      7  C   LIG    1        1.483   1.061   0.538  0.00  0.00    +0.163 C 
BRANCH   7   9
ATOM      8  C   LIG    1        3.012   2.970   0.050  0.00  0.00    +0.009 C 
ATOM      9  C   LIG    1        2.685   1.511  -0.303  0.00  0.00    +0.010 C 
ATOM     10  C   LIG    1        2.454   1.347  -1.772  0.00  0.00    +0.009 C 
ENDBRANCH   7   9
BRANCH   7  11
ATOM     11  N   LIG    1        1.813   1.169   1.940  0.00  0.00    -0.318 NA
ATOM     12  H   LIG    1        1.375   1.966   2.419  0.00  0.00    +0.119 HD
ATOM     13  H   LIG    1        2.795   0.995   2.163  0.00  0.00    +0.119 HD
ENDBRANCH   7  11
ENDBRANCH   5   7
ENDBRANCH   4   5
ENDBRANCH   3   4
ENDBRANCH   2   3
BRANCH   2  14
ATOM     14  C   LIG    1       -0.389  -4.616  -0.080  0.00  0.00    +0.190 C 
BRANCH  14  15
ATOM     15  O   LIG    1        0.081  -5.274   1.056  0.00  0.00    -0.392 OA
ATOM     16  H   LIG    1       -0.281  -4.917   1.895  0.00  0.00    +0.210 HD
ENDBRANCH  14  15
ENDBRANCH   2  14
ENDBRANCH   1   2
BRANCH   1  17
ATOM     17  C   LIG    1       -2.143  -1.960  -0.789  0.00  0.00    +0.288 C 
BRANCH  17  18
ATOM     18  N   LIG    1       -2.362  -0.934   0.194  0.00  0.00    -0.291 N 
ATOM     19  C   LIG    1       -2.762  -1.087   1.466  0.00  0.00    +0.203 A 
ATOM     20  N   LIG    1       -2.838   0.163   1.986  0.00  0.00    -0.229 NA
ATOM     21  C   LIG    1       -2.496   1.065   1.061  0.00  0.00    +0.172 A 
ATOM     22  C   LIG    1       -2.401   2.454   1.034  0.00  0.00    +0.280 A 
ATOM     23  O   LIG    1       -2.681   3.072   2.084  0.00  0.00    -0.265 OA
ATOM     24  N   LIG    1       -2.020   3.059  -0.096  0.00  0.00    -0.293 N 
ATOM     25  H   LIG    1       -1.953   4.102  -0.101  0.00  0.00    +0.172 HD
ATOM     26  C   LIG    1       -1.717   2.400  -1.230  0.00  0.00    +0.195 A 
ATOM     27  N   LIG    1       -1.806   1.058  -1.211  0.00  0.00    -0.196 NA
ATOM     28  C   LIG    1       -2.187   0.391  -0.092  0.00  0.00    +0.171 A 
BRANCH  26  29
ATOM     29  N   LIG    1       -1.326   3.138  -2.368  0.00  0.00    -0.329 N 
ATOM     30  H   LIG    1       -0.663   3.921  -2.277  0.00  0.00    +0.145 HD
ATOM     31  H   LIG    1       -1.701   2.897  -3.301  0.00  0.00    +0.145 HD
ENDBRANCH  26  29
ENDBRANCH  17  18
ENDBRANCH   1  17
TORSDOF 12
