REMARK  Name = molecules/WQVAYGCXSJMPRT-UHFFFAOYSA-N.pdb
REMARK                            x       y       z     vdW  Elec       q    Type
REMARK                         _______ _______ _______ _____ _____    ______ ____
ROOT
ATOM      1  C   LIG    1        1.782   0.036   0.168  0.00  0.00    +0.211 C 
ENDROOT
BRANCH   1   2
ATOM      2  N   LIG    1        3.080   0.184  -0.501  0.00  0.00    -0.275 N 
ATOM      3  H   LIG    1        3.186   0.040  -1.524  0.00  0.00    +0.258 HD
BRANCH   2   4
ATOM      4  C   LIG    1        4.243   0.543   0.239  0.00  0.00    +0.376 C 
ATOM      5  N   LIG    1        5.262  -0.398   0.463  0.00  0.00    -0.289 N 
ATOM      6  H   LIG    1        5.029  -1.298   0.926  0.00  0.00    +0.255 HD
ATOM      7  H   LIG    1        6.277  -0.245   0.186  0.00  0.00    +0.255 HD
BRANCH   4   8
ATOM      8  N   LIG    1        4.366   1.773   0.701  0.00  0.00    -0.130 NA
ATOM      9  H   LIG    1        3.557   2.451   0.484  0.00  0.00    +0.306 HD
ENDBRANCH   4   8
ENDBRANCH   2   4
ENDBRANCH   1   2
BRANCH   1  10
ATOM     10  C   LIG    1        0.758  -0.031  -0.930  0.00  0.00    +0.121 C 
BRANCH  10  11
ATOM     11  N   LIG    1       -0.576  -0.134  -0.543  0.00  0.00    -0.295 NA
ATOM     12  C   LIG    1       -0.994  -1.067   0.439  0.00  0.00    +0.111 C 
ATOM     13  C   LIG    1       -2.209  -0.416   1.065  0.00  0.00    -0.013 C 
ATOM     14  C   LIG    1       -3.159  -0.049   0.219  0.00  0.00    -0.074 C 
ATOM     15  C   LIG    1       -4.398   0.633   0.703  0.00  0.00    +0.039 C 
ATOM     16  C   LIG    1       -2.925  -0.318  -1.238  0.00  0.00    +0.045 C 
ATOM     17  C   LIG    1       -1.502  -0.021  -1.618  0.00  0.00    +0.089 C 
ENDBRANCH  10  11
ENDBRANCH   1  10
TORSDOF 5
