REMARK  Name = molecules/WQZGKKKJIJFFOK-VFUOTHLCSA-N.pdb
REMARK                            x       y       z     vdW  Elec       q    Type
REMARK                         _______ _______ _______ _____ _____    ______ ____
ROOT
ATOM      1  O   LIG    1        0.360   1.261  -0.652  0.00  0.00    -0.341 OA
ATOM      2  C   LIG    1        0.995   0.322   0.145  0.00  0.00    +0.178 C 
ATOM      3  C   LIG    1        0.280  -0.992  -0.067  0.00  0.00    +0.177 C 
ATOM      4  C   LIG    1       -1.183  -0.912   0.235  0.00  0.00    +0.179 C 
ATOM      5  C   LIG    1       -1.815   0.396  -0.032  0.00  0.00    +0.201 C 
ATOM      6  C   LIG    1       -0.921   1.538  -0.290  0.00  0.00    +0.279 C 
ENDROOT
BRANCH   3   7
ATOM      7  O   LIG    1        0.929  -1.955   0.698  0.00  0.00    -0.386 OA
ATOM      8  H   LIG    1        0.691  -1.825   1.641  0.00  0.00    +0.210 HD
ENDBRANCH   3   7
BRANCH   5   9
ATOM      9  O   LIG    1       -2.623   0.721   1.085  0.00  0.00    -0.384 OA
ATOM     10  H   LIG    1       -2.070   0.590   1.901  0.00  0.00    +0.210 HD
ENDBRANCH   5   9
BRANCH   4  11
ATOM     11  O   LIG    1       -1.806  -1.951  -0.497  0.00  0.00    -0.386 OA
ATOM     12  H   LIG    1       -1.306  -2.133  -1.338  0.00  0.00    +0.210 HD
ENDBRANCH   4  11
BRANCH   6  13
ATOM     13  O   LIG    1       -1.480   2.315  -1.334  0.00  0.00    -0.365 OA
ATOM     14  H   LIG    1       -0.967   2.202  -2.168  0.00  0.00    +0.213 HD
ENDBRANCH   6  13
BRANCH   2  15
ATOM     15  C   LIG    1        2.417   0.152  -0.356  0.00  0.00    +0.190 C 
BRANCH  15  16
ATOM     16  O   LIG    1        3.097  -0.794   0.427  0.00  0.00    -0.392 OA
ATOM     17  H   LIG    1        3.332  -0.431   1.316  0.00  0.00    +0.210 HD
ENDBRANCH  15  16
ENDBRANCH   2  15
TORSDOF 6
