REMARK  Name = molecules/WRGOVNKNTPWHLZ-HOTGVXAUSA-N.pdb
REMARK                            x       y       z     vdW  Elec       q    Type
REMARK                         _______ _______ _______ _____ _____    ______ ____
ROOT
ATOM      1  C   LIG    1       -0.078  -0.627  -1.177  0.00  0.00    +0.069 C 
ENDROOT
BRANCH   1   2
ATOM      2  C   LIG    1       -1.224  -0.288  -0.310  0.00  0.00    +0.087 A 
ATOM      3  C   LIG    1       -1.570  -0.985   0.810  0.00  0.00    +0.345 A 
ATOM      4  O   LIG    1       -2.591  -0.672   1.568  0.00  0.00    -0.422 OA
ATOM      5  C   LIG    1       -3.374   0.335   1.327  0.00  0.00    +0.143 A 
ATOM      6  C   LIG    1       -4.449   0.627   2.168  0.00  0.00    +0.047 A 
ATOM      7  C   LIG    1       -5.271   1.684   1.916  0.00  0.00    +0.004 A 
ATOM      8  C   LIG    1       -4.995   2.442   0.804  0.00  0.00    +0.001 A 
ATOM      9  C   LIG    1       -3.943   2.191  -0.055  0.00  0.00    +0.015 A 
ATOM     10  C   LIG    1       -3.107   1.116   0.202  0.00  0.00    +0.059 A 
ATOM     11  O   LIG    1       -0.868  -1.983   1.128  0.00  0.00    -0.245 OA
ATOM     12  C   LIG    1       -2.036   0.815  -0.625  0.00  0.00    +0.138 A 
BRANCH  12  13
ATOM     13  O   LIG    1       -1.760   1.577  -1.739  0.00  0.00    -0.506 OA
ATOM     14  H   LIG    1       -2.254   2.373  -2.064  0.00  0.00    +0.292 HD
ENDBRANCH  12  13
ENDBRANCH   1   2
BRANCH   1  15
ATOM     15  C   LIG    1       -0.228  -2.047  -1.661  0.00  0.00    -0.001 A 
ATOM     16  C   LIG    1        0.394  -3.176  -1.198  0.00  0.00    +0.013 A 
ATOM     17  C   LIG    1        0.096  -4.333  -1.805  0.00  0.00    +0.028 A 
ATOM     18  C   LIG    1       -0.801  -4.294  -2.833  0.00  0.00    +0.078 A 
ATOM     19 CL   LIG    1       -1.385  -5.651  -3.816  0.00  0.00    -0.076 Cl
ATOM     20  S   LIG    1       -1.209  -2.645  -2.930  0.00  0.00    -0.081 S 
ENDBRANCH   1  15
BRANCH   1  21
ATOM     21  C   LIG    1        1.252  -0.517  -0.490  0.00  0.00    +0.050 C 
BRANCH  21  22
ATOM     22  C   LIG    1        1.534   0.870   0.018  0.00  0.00    +0.145 C 
BRANCH  22  23
ATOM     23  C   LIG    1        2.897   0.920   0.603  0.00  0.00    -0.019 A 
ATOM     24  C   LIG    1        3.632  -0.196   0.906  0.00  0.00    +0.007 A 
ATOM     25  C   LIG    1        4.894  -0.149   1.446  0.00  0.00    +0.020 A 
ATOM     26  C   LIG    1        5.454   1.081   1.698  0.00  0.00    +0.041 A 
ATOM     27 CL   LIG    1        7.074   1.194   2.392  0.00  0.00    -0.084 Cl
ATOM     28  C   LIG    1        4.739   2.215   1.405  0.00  0.00    +0.020 A 
ATOM     29  C   LIG    1        3.473   2.170   0.863  0.00  0.00    +0.007 A 
ENDBRANCH  22  23
BRANCH  22  30
ATOM     30  O   LIG    1        1.536   1.805  -1.027  0.00  0.00    -0.387 OA
ATOM     31  H   LIG    1        1.981   1.435  -1.819  0.00  0.00    +0.210 HD
ENDBRANCH  22  30
ENDBRANCH  21  22
ENDBRANCH   1  21
TORSDOF 7
