REMARK  Name = molecules/WRUUGTRCQOWXEG-UHFFFAOYSA-N.pdb
REMARK                            x       y       z     vdW  Elec       q    Type
REMARK                         _______ _______ _______ _____ _____    ______ ____
ROOT
ATOM      1  C   LIG    1        0.286  -0.136  -0.400  0.00  0.00    +0.268 C 
ENDROOT
BRANCH   1   2
ATOM      2  P   LIG    1        1.471   1.161  -0.912  0.00  0.00    +0.371 P 
ATOM      3  O   LIG    1        1.692   1.103  -2.394  0.00  0.00    -0.255 OA
BRANCH   2   4
ATOM      4  O   LIG    1        2.968   0.933  -0.161  0.00  0.00    -0.322 OA
ATOM      5  H   LIG    1        3.704   0.810  -0.783  0.00  0.00    +0.220 HD
ENDBRANCH   2   4
BRANCH   2   6
ATOM      6  O   LIG    1        0.899   2.684  -0.415  0.00  0.00    -0.322 OA
ATOM      7  H   LIG    1        1.076   3.309  -1.145  0.00  0.00    +0.220 HD
ENDBRANCH   2   6
ENDBRANCH   1   2
BRANCH   1   8
ATOM      8  P   LIG    1        1.004  -0.993   1.006  0.00  0.00    +0.371 P 
ATOM      9  O   LIG    1        1.216   0.027   2.107  0.00  0.00    -0.255 OA
BRANCH   8  10
ATOM     10  O   LIG    1        0.087  -2.274   1.552  0.00  0.00    -0.322 OA
ATOM     11  H   LIG    1        0.688  -2.850   2.120  0.00  0.00    +0.220 HD
ENDBRANCH   8  10
BRANCH   8  12
ATOM     12  O   LIG    1        2.516  -1.612   0.499  0.00  0.00    -0.322 OA
ATOM     13  H   LIG    1        2.561  -1.688  -0.475  0.00  0.00    +0.220 HD
ENDBRANCH   8  12
ENDBRANCH   1   8
BRANCH   1  14
ATOM     14  O   LIG    1        0.074  -0.973  -1.482  0.00  0.00    -0.367 OA
ATOM     15  H   LIG    1       -0.229  -1.877  -1.223  0.00  0.00    +0.212 HD
ENDBRANCH   1  14
BRANCH   1  16
ATOM     16  C   LIG    1       -1.012   0.548  -0.068  0.00  0.00    +0.075 C 
BRANCH  16  17
ATOM     17  C   LIG    1       -2.084  -0.400   0.371  0.00  0.00    +0.081 C 
BRANCH  17  18
ATOM     18  N   LIG    1       -3.275   0.394   0.658  0.00  0.00    -0.330 NA
ATOM     19  H   LIG    1       -3.128   1.405   0.483  0.00  0.00    +0.118 HD
ATOM     20  H   LIG    1       -4.105   0.038   0.124  0.00  0.00    +0.118 HD
ENDBRANCH  17  18
ENDBRANCH  16  17
ENDBRANCH   1  16
TORSDOF 10
