REMARK  Name = molecules/WRYZEGZNBYOMLE-UHFFFAOYSA-N.pdb
REMARK                            x       y       z     vdW  Elec       q    Type
REMARK                         _______ _______ _______ _____ _____    ______ ____
ROOT
ATOM      1  C   LIG    1        0.492   1.290   0.412  0.00  0.00    +0.084 C 
ATOM      2  C   LIG    1       -0.829   0.922   0.375  0.00  0.00    +0.090 C 
ATOM      3  C   LIG    1       -1.126  -0.404   0.103  0.00  0.00    +0.151 C 
ATOM      4  N   LIG    1       -0.104  -1.251  -0.109  0.00  0.00    -0.091 NA
ATOM      5  N   LIG    1        1.168  -0.898  -0.074  0.00  0.00    -0.108 N 
ATOM      6  H   LIG    1        1.949  -1.585  -0.245  0.00  0.00    +0.327 HD
ATOM      7  C   LIG    1        1.495   0.363   0.183  0.00  0.00    +0.339 C 
ENDROOT
BRANCH   3   8
ATOM      8  C   LIG    1       -2.516  -0.812   0.060  0.00  0.00    +0.260 C 
ATOM      9  N   LIG    1       -3.562   0.117   0.290  0.00  0.00    -0.324 N 
ATOM     10  H   LIG    1       -3.526   0.851   1.039  0.00  0.00    +0.145 HD
ATOM     11  H   LIG    1       -4.435   0.114  -0.287  0.00  0.00    +0.145 HD
ATOM     12  O   LIG    1       -2.778  -2.014  -0.187  0.00  0.00    -0.269 OA
ENDBRANCH   3   8
BRANCH   7  13
ATOM     13  N   LIG    1        2.729   0.735   0.224  0.00  0.00    +0.049 NA
BRANCH  13  14
ATOM     14  N   LIG    1        3.709  -0.233  -0.013  0.00  0.00    -0.138 NA
ATOM     15  H   LIG    1        4.450  -0.320   0.744  0.00  0.00    +0.170 HD
ATOM     16  H   LIG    1        3.752  -0.839  -0.843  0.00  0.00    +0.170 HD
ENDBRANCH  13  14
ENDBRANCH   7  13
TORSDOF 3
