REMARK  Name = molecules/WSEQXVZVJXJVFP-HXUWFJFHSA-N.pdb
REMARK                            x       y       z     vdW  Elec       q    Type
REMARK                         _______ _______ _______ _____ _____    ______ ____
ROOT
ATOM      1  C   LIG    1       -0.828  -0.590  -0.338  0.00  0.00    +0.120 C 
ATOM      2  C   LIG    1       -1.123   0.723   0.291  0.00  0.00    -0.006 A 
ATOM      3  C   LIG    1       -1.034   1.227   1.563  0.00  0.00    +0.008 A 
ATOM      4  C   LIG    1       -1.404   2.542   1.849  0.00  0.00    +0.019 A 
ATOM      5  C   LIG    1       -1.862   3.349   0.858  0.00  0.00    +0.052 A 
ATOM      6  C   LIG    1       -1.953   2.848  -0.424  0.00  0.00    +0.025 A 
ATOM      7  C   LIG    1       -1.587   1.536  -0.720  0.00  0.00    -0.014 A 
ATOM      8  C   LIG    1       -1.583   0.747  -1.978  0.00  0.00    +0.197 C 
ATOM      9  O   LIG    1       -0.849  -0.379  -1.708  0.00  0.00    -0.360 OA
ENDROOT
BRANCH   1  10
ATOM     10  C   LIG    1       -1.833  -1.603   0.009  0.00  0.00    -0.011 A 
ATOM     11  C   LIG    1       -3.104  -1.215   0.472  0.00  0.00    +0.009 A 
ATOM     12  C   LIG    1       -4.078  -2.118   0.808  0.00  0.00    +0.039 A 
ATOM     13  C   LIG    1       -3.761  -3.458   0.674  0.00  0.00    +0.123 A 
ATOM     14  F   LIG    1       -4.690  -4.402   0.991  0.00  0.00    -0.205 F 
ATOM     15  C   LIG    1       -2.539  -3.888   0.228  0.00  0.00    +0.039 A 
ATOM     16  C   LIG    1       -1.575  -2.936  -0.104  0.00  0.00    +0.009 A 
ENDBRANCH   1  10
BRANCH   5  17
ATOM     17  C   LIG    1       -2.257   4.718   1.096  0.00  0.00    +0.099 C 
ATOM     18  N   LIG    1       -2.561   5.819   1.282  0.00  0.00    -0.191 NA
ENDBRANCH   5  17
BRANCH   1  19
ATOM     19  C   LIG    1        0.541  -1.036   0.043  0.00  0.00    +0.046 C 
BRANCH  19  20
ATOM     20  C   LIG    1        1.597  -0.008  -0.425  0.00  0.00    +0.019 C 
BRANCH  20  21
ATOM     21  C   LIG    1        2.922  -0.545   0.002  0.00  0.00    +0.084 C 
BRANCH  21  22
ATOM     22  N   LIG    1        4.045   0.255  -0.354  0.00  0.00    -0.308 NA
ATOM     23  C   LIG    1        4.158   1.516   0.307  0.00  0.00    +0.104 C 
ATOM     24  C   LIG    1        5.241  -0.528  -0.179  0.00  0.00    +0.104 C 
ENDBRANCH  21  22
ENDBRANCH  20  21
ENDBRANCH  19  20
ENDBRANCH   1  19
TORSDOF 6
