REMARK  Name = molecules/WSNODXPBBALQOF-VEJSHDCNSA-N.pdb
REMARK                            x       y       z     vdW  Elec       q    Type
REMARK                         _______ _______ _______ _____ _____    ______ ____
ROOT
ATOM      1  C   LIG    1        1.019   0.612  -0.439  0.00  0.00    +0.031 C 
ATOM      2  C   LIG    1        1.852  -0.238   0.442  0.00  0.00    +0.046 C 
ATOM      3  C   LIG    1        2.422   0.700   1.460  0.00  0.00    +0.124 C 
ATOM      4  C   LIG    1        2.429   2.075   0.887  0.00  0.00    +0.063 C 
ATOM      5  C   LIG    1        1.748   1.940  -0.445  0.00  0.00    +0.121 C 
ENDROOT
BRANCH   3   6
ATOM      6  O   LIG    1        1.791   0.610   2.694  0.00  0.00    -0.391 OA
ATOM      7  H   LIG    1        1.385  -0.291   2.747  0.00  0.00    +0.210 HD
ENDBRANCH   3   6
BRANCH   2   8
ATOM      8  C   LIG    1        2.943  -0.840  -0.412  0.00  0.00    -0.019 C 
ATOM      9  C   LIG    1        3.154  -2.148  -0.469  0.00  0.00    +0.047 C 
BRANCH   9  10
ATOM     10  C   LIG    1        4.251  -2.712  -1.331  0.00  0.00    +0.300 C 
ATOM     11  F   LIG    1        4.118  -4.057  -1.495  0.00  0.00    -0.197 F 
ATOM     12  F   LIG    1        4.210  -2.070  -2.567  0.00  0.00    -0.197 F 
BRANCH  10  13
ATOM     13  C   LIG    1        5.556  -2.400  -0.631  0.00  0.00    +0.308 C 
BRANCH  13  14
ATOM     14  O   LIG    1        5.737  -1.005  -0.470  0.00  0.00    -0.486 OA
BRANCH  14  15
ATOM     15  C   LIG    1        6.851  -0.460   0.140  0.00  0.00    +0.121 A 
ATOM     16  C   LIG    1        7.890  -1.204   0.650  0.00  0.00    +0.045 A 
ATOM     17  C   LIG    1        8.992  -0.619   1.255  0.00  0.00    +0.004 A 
ATOM     18  C   LIG    1        9.053   0.738   1.351  0.00  0.00    +0.000 A 
ATOM     19  C   LIG    1        8.028   1.512   0.850  0.00  0.00    +0.004 A 
ATOM     20  C   LIG    1        6.932   0.912   0.247  0.00  0.00    +0.045 A 
ENDBRANCH  14  15
ENDBRANCH  13  14
ENDBRANCH  10  13
ENDBRANCH   9  10
ENDBRANCH   2   8
BRANCH   5  21
ATOM     21  O   LIG    1        0.805   2.972  -0.540  0.00  0.00    -0.391 OA
ATOM     22  H   LIG    1        0.445   3.032  -1.449  0.00  0.00    +0.210 HD
ENDBRANCH   5  21
BRANCH   1  23
ATOM     23  C   LIG    1       -0.376   0.867   0.067  0.00  0.00    +0.033 C 
BRANCH  23  24
ATOM     24  C   LIG    1       -1.178  -0.328   0.253  0.00  0.00    -0.031 C 
ATOM     25  C   LIG    1       -2.309  -0.620  -0.341  0.00  0.00    -0.031 C 
BRANCH  25  26
ATOM     26  C   LIG    1       -2.936   0.261  -1.315  0.00  0.00    +0.027 C 
BRANCH  26  27
ATOM     27  C   LIG    1       -4.305   0.743  -0.950  0.00  0.00    +0.015 C 
BRANCH  27  28
ATOM     28  C   LIG    1       -5.323  -0.328  -0.754  0.00  0.00    +0.121 C 
BRANCH  28  29
ATOM     29  C   LIG    1       -6.615   0.319  -0.400  0.00  0.00    +0.307 C 
ATOM     30  O   LIG    1       -6.724   1.580  -0.306  0.00  0.00    -0.251 OA
BRANCH  29  31
ATOM     31  O   LIG    1       -7.769  -0.407  -0.152  0.00  0.00    -0.462 OA
BRANCH  31  32
ATOM     32  C   LIG    1       -9.005   0.128   0.183  0.00  0.00    +0.170 C 
ATOM     33  C   LIG    1       -9.530  -0.311   1.520  0.00  0.00    +0.052 C 
ATOM     34  C   LIG    1      -10.083  -0.157  -0.848  0.00  0.00    +0.052 C 
ENDBRANCH  31  32
ENDBRANCH  29  31
ENDBRANCH  28  29
ENDBRANCH  27  28
ENDBRANCH  26  27
ENDBRANCH  25  26
ENDBRANCH  23  24
ENDBRANCH   1  23
TORSDOF 15
