REMARK  Name = molecules/WSWDKMFWJOALEW-MAUKXSAKSA-N.pdb
REMARK                            x       y       z     vdW  Elec       q    Type
REMARK                         _______ _______ _______ _____ _____    ______ ____
ROOT
ATOM      1  C   LIG    1       -2.194   0.518   0.516  0.00  0.00    +0.130 C 
ENDROOT
BRANCH   1   4
ATOM      2  C   LIG    1       -4.709   3.258   0.041  0.00  0.00    +0.000 A 
ATOM      3  C   LIG    1       -3.788   2.381   0.566  0.00  0.00    +0.004 A 
ATOM      4  C   LIG    1       -3.168   1.407  -0.181  0.00  0.00    -0.033 A 
ATOM      5  C   LIG    1       -3.482   1.304  -1.515  0.00  0.00    +0.004 A 
ATOM      6  C   LIG    1       -4.409   2.181  -2.059  0.00  0.00    +0.000 A 
ATOM      7  C   LIG    1       -5.018   3.148  -1.296  0.00  0.00    +0.000 A 
ENDBRANCH   1   4
BRANCH   1   8
ATOM      8  C   LIG    1       -2.757  -0.857   0.726  0.00  0.00    +0.004 C 
ATOM      9  C   LIG    1       -3.123  -1.589  -0.526  0.00  0.00    +0.008 C 
BRANCH   8  10
ATOM     10  C   LIG    1       -1.840  -1.640   1.629  0.00  0.00    +0.001 C 
ATOM     11  C   LIG    1       -1.700  -0.942   2.969  0.00  0.00    +0.004 C 
ENDBRANCH   8  10
ENDBRANCH   1   8
BRANCH   1  12
ATOM     12  C   LIG    1       -0.937   0.574  -0.238  0.00  0.00    +0.315 C 
ATOM     13  O   LIG    1       -0.810   1.245  -1.314  0.00  0.00    -0.250 OA
BRANCH  12  14
ATOM     14  O   LIG    1        0.183  -0.098   0.177  0.00  0.00    -0.461 OA
BRANCH  14  15
ATOM     15  C   LIG    1        1.426  -0.088  -0.497  0.00  0.00    +0.173 C 
ATOM     16  C   LIG    1        2.411   0.608   0.449  0.00  0.00    +0.026 C 
ATOM     17  C   LIG    1        3.679   0.694  -0.375  0.00  0.00    -0.072 C 
ATOM     18  N   LIG    1        4.261  -0.622  -0.403  0.00  0.00    +0.376 N 
ATOM     19  C   LIG    1        5.085  -0.720   0.817  0.00  0.00    -0.092 C 
ATOM     20  C   LIG    1        3.369  -1.698  -0.524  0.00  0.00    -0.072 C 
ATOM     21  C   LIG    1        5.245  -0.590  -1.496  0.00  0.00    -0.092 C 
ATOM     22  C   LIG    1        1.950  -1.441  -0.800  0.00  0.00    +0.026 C 
ENDBRANCH  14  15
ENDBRANCH  12  14
ENDBRANCH   1  12
TORSDOF 6
