REMARK  Name = molecules/WTBQLHRVRKXSPX-QWRGUYRKSA-N.pdb
REMARK                            x       y       z     vdW  Elec       q    Type
REMARK                         _______ _______ _______ _____ _____    ______ ____
ROOT
ATOM      1  N   LIG    1        1.013   0.004  -0.223  0.00  0.00    -0.315 N 
ATOM      2  C   LIG    1        2.271   0.173   0.414  0.00  0.00    +0.215 C 
ATOM      3  O   LIG    1        2.290   0.333   1.657  0.00  0.00    -0.276 OA
ATOM      4  H   LIG    1        1.065  -0.117  -1.260  0.00  0.00    +0.149 HD
ENDROOT
BRANCH   1   5
ATOM      5  C   LIG    1       -0.156   0.025   0.575  0.00  0.00    +0.107 C 
BRANCH   5   6
ATOM      6  C   LIG    1       -1.466  -0.167  -0.101  0.00  0.00    +0.006 C 
BRANCH   6   7
ATOM      7  C   LIG    1       -1.707  -1.497  -0.723  0.00  0.00    +0.002 C 
ATOM      8  C   LIG    1       -0.750  -1.906  -1.798  0.00  0.00    +0.004 C 
ENDBRANCH   6   7
BRANCH   6   9
ATOM      9  C   LIG    1       -2.489  -0.061   1.050  0.00  0.00    +0.005 C 
BRANCH   9  10
ATOM     10  C   LIG    1       -3.894  -0.231   0.599  0.00  0.00    +0.000 C 
BRANCH  10  11
ATOM     11  C   LIG    1       -4.231   0.837  -0.414  0.00  0.00    -0.003 C 
ATOM     12  C   LIG    1       -4.060   2.197   0.198  0.00  0.00    +0.004 C 
ENDBRANCH  10  11
ENDBRANCH   9  10
ENDBRANCH   6   9
ENDBRANCH   5   6
ENDBRANCH   1   5
BRANCH   2  13
ATOM     13  C   LIG    1        3.556   0.167  -0.322  0.00  0.00    +0.126 C 
BRANCH  13  14
ATOM     14  C   LIG    1        4.687   0.367   0.627  0.00  0.00    +0.120 C 
ATOM     15  C   LIG    1        6.035   0.374  -0.050  0.00  0.00    +0.038 C 
BRANCH  14  16
ATOM     16  O   LIG    1        4.640  -0.628   1.587  0.00  0.00    -0.392 OA
ATOM     17  H   LIG    1        4.751  -1.499   1.145  0.00  0.00    +0.210 HD
ENDBRANCH  14  16
ENDBRANCH  13  14
ENDBRANCH   2  13
TORSDOF 9
