REMARK  Name = molecules/WTDGMHYYGNJEKQ-ZETCQYMHSA-N.pdb
REMARK                            x       y       z     vdW  Elec       q    Type
REMARK                         _______ _______ _______ _____ _____    ______ ____
ROOT
ATOM      1  C   LIG    1       -0.401  -0.102  -0.581  0.00  0.00    -0.042 A 
ATOM      2  C   LIG    1       -1.290  -1.128  -0.339  0.00  0.00    +0.049 A 
ATOM      3  C   LIG    1       -2.600  -0.865   0.009  0.00  0.00    +0.117 A 
ATOM      4  C   LIG    1       -3.030   0.428   0.116  0.00  0.00    +0.045 A 
ATOM      5  C   LIG    1       -2.178   1.487  -0.117  0.00  0.00    +0.004 A 
ATOM      6  C   LIG    1       -0.874   1.187  -0.463  0.00  0.00    +0.004 A 
ENDROOT
BRANCH   3   7
ATOM      7  O   LIG    1       -3.501  -1.915   0.255  0.00  0.00    -0.507 OA
ATOM      8  H   LIG    1       -3.614  -2.303   1.186  0.00  0.00    +0.292 HD
ENDBRANCH   3   7
BRANCH   1   9
ATOM      9  C   LIG    1        1.002  -0.290  -0.954  0.00  0.00    +0.053 C 
BRANCH   9  11
ATOM     10  C   LIG    1        1.865   0.918   1.050  0.00  0.00    +0.024 C 
ATOM     11  C   LIG    1        1.936  -0.359   0.240  0.00  0.00    +0.052 C 
BRANCH  11  12
ATOM     12  N   LIG    1        3.288  -0.419  -0.317  0.00  0.00    -0.327 NA
ATOM     13  H   LIG    1        4.001  -0.614   0.392  0.00  0.00    +0.118 HD
ATOM     14  H   LIG    1        3.335  -0.986  -1.169  0.00  0.00    +0.118 HD
ENDBRANCH  11  12
ENDBRANCH   9  11
ENDBRANCH   1   9
TORSDOF 4
