REMARK  Name = molecules/WTDRDQBEARUVNC-LURJTMIESA-N.pdb
REMARK                            x       y       z     vdW  Elec       q    Type
REMARK                         _______ _______ _______ _____ _____    ______ ____
ROOT
ATOM      1  C   LIG    1        0.178   0.068  -0.424  0.00  0.00    -0.042 A 
ATOM      2  C   LIG    1        1.038   1.065   0.018  0.00  0.00    +0.053 A 
ATOM      3  C   LIG    1        2.385   0.844   0.169  0.00  0.00    +0.158 A 
ATOM      4  C   LIG    1        2.918  -0.385  -0.119  0.00  0.00    +0.158 A 
ATOM      5  C   LIG    1        2.097  -1.401  -0.560  0.00  0.00    +0.049 A 
ATOM      6  C   LIG    1        0.728  -1.157  -0.707  0.00  0.00    +0.007 A 
ENDROOT
BRANCH   3   7
ATOM      7  O   LIG    1        3.161   1.914   0.619  0.00  0.00    -0.503 OA
ATOM      8  H   LIG    1        4.154   1.758   0.732  0.00  0.00    +0.292 HD
ENDBRANCH   3   7
BRANCH   4   9
ATOM      9  O   LIG    1        4.285  -0.551   0.052  0.00  0.00    -0.503 OA
ATOM     10  H   LIG    1        4.726  -1.425  -0.142  0.00  0.00    +0.292 HD
ENDBRANCH   4   9
BRANCH   1  11
ATOM     11  C   LIG    1       -1.270   0.369  -0.567  0.00  0.00    +0.065 C 
BRANCH  11  12
ATOM     12  CA  LIG    1       -2.034   0.077   0.726  0.00  0.00    +0.165 C 
BRANCH  12  13
ATOM     13  N   LIG    1       -1.934  -1.309   1.033  0.00  0.00    -0.318 NA
ATOM     14  H1  LIG    1       -2.221  -1.609   1.949  0.00  0.00    +0.119 HD
ATOM     15  H2  LIG    1       -1.906  -1.957   0.266  0.00  0.00    +0.119 HD
ENDBRANCH  12  13
BRANCH  12  16
ATOM     16  C   LIG    1       -3.448   0.412   0.460  0.00  0.00    +0.322 C 
ATOM     17  OXT LIG    1       -4.345  -0.453   0.519  0.00  0.00    -0.249 OA
BRANCH  16  18
ATOM     18  O   LIG    1       -3.775   1.712   0.140  0.00  0.00    -0.480 OA
ATOM     19  H   LIG    1       -3.147   2.381  -0.277  0.00  0.00    +0.295 HD
ENDBRANCH  16  18
ENDBRANCH  12  16
ENDBRANCH  11  12
ENDBRANCH   1  11
TORSDOF 7
