REMARK  Name = molecules/WTHRRGMBUAHGNI-WQBKWQJNSA-N.pdb
REMARK                            x       y       z     vdW  Elec       q    Type
REMARK                         _______ _______ _______ _____ _____    ______ ____
ROOT
ATOM      1  O   LIG    1       -1.457   2.815  -0.557  0.00  0.00    -0.274 OA
ATOM      2  C   LIG    1       -1.654   1.668  -0.098  0.00  0.00    +0.237 C 
ATOM      3  C   LIG    1       -1.547   1.400   1.315  0.00  0.00    +0.166 C 
ATOM      4  N   LIG    1       -0.545   2.014   2.145  0.00  0.00    -0.291 N 
ATOM      5  C   LIG    1       -0.754   1.568   3.577  0.00  0.00    +0.133 C 
ATOM      6  C   LIG    1        0.494   2.933   1.907  0.00  0.00    +0.236 C 
ATOM      7  O   LIG    1        0.011   4.160   2.116  0.00  0.00    -0.274 OA
ATOM      8  C   LIG    1        1.897   2.933   1.522  0.00  0.00    +0.162 C 
ATOM      9  C   LIG    1        2.482   4.188   2.302  0.00  0.00    +0.033 C 
ATOM     10  C   LIG    1        2.027   5.275   1.320  0.00  0.00    +0.021 C 
ATOM     11  C   LIG    1        1.632   4.588   0.036  0.00  0.00    +0.109 C 
ATOM     12  N   LIG    1        2.386   3.331   0.234  0.00  0.00    -0.288 N 
ATOM     13  C   LIG    1        3.380   2.668  -0.536  0.00  0.00    +0.237 C 
ATOM     14  C   LIG    1        4.764   2.281  -0.148  0.00  0.00    +0.159 C 
ATOM     15  N   LIG    1        5.494   1.819  -1.322  0.00  0.00    -0.302 N 
ATOM     16  C   LIG    1        6.306   0.776  -1.636  0.00  0.00    +0.238 C 
ATOM     17  O   LIG    1        7.604   1.122  -1.700  0.00  0.00    -0.274 OA
ATOM     18  C   LIG    1        6.195  -0.653  -1.944  0.00  0.00    +0.200 C 
ATOM     19  C   LIG    1        4.808  -1.023  -2.489  0.00  0.00    +0.203 C 
ATOM     20  O   LIG    1        3.881  -0.766  -1.539  0.00  0.00    -0.458 OA
ATOM     21  C   LIG    1        3.139  -1.298  -0.583  0.00  0.00    +0.333 C 
ATOM     22  O   LIG    1        3.514  -1.816   0.494  0.00  0.00    -0.248 OA
ATOM     23  C   LIG    1        1.627  -1.317  -0.727  0.00  0.00    +0.213 C 
ATOM     24  N   LIG    1        1.175  -0.687  -1.930  0.00  0.00    -0.297 N 
ATOM     25  C   LIG    1       -0.232  -0.444  -2.164  0.00  0.00    +0.235 C 
ATOM     26  C   LIG    1       -1.233  -0.598  -1.097  0.00  0.00    +0.169 C 
ATOM     27  C   LIG    1       -2.210  -1.743  -1.321  0.00  0.00    +0.106 C 
ATOM     28  C   LIG    1       -3.481  -1.220  -0.669  0.00  0.00    +0.141 C 
ATOM     29  O   LIG    1       -3.839  -1.690   0.403  0.00  0.00    -0.297 OA
ATOM     30  C   LIG    1       -4.177  -0.171  -1.385  0.00  0.00    +0.082 C 
ATOM     31  C   LIG    1       -3.075   0.777  -1.992  0.00  0.00    +0.120 C 
ATOM     32  O   LIG    1       -0.580  -0.101  -3.299  0.00  0.00    -0.274 OA
ATOM     33  H   LIG    1        1.889  -0.400  -2.640  0.00  0.00    +0.150 HD
ATOM     34  C   LIG    1        4.661  -0.256  -3.781  0.00  0.00    +0.054 C 
ATOM     35  H   LIG    1        5.308   2.537  -2.122  0.00  0.00    +0.150 HD
ATOM     36  O   LIG    1        3.046   2.363  -1.716  0.00  0.00    -0.274 OA
ATOM     37  N   LIG    1       -1.983   0.660  -1.031  0.00  0.00    -0.287 N 
ENDROOT
BRANCH  23  38
ATOM     38  C   LIG    1        1.242  -2.749  -0.577  0.00  0.00    -0.017 A 
ATOM     39  C   LIG    1        0.641  -3.204   0.540  0.00  0.00    +0.006 A 
ATOM     40  C   LIG    1        0.271  -4.515   0.705  0.00  0.00    +0.000 A 
ATOM     41  C   LIG    1        0.513  -5.410  -0.290  0.00  0.00    +0.000 A 
ATOM     42  C   LIG    1        1.148  -4.971  -1.489  0.00  0.00    +0.000 A 
ATOM     43  C   LIG    1        1.498  -3.658  -1.609  0.00  0.00    +0.006 A 
ENDBRANCH  23  38
BRANCH  18  44
ATOM     44  N   LIG    1        6.576  -1.591  -0.966  0.00  0.00    -0.296 N 
ATOM     45  C   LIG    1        7.763  -1.927  -0.353  0.00  0.00    +0.267 C 
ATOM     46  O   LIG    1        8.878  -1.325  -0.532  0.00  0.00    -0.268 OA
ATOM     47  H   LIG    1        5.733  -2.167  -0.614  0.00  0.00    +0.150 HD
BRANCH  45  48
ATOM     48  C   LIG    1        7.914  -3.040   0.627  0.00  0.00    +0.167 A 
ATOM     49  N   LIG    1        9.044  -3.151   1.351  0.00  0.00    -0.247 NA
ATOM     50  C   LIG    1        9.228  -4.057   2.325  0.00  0.00    +0.112 A 
ATOM     51  C   LIG    1        8.222  -4.968   2.660  0.00  0.00    +0.023 A 
ATOM     52  C   LIG    1        7.054  -4.885   1.943  0.00  0.00    +0.049 A 
ATOM     53  C   LIG    1        6.914  -3.920   0.934  0.00  0.00    +0.147 A 
BRANCH  53  54
ATOM     54  O   LIG    1        5.714  -3.927   0.284  0.00  0.00    -0.504 OA
ATOM     55  H   LIG    1        4.989  -4.564   0.480  0.00  0.00    +0.292 HD
ENDBRANCH  53  54
ENDBRANCH  45  48
ENDBRANCH  18  44
BRANCH  14  56
ATOM     56  C   LIG    1        4.940   1.506   1.087  0.00  0.00    +0.028 C 
ATOM     57  C   LIG    1        6.425   1.212   1.367  0.00  0.00    +0.006 C 
ENDBRANCH  14  56
BRANCH  30  58
ATOM     58  C   LIG    1       -5.113  -0.581  -2.421  0.00  0.00    +0.082 C 
BRANCH  58  59
ATOM     59  S   LIG    1       -6.405  -1.675  -1.968  0.00  0.00    -0.155 S 
BRANCH  59  60
ATOM     60  C   LIG    1       -6.230  -3.400  -1.932  0.00  0.00    +0.064 C 
ATOM     61  C   LIG    1       -5.392  -4.137  -0.974  0.00  0.00    +0.006 C 
ATOM     62  C   LIG    1       -5.910  -4.244   0.435  0.00  0.00    +0.020 C 
ATOM     63  C   LIG    1       -7.412  -4.504   0.493  0.00  0.00    +0.085 C 
ATOM     64  N   LIG    1       -7.736  -5.042  -0.838  0.00  0.00    -0.301 NA
ATOM     65  C   LIG    1       -6.816  -6.140  -1.048  0.00  0.00    +0.085 C 
ATOM     66  C   LIG    1       -5.465  -5.628  -1.488  0.00  0.00    +0.020 C 
ATOM     67  C   LIG    1       -7.651  -4.019  -1.834  0.00  0.00    +0.098 C 
ENDBRANCH  59  60
ENDBRANCH  58  59
ENDBRANCH  30  58
BRANCH   3  68
ATOM     68  C   LIG    1       -2.967   1.706   1.900  0.00  0.00    +0.067 C 
BRANCH  68  69
ATOM     69  C   LIG    1       -3.354   3.120   1.685  0.00  0.00    -0.045 A 
ATOM     70  C   LIG    1       -3.108   4.078   2.624  0.00  0.00    +0.005 A 
ATOM     71  C   LIG    1       -3.456   5.413   2.476  0.00  0.00    +0.023 A 
ATOM     72  C   LIG    1       -4.091   5.838   1.321  0.00  0.00    +0.029 A 
ATOM     73  C   LIG    1       -4.347   4.869   0.356  0.00  0.00    +0.023 A 
ATOM     74  C   LIG    1       -3.984   3.534   0.538  0.00  0.00    +0.005 A 
BRANCH  72  75
ATOM     75  N   LIG    1       -4.484   7.197   1.141  0.00  0.00    -0.336 N 
ATOM     76  C   LIG    1       -3.985   8.216   2.032  0.00  0.00    +0.129 C 
ATOM     77  C   LIG    1       -5.352   7.624   0.083  0.00  0.00    +0.129 C 
ENDBRANCH  72  75
ENDBRANCH  68  69
ENDBRANCH   3  68
TORSDOF 11
