REMARK  Name = molecules/WUFWNWSUSBGBSH-UHFFFAOYSA-N.pdb
REMARK                            x       y       z     vdW  Elec       q    Type
REMARK                         _______ _______ _______ _____ _____    ______ ____
ROOT
ATOM      1  C   LIG    1        0.756   0.162   0.206  0.00  0.00    +0.119 A 
ATOM      2  C   LIG    1        0.000   1.302   0.161  0.00  0.00    +0.047 A 
ATOM      3  C   LIG    1       -1.379   1.224   0.040  0.00  0.00    +0.058 A 
ATOM      4  I   LIG    1       -2.516   2.987  -0.026  0.00  0.00    -0.040 I 
ATOM      5  C   LIG    1       -2.041   0.020  -0.039  0.00  0.00    +0.143 A 
ATOM      6  C   LIG    1       -1.272  -1.127   0.007  0.00  0.00    +0.058 A 
ATOM      7  I   LIG    1       -2.254  -2.983  -0.112  0.00  0.00    -0.040 I 
ATOM      8  C   LIG    1        0.105  -1.050   0.127  0.00  0.00    +0.047 A 
ENDROOT
BRANCH   1   9
ATOM      9  S   LIG    1        2.509   0.205   0.358  0.00  0.00    +0.110 S 
ATOM     10  O   LIG    1        2.931   1.405   1.123  0.00  0.00    -0.142 OA
ATOM     11  O   LIG    1        2.978  -1.078   0.985  0.00  0.00    -0.142 OA
BRANCH   9  12
ATOM     12  O   LIG    1        3.118   0.246  -1.221  0.00  0.00    -0.250 OA
ATOM     13  H   LIG    1        3.129  -0.660  -1.621  0.00  0.00    +0.245 HD
ENDBRANCH   9  12
ENDBRANCH   1   9
BRANCH   5  14
ATOM     14  O   LIG    1       -3.428  -0.015  -0.160  0.00  0.00    -0.505 OA
ATOM     15  H   LIG    1       -3.864  -0.930  -0.214  0.00  0.00    +0.292 HD
ENDBRANCH   5  14
TORSDOF 3
