REMARK  Name = molecules/WUKZPHOXUVCQOR-CYBMUJFWSA-N.pdb
REMARK                            x       y       z     vdW  Elec       q    Type
REMARK                         _______ _______ _______ _____ _____    ______ ____
ROOT
ATOM      1  C   LIG    1       -1.640   0.981   1.006  0.00  0.00    +0.082 A 
ATOM      2  C   LIG    1       -2.424   1.849   1.778  0.00  0.00    +0.036 A 
ATOM      3  C   LIG    1       -3.763   1.642   1.989  0.00  0.00    +0.044 A 
ATOM      4 CL   LIG    1       -4.699   2.777   2.976  0.00  0.00    -0.083 Cl
ATOM      5  C   LIG    1       -4.350   0.541   1.420  0.00  0.00    +0.047 A 
ATOM      6  C   LIG    1       -3.619  -0.336   0.655  0.00  0.00    +0.080 A 
ATOM      7  N   LIG    1       -4.265  -1.482   0.068  0.00  0.00    -0.269 N 
ATOM      8  C   LIG    1       -5.678  -1.670   0.311  0.00  0.00    +0.138 C 
ATOM      9  C   LIG    1       -3.502  -2.364  -0.712  0.00  0.00    +0.257 C 
ATOM     10  O   LIG    1       -3.969  -3.474  -1.047  0.00  0.00    -0.272 OA
ATOM     11  C   LIG    1       -2.134  -2.004  -1.155  0.00  0.00    +0.325 C 
ATOM     12  O   LIG    1       -1.554  -1.030  -0.334  0.00  0.00    -0.480 OA
ATOM     13  C   LIG    1       -2.262  -0.115   0.449  0.00  0.00    +0.155 A 
ENDROOT
BRANCH   1  14
ATOM     14  C   LIG    1       -0.249   1.295   0.850  0.00  0.00    +0.248 C 
ATOM     15  O   LIG    1        0.183   2.352   1.431  0.00  0.00    -0.270 OA
ATOM     16  N   LIG    1        0.707   0.581   0.134  0.00  0.00    -0.307 N 
ATOM     17  H   LIG    1        0.479  -0.283  -0.373  0.00  0.00    +0.149 HD
BRANCH  16  18
ATOM     18  C   LIG    1        2.106   0.977   0.030  0.00  0.00    +0.090 C 
ATOM     19  C   LIG    1        3.023  -0.096   0.575  0.00  0.00    +0.013 C 
ATOM     20  C   LIG    1        4.346   0.615   0.880  0.00  0.00    +0.021 C 
ATOM     21  C   LIG    1        4.694   1.388  -0.382  0.00  0.00    +0.085 C 
ATOM     22  N   LIG    1        3.925   0.951  -1.521  0.00  0.00    -0.301 NA
ATOM     23  C   LIG    1        4.045  -0.483  -1.635  0.00  0.00    +0.085 C 
ATOM     24  C   LIG    1        3.345  -1.148  -0.468  0.00  0.00    +0.021 C 
ATOM     25  C   LIG    1        2.514   1.259  -1.383  0.00  0.00    +0.107 C 
ENDBRANCH  16  18
ENDBRANCH   1  14
TORSDOF 2
