REMARK  Name = molecules/WUSAVCGXMSWMQM-MRXNPFEDSA-N.pdb
REMARK                            x       y       z     vdW  Elec       q    Type
REMARK                         _______ _______ _______ _____ _____    ______ ____
ROOT
ATOM      1  C   LIG    1        0.096  -0.474  -1.063  0.00  0.00    +0.173 C 
ENDROOT
BRANCH   1   2
ATOM      2  C   LIG    1        1.391  -0.466  -0.374  0.00  0.00    -0.021 A 
ATOM      3  C   LIG    1        1.923   0.560   0.358  0.00  0.00    +0.009 A 
ATOM      4  C   LIG    1        3.171   0.527   0.983  0.00  0.00    +0.046 A 
ATOM      5  C   LIG    1        3.943  -0.587   0.877  0.00  0.00    +0.120 A 
ATOM      6  C   LIG    1        3.465  -1.651   0.154  0.00  0.00    +0.046 A 
ATOM      7  C   LIG    1        2.241  -1.599  -0.449  0.00  0.00    +0.009 A 
BRANCH   5   8
ATOM      8  O   LIG    1        5.184  -0.658   1.480  0.00  0.00    -0.495 OA
ATOM      9  C   LIG    1        5.702   0.405   2.231  0.00  0.00    +0.277 C 
ENDBRANCH   5   8
ENDBRANCH   1   2
BRANCH   1  10
ATOM     10  C   LIG    1        0.229  -0.203  -2.529  0.00  0.00    +0.232 C 
ATOM     11  O   LIG    1       -0.687   0.386  -3.116  0.00  0.00    -0.274 OA
ATOM     12  N   LIG    1        1.385  -0.620  -3.216  0.00  0.00    -0.328 N 
ATOM     13  H   LIG    1        2.296  -0.181  -2.994  0.00  0.00    +0.145 HD
ATOM     14  H   LIG    1        1.386  -1.362  -3.961  0.00  0.00    +0.145 HD
ENDBRANCH   1  10
BRANCH   1  15
ATOM     15  N   LIG    1       -1.080   0.009  -0.458  0.00  0.00    -0.288 NA
BRANCH  15  16
ATOM     16  C   LIG    1       -1.280   1.423  -0.482  0.00  0.00    +0.085 C 
BRANCH  16  17
ATOM     17  C   LIG    1       -2.694   1.900  -0.232  0.00  0.00    +0.015 C 
BRANCH  17  18
ATOM     18  C   LIG    1       -2.609   3.442  -0.314  0.00  0.00    -0.002 C 
ATOM     19  C   LIG    1       -1.645   3.897   0.756  0.00  0.00    +0.004 C 
ENDBRANCH  17  18
ENDBRANCH  16  17
ENDBRANCH  15  16
BRANCH  15  20
ATOM     20  C   LIG    1       -2.296  -0.618  -0.879  0.00  0.00    +0.085 C 
BRANCH  20  21
ATOM     21  C   LIG    1       -2.429  -2.063  -0.486  0.00  0.00    +0.015 C 
BRANCH  21  22
ATOM     22  C   LIG    1       -2.380  -2.203   1.014  0.00  0.00    -0.002 C 
ATOM     23  C   LIG    1       -2.504  -3.650   1.448  0.00  0.00    +0.004 C 
ENDBRANCH  21  22
ENDBRANCH  20  21
ENDBRANCH  15  20
ENDBRANCH   1  15
TORSDOF 10
