REMARK  Name = molecules/WUTYZMFRCNBCHQ-WPRPVWTQSA-N.pdb
REMARK                            x       y       z     vdW  Elec       q    Type
REMARK                         _______ _______ _______ _____ _____    ______ ____
ROOT
ATOM      1  C   LIG    1        2.887  -0.674  -1.344  0.00  0.00    +0.050 C 
ATOM      2  C   LIG    1        2.530   0.539  -0.573  0.00  0.00    +0.173 C 
ATOM      3  S   LIG    1        2.899   0.213   1.197  0.00  0.00    -0.127 S 
ATOM      4  C   LIG    1        1.135  -0.037   1.643  0.00  0.00    +0.108 C 
ATOM      5  C   LIG    1        0.477   0.177   0.309  0.00  0.00    +0.095 C 
ATOM      6  C   LIG    1       -0.749   1.062   0.615  0.00  0.00    +0.025 C 
ATOM      7  C   LIG    1       -1.655   0.239   1.489  0.00  0.00    +0.022 C 
ATOM      8  C   LIG    1       -2.295  -0.854   0.667  0.00  0.00    +0.085 C 
ATOM      9  N   LIG    1       -1.500  -1.041  -0.515  0.00  0.00    -0.300 NA
ATOM     10  C   LIG    1       -1.741   0.114  -1.393  0.00  0.00    +0.085 C 
ATOM     11  C   LIG    1       -1.360   1.408  -0.705  0.00  0.00    +0.022 C 
ATOM     12  C   LIG    1       -0.083  -1.117  -0.252  0.00  0.00    +0.120 C 
ATOM     13  O   LIG    1        1.237   0.890  -0.519  0.00  0.00    -0.358 OA
ENDROOT
TORSDOF 0
