REMARK  Name = molecules/WUWFMDMBOJLQIV-SNVBAGLBSA-N.pdb
REMARK                            x       y       z     vdW  Elec       q    Type
REMARK                         _______ _______ _______ _____ _____    ______ ____
ROOT
ATOM      1  O   LIG    1       -1.342   4.420   0.510  0.00  0.00    -0.286 OA
ATOM      2  C   LIG    1       -1.625   3.210   0.376  0.00  0.00    +0.205 A 
ATOM      3  C   LIG    1       -0.599   2.293   0.316  0.00  0.00    +0.068 A 
ATOM      4  C   LIG    1        0.710   2.700   0.404  0.00  0.00    +0.057 A 
ATOM      5  C   LIG    1        1.694   1.725   0.337  0.00  0.00    +0.164 A 
ATOM      6  F   LIG    1        3.007   2.045   0.415  0.00  0.00    -0.202 F 
ATOM      7  C   LIG    1        1.383   0.391   0.188  0.00  0.00    +0.159 A 
ATOM      8  N   LIG    1        0.080   0.074   0.111  0.00  0.00    -0.211 NA
ATOM      9  C   LIG    1       -0.931   0.953   0.166  0.00  0.00    +0.151 A 
ATOM     10  N   LIG    1       -2.220   0.588   0.084  0.00  0.00    -0.297 N 
ATOM     11  C   LIG    1       -3.209   1.492   0.143  0.00  0.00    +0.112 A 
ATOM     12  C   LIG    1       -2.948   2.846   0.292  0.00  0.00    +0.122 A 
ENDROOT
BRANCH  10  13
ATOM     13  C   LIG    1       -2.527  -0.784  -0.068  0.00  0.00    +0.083 A 
ATOM     14  C   LIG    1       -2.840  -1.604   1.001  0.00  0.00    +0.032 A 
ATOM     15  C   LIG    1       -3.136  -2.939   0.827  0.00  0.00    +0.040 A 
ATOM     16  C   LIG    1       -3.129  -3.502  -0.443  0.00  0.00    +0.126 A 
ATOM     17  F   LIG    1       -3.427  -4.833  -0.597  0.00  0.00    -0.205 F 
ATOM     18  C   LIG    1       -2.820  -2.697  -1.511  0.00  0.00    +0.078 A 
ATOM     19  C   LIG    1       -2.526  -1.363  -1.319  0.00  0.00    +0.150 A 
ATOM     20  F   LIG    1       -2.232  -0.635  -2.423  0.00  0.00    -0.203 F 
ENDBRANCH  10  13
BRANCH   7  21
ATOM     21  N   LIG    1        2.383  -0.601   0.120  0.00  0.00    -0.311 N 
ATOM     22  C   LIG    1        3.357  -0.867   1.174  0.00  0.00    +0.125 C 
ATOM     23  C   LIG    1        4.606  -1.362   0.436  0.00  0.00    +0.070 C 
ATOM     24  C   LIG    1        4.218  -1.376  -1.022  0.00  0.00    +0.039 C 
ATOM     25  C   LIG    1        2.698  -1.554  -0.926  0.00  0.00    +0.108 C 
BRANCH  23  26
ATOM     26  N   LIG    1        5.660  -0.443   0.740  0.00  0.00    -0.326 NA
ATOM     27  H   LIG    1        5.380   0.370   1.313  0.00  0.00    +0.119 HD
ATOM     28  H   LIG    1        6.299  -0.231  -0.041  0.00  0.00    +0.119 HD
ENDBRANCH  23  26
ENDBRANCH   7  21
BRANCH  12  29
ATOM     29  C   LIG    1       -4.036   3.817   0.355  0.00  0.00    +0.342 C 
ATOM     30  O   LIG    1       -3.822   5.049   0.490  0.00  0.00    -0.245 OA
BRANCH  29  31
ATOM     31  O   LIG    1       -5.333   3.353   0.262  0.00  0.00    -0.477 OA
ATOM     32  H   LIG    1       -5.614   3.001  -0.662  0.00  0.00    +0.295 HD
ENDBRANCH  29  31
ENDBRANCH  12  29
TORSDOF 5
