REMARK  Name = molecules/WVLAAKXASPCBGT-CQSZACIVSA-N.pdb
REMARK                            x       y       z     vdW  Elec       q    Type
REMARK                         _______ _______ _______ _____ _____    ______ ____
ROOT
ATOM      1  C   LIG    1       -0.003  -0.959  -0.612  0.00  0.00    +0.083 C 
ENDROOT
BRANCH   1   2
ATOM      2  N   LIG    1        1.415  -0.630  -0.811  0.00  0.00    -0.313 NA
ATOM      3  H   LIG    1        1.692   0.038  -0.025  0.00  0.00    +0.122 HD
BRANCH   2   4
ATOM      4  C   LIG    1        2.267  -1.792  -0.750  0.00  0.00    +0.117 C 
BRANCH   4   5
ATOM      5  C   LIG    1        3.690  -1.428  -1.071  0.00  0.00    +0.158 C 
BRANCH   5   6
ATOM      6  C   LIG    1        4.150  -0.384  -0.125  0.00  0.00    -0.011 A 
ATOM      7  C   LIG    1        4.856  -0.716   1.003  0.00  0.00    +0.051 A 
ATOM      8  C   LIG    1        5.293   0.270   1.873  0.00  0.00    +0.121 A 
ATOM      9  C   LIG    1        5.029   1.585   1.623  0.00  0.00    +0.090 A 
ATOM     10  C   LIG    1        4.320   1.946   0.493  0.00  0.00    +0.121 A 
ATOM     11  C   LIG    1        3.895   0.954  -0.356  0.00  0.00    +0.051 A 
BRANCH   8  12
ATOM     12  O   LIG    1        6.001  -0.118   2.994  0.00  0.00    -0.507 OA
ATOM     13  H   LIG    1        6.358   0.536   3.683  0.00  0.00    +0.292 HD
ENDBRANCH   8  12
BRANCH  10  14
ATOM     14  O   LIG    1        4.019   3.272   0.185  0.00  0.00    -0.507 OA
ATOM     15  H   LIG    1        4.704   3.770  -0.389  0.00  0.00    +0.292 HD
ENDBRANCH  10  14
ENDBRANCH   5   6
BRANCH   5  16
ATOM     16  O   LIG    1        3.822  -0.914  -2.359  0.00  0.00    -0.386 OA
ATOM     17  H   LIG    1        3.323  -1.487  -3.002  0.00  0.00    +0.210 HD
ENDBRANCH   5  16
ENDBRANCH   4   5
ENDBRANCH   2   4
ENDBRANCH   1   2
BRANCH   1  18
ATOM     18  C   LIG    1       -0.558  -1.719  -1.772  0.00  0.00    +0.037 C 
BRANCH  18  19
ATOM     19  C   LIG    1       -2.031  -2.025  -1.611  0.00  0.00    +0.125 C 
BRANCH  19  20
ATOM     20  N   LIG    1       -2.833  -0.856  -1.491  0.00  0.00    -0.325 N 
ATOM     21  C   LIG    1       -3.251  -0.240  -0.372  0.00  0.00    +0.151 A 
ATOM     22  C   LIG    1       -3.143  -0.469   0.977  0.00  0.00    +0.282 A 
ATOM     23  N   LIG    1       -3.673   0.321   1.927  0.00  0.00    -0.262 N 
ATOM     24  C   LIG    1       -3.524   0.023   3.349  0.00  0.00    +0.157 C 
ATOM     25  C   LIG    1       -4.349   1.398   1.495  0.00  0.00    +0.333 A 
ATOM     26  O   LIG    1       -4.846   2.139   2.406  0.00  0.00    -0.246 OA
ATOM     27  N   LIG    1       -4.491   1.677   0.187  0.00  0.00    -0.280 N 
ATOM     28  C   LIG    1       -5.233   2.858  -0.177  0.00  0.00    +0.155 C 
ATOM     29  O   LIG    1       -2.514  -1.476   1.349  0.00  0.00    -0.265 OA
ATOM     30  C   LIG    1       -3.958   0.882  -0.761  0.00  0.00    +0.168 A 
ATOM     31  N   LIG    1       -3.945   0.906  -2.114  0.00  0.00    -0.218 NA
ATOM     32  C   LIG    1       -3.262  -0.150  -2.573  0.00  0.00    +0.202 A 
ENDBRANCH  19  20
ENDBRANCH  18  19
ENDBRANCH   1  18
TORSDOF 10
