REMARK  Name = molecules/WVLOADHCBXTIJK-YNHQPCIGSA-N.pdb
REMARK                            x       y       z     vdW  Elec       q    Type
REMARK                         _______ _______ _______ _____ _____    ______ ____
ROOT
ATOM      1  O   LIG    1        1.451  -3.529   0.475  0.00  0.00    -0.293 OA
ATOM      2  C   LIG    1        0.542  -2.799   0.144  0.00  0.00    +0.174 C 
ATOM      3  C   LIG    1       -0.696  -2.750   1.010  0.00  0.00    +0.078 C 
ATOM      4  C   LIG    1       -0.797  -1.318   1.492  0.00  0.00    +0.014 C 
ATOM      5  C   LIG    1       -1.117  -0.500   0.264  0.00  0.00    +0.021 C 
ATOM      6  C   LIG    1       -1.383   0.953   0.531  0.00  0.00    +0.065 C 
ATOM      7  C   LIG    1       -0.228   1.827   0.822  0.00  0.00    +0.054 C 
ATOM      8  C   LIG    1        1.104   1.264   0.457  0.00  0.00    -0.038 A 
ATOM      9  C   LIG    1        2.274   1.848   0.865  0.00  0.00    +0.008 A 
ATOM     10  C   LIG    1        3.482   1.238   0.508  0.00  0.00    +0.049 A 
ATOM     11  C   LIG    1        3.472   0.073  -0.240  0.00  0.00    +0.159 A 
ATOM     12  C   LIG    1        2.287  -0.498  -0.640  0.00  0.00    +0.167 A 
ATOM     13  O   LIG    1        1.897  -1.634  -1.373  0.00  0.00    -0.476 OA
ATOM     14  C   LIG    1        1.141   0.130  -0.272  0.00  0.00    +0.012 A 
ATOM     15  N   LIG    1       -2.058   1.469  -0.636  0.00  0.00    -0.302 NA
ATOM     16  C   LIG    1       -3.436   1.152  -0.712  0.00  0.00    +0.105 C 
ATOM     17  C   LIG    1       -1.315   1.333  -1.843  0.00  0.00    +0.085 C 
ATOM     18  C   LIG    1       -0.572   0.073  -2.025  0.00  0.00    +0.031 C 
ATOM     19  C   LIG    1       -0.057  -0.579  -0.779  0.00  0.00    +0.049 C 
ATOM     20  C   LIG    1        0.523  -1.933  -1.049  0.00  0.00    +0.250 C 
ENDROOT
BRANCH  11  21
ATOM     21  O   LIG    1        4.661  -0.528  -0.592  0.00  0.00    -0.503 OA
ATOM     22  H   LIG    1        5.557  -0.145  -0.320  0.00  0.00    +0.292 HD
ENDBRANCH  11  21
TORSDOF 1
