REMARK  Name = molecules/WVPAABNYMHNFJG-QDVBXLKVSA-N.pdb
REMARK                            x       y       z     vdW  Elec       q    Type
REMARK                         _______ _______ _______ _____ _____    ______ ____
ROOT
ATOM      1  C   LIG    1        1.565   0.214   1.344  0.00  0.00    +0.191 C 
ATOM      2  C   LIG    1        0.935   1.523   1.085  0.00  0.00    +0.169 C 
ATOM      3  N   LIG    1       -0.294   0.799   0.760  0.00  0.00    -0.249 N 
ATOM      4  C   LIG    1       -1.475   1.506   0.326  0.00  0.00    +0.125 C 
ATOM      5  C   LIG    1       -1.424   2.615  -0.381  0.00  0.00    +0.006 C 
ATOM      6  C   LIG    1       -0.175   3.302  -0.823  0.00  0.00    +0.107 C 
ATOM      7  S   LIG    1        1.333   2.294  -0.525  0.00  0.00    -0.131 S 
ATOM      8  C   LIG    1        0.293  -0.447   1.042  0.00  0.00    +0.244 C 
ATOM      9  O   LIG    1       -0.082  -1.647   1.045  0.00  0.00    -0.273 OA
ENDROOT
BRANCH   1  10
ATOM     10  N   LIG    1        2.681  -0.151   0.490  0.00  0.00    -0.298 N 
ATOM     11  C   LIG    1        3.883  -0.593   1.071  0.00  0.00    +0.246 C 
ATOM     12  O   LIG    1        3.857  -0.600   2.361  0.00  0.00    -0.270 OA
ATOM     13  H   LIG    1        2.562  -0.033  -0.513  0.00  0.00    +0.150 HD
BRANCH  11  14
ATOM     14  C   LIG    1        5.097  -1.035   0.466  0.00  0.00    +0.059 C 
ATOM     15  C   LIG    1        6.146  -1.300   1.250  0.00  0.00    -0.012 C 
BRANCH  14  16
ATOM     16  C   LIG    1        5.270  -1.187  -1.019  0.00  0.00    +0.085 A 
ATOM     17  N   LIG    1        6.462  -1.167  -1.543  0.00  0.00    -0.225 NA
ATOM     18  C   LIG    1        6.665  -1.374  -2.817  0.00  0.00    +0.156 A 
ATOM     19  S   LIG    1        5.080  -1.625  -3.383  0.00  0.00    -0.060 S 
ATOM     20  C   LIG    1        4.233  -1.439  -1.875  0.00  0.00    +0.077 A 
BRANCH  18  21
ATOM     21  N   LIG    1        7.908  -1.386  -3.548  0.00  0.00    -0.338 N 
ATOM     22  H   LIG    1        8.595  -0.652  -3.363  0.00  0.00    +0.144 HD
ATOM     23  H   LIG    1        8.075  -2.128  -4.234  0.00  0.00    +0.144 HD
ENDBRANCH  18  21
ENDBRANCH  14  16
BRANCH  15  24
ATOM     24  C   LIG    1        6.285  -1.210   2.687  0.00  0.00    +0.024 C 
ATOM     25  C   LIG    1        6.497  -2.597   3.311  0.00  0.00    +0.008 C 
ENDBRANCH  15  24
ENDBRANCH  11  14
ENDBRANCH   1  10
BRANCH   4  26
ATOM     26  C   LIG    1       -2.712   0.926   0.818  0.00  0.00    +0.357 C 
ATOM     27  O   LIG    1       -3.806   1.480   0.624  0.00  0.00    -0.243 OA
BRANCH  26  28
ATOM     28  O   LIG    1       -2.767  -0.274   1.539  0.00  0.00    -0.423 OA
BRANCH  28  29
ATOM     29  C   LIG    1       -4.008  -0.777   1.993  0.00  0.00    +0.473 C 
BRANCH  29  30
ATOM     30  O   LIG    1       -4.869  -1.018   0.922  0.00  0.00    -0.427 OA
BRANCH  30  31
ATOM     31  C   LIG    1       -4.491  -1.919  -0.055  0.00  0.00    +0.315 C 
ATOM     32  O   LIG    1       -3.411  -2.545  -0.045  0.00  0.00    -0.250 OA
BRANCH  31  33
ATOM     33  C   LIG    1       -5.450  -2.140  -1.179  0.00  0.00    +0.059 C 
ATOM     34  C   LIG    1       -6.747  -2.628  -0.524  0.00  0.00    +0.022 C 
ATOM     35  C   LIG    1       -5.661  -0.826  -1.869  0.00  0.00    +0.022 C 
ATOM     36  C   LIG    1       -4.907  -3.189  -2.128  0.00  0.00    +0.022 C 
ENDBRANCH  31  33
ENDBRANCH  30  31
ENDBRANCH  29  30
ENDBRANCH  28  29
ENDBRANCH  26  28
ENDBRANCH   4  26
BRANCH   5  37
ATOM     37  C   LIG    1       -2.671   3.214  -0.909  0.00  0.00    +0.268 C 
BRANCH  37  38
ATOM     38  O   LIG    1       -3.026   4.457  -0.514  0.00  0.00    -0.446 OA
BRANCH  38  39
ATOM     39  C   LIG    1       -2.491   5.660  -0.762  0.00  0.00    +0.398 C 
ATOM     40  N   LIG    1       -3.139   6.801  -0.138  0.00  0.00    -0.295 N 
ATOM     41  H   LIG    1       -2.612   7.414   0.514  0.00  0.00    +0.148 HD
ATOM     42  H   LIG    1       -4.136   6.923  -0.407  0.00  0.00    +0.148 HD
ATOM     43  O   LIG    1       -1.492   5.871  -1.478  0.00  0.00    -0.227 OA
ENDBRANCH  38  39
ENDBRANCH  37  38
ENDBRANCH   5  37
TORSDOF 14
