REMARK  Name = molecules/WVPSKSLAZQPAKQ-CDMJZVDBSA-N.pdb
REMARK                            x       y       z     vdW  Elec       q    Type
REMARK                         _______ _______ _______ _____ _____    ______ ____
ROOT
ATOM      1  O   LIG    1       -2.196  -4.414   0.302  0.00  0.00    -0.286 OA
ATOM      2  C   LIG    1       -2.289  -3.164   0.228  0.00  0.00    +0.205 A 
ATOM      3  C   LIG    1       -3.540  -2.583   0.205  0.00  0.00    +0.122 A 
ATOM      4  C   LIG    1       -3.547  -1.187   0.121  0.00  0.00    +0.112 A 
ATOM      5  N   LIG    1       -2.403  -0.484   0.068  0.00  0.00    -0.297 N 
ATOM      6  C   LIG    1       -1.188  -1.044   0.090  0.00  0.00    +0.151 A 
ATOM      7  N   LIG    1       -0.044  -0.339   0.036  0.00  0.00    -0.211 NA
ATOM      8  C   LIG    1        1.184  -0.883   0.057  0.00  0.00    +0.159 A 
ATOM      9  C   LIG    1        1.276  -2.263   0.139  0.00  0.00    +0.164 A 
ATOM     10  C   LIG    1        0.126  -3.008   0.195  0.00  0.00    +0.057 A 
ATOM     11  F   LIG    1        2.515  -2.856   0.162  0.00  0.00    -0.202 F 
ATOM     12  C   LIG    1       -1.122  -2.433   0.172  0.00  0.00    +0.068 A 
ENDROOT
BRANCH   5  13
ATOM     13  C   LIG    1       -2.526   0.935  -0.016  0.00  0.00    +0.083 A 
ATOM     14  C   LIG    1       -3.216   1.618   0.969  0.00  0.00    +0.032 A 
ATOM     15  C   LIG    1       -3.341   2.978   0.900  0.00  0.00    +0.040 A 
ATOM     16  C   LIG    1       -2.763   3.631  -0.169  0.00  0.00    +0.126 A 
ATOM     17  F   LIG    1       -2.858   4.978  -0.283  0.00  0.00    -0.205 F 
ATOM     18  C   LIG    1       -2.076   2.951  -1.147  0.00  0.00    +0.078 A 
ATOM     19  C   LIG    1       -1.945   1.578  -1.086  0.00  0.00    +0.150 A 
ATOM     20  F   LIG    1       -1.282   0.868  -2.022  0.00  0.00    -0.203 F 
ENDBRANCH   5  13
BRANCH   8  21
ATOM     21  N   LIG    1        2.366  -0.104  -0.002  0.00  0.00    -0.312 N 
ATOM     22  C   LIG    1        2.715   0.899   0.976  0.00  0.00    +0.112 C 
ATOM     23  C   LIG    1        3.823   1.724   0.425  0.00  0.00    +0.029 C 
ATOM     24  C   LIG    1        5.166   1.093   0.338  0.00  0.00    +0.061 C 
ATOM     25  C   LIG    1        4.201   1.103  -0.841  0.00  0.00    +0.029 C 
ATOM     26  C   LIG    1        3.398  -0.144  -0.979  0.00  0.00    +0.112 C 
BRANCH  24  27
ATOM     27  N   LIG    1        6.354   1.862   0.110  0.00  0.00    -0.327 NA
ATOM     28  H   LIG    1        7.152   1.168   0.013  0.00  0.00    +0.118 HD
ATOM     29  H   LIG    1        6.339   2.383  -0.801  0.00  0.00    +0.118 HD
ENDBRANCH  24  27
ENDBRANCH   8  21
BRANCH   3  30
ATOM     30  C   LIG    1       -4.769  -3.338   0.263  0.00  0.00    +0.342 C 
ATOM     31  O   LIG    1       -4.735  -4.578   0.337  0.00  0.00    -0.245 OA
BRANCH  30  32
ATOM     32  O   LIG    1       -5.976  -2.682   0.235  0.00  0.00    -0.477 OA
ATOM     33  H   LIG    1       -6.782  -3.060   0.757  0.00  0.00    +0.295 HD
ENDBRANCH  30  32
ENDBRANCH   3  30
TORSDOF 5
