REMARK  Name = molecules/WVRIPRILKKOIQL-UHFFFAOYSA-N.pdb
REMARK                            x       y       z     vdW  Elec       q    Type
REMARK                         _______ _______ _______ _____ _____    ______ ____
ROOT
ATOM      1  C   LIG    1       -1.121  -0.348   0.549  0.00  0.00    -0.063 C 
ATOM      2  C   LIG    1       -1.538  -1.217   1.685  0.00  0.00    +0.039 C 
ATOM      3  C   LIG    1       -1.966  -0.194  -0.444  0.00  0.00    +0.090 C 
ENDROOT
BRANCH   1   6
ATOM      4  C   LIG    1        1.722   1.796  -0.633  0.00  0.00    +0.001 C 
ATOM      5  C   LIG    1        0.357   1.132  -0.724  0.00  0.00    +0.008 C 
ATOM      6  C   LIG    1        0.202   0.322   0.536  0.00  0.00    +0.015 C 
ATOM      7  C   LIG    1        1.343  -0.658   0.634  0.00  0.00    +0.008 C 
ATOM      8  C   LIG    1        2.158  -0.667  -0.659  0.00  0.00    +0.001 C 
ATOM      9  C   LIG    1        2.745   0.711  -0.924  0.00  0.00    +0.000 C 
ENDBRANCH   1   6
BRANCH   3  10
ATOM     10  C   LIG    1       -3.274  -0.789  -0.547  0.00  0.00    +0.330 C 
ATOM     11  O   LIG    1       -3.717  -1.531   0.348  0.00  0.00    -0.246 OA
BRANCH  10  12
ATOM     12  O   LIG    1       -4.051  -0.530  -1.664  0.00  0.00    -0.478 OA
ATOM     13  H   LIG    1       -4.520   0.382  -1.762  0.00  0.00    +0.295 HD
ENDBRANCH  10  12
ENDBRANCH   3  10
TORSDOF 3
