REMARK  Name = molecules/WVYXNIXAMZOZFK-UHFFFAOYSA-N.pdb
REMARK                            x       y       z     vdW  Elec       q    Type
REMARK                         _______ _______ _______ _____ _____    ______ ____
ROOT
ATOM      1  C   LIG    1       -1.312  -1.006   0.266  0.00  0.00    +0.110 A 
ATOM      2  C   LIG    1       -0.345  -1.835   0.961  0.00  0.00    +0.225 A 
ATOM      3  O   LIG    1       -0.709  -2.919   1.549  0.00  0.00    -0.284 OA
ATOM      4  C   LIG    1        1.081  -1.562   1.082  0.00  0.00    +0.104 A 
ATOM      5  C   LIG    1        1.522  -0.434   0.492  0.00  0.00    +0.110 A 
ATOM      6  C   LIG    1        0.584   0.416  -0.211  0.00  0.00    +0.225 A 
ATOM      7  O   LIG    1        0.942   1.500  -0.797  0.00  0.00    -0.284 OA
ATOM      8  C   LIG    1       -0.835   0.138  -0.330  0.00  0.00    +0.104 A 
ENDROOT
BRANCH   1   9
ATOM      9  N   LIG    1       -2.662  -1.173   0.077  0.00  0.00    -0.246 N 
ATOM     10  H   LIG    1       -2.664  -2.239   0.917  0.00  0.00    +0.158 HD
ATOM     11  C   LIG    1       -3.967  -1.336  -0.105  0.00  0.00    +0.405 C 
ATOM     12  O   LIG    1       -4.738  -2.241   0.277  0.00  0.00    -0.226 OA
BRANCH  11  13
ATOM     13  O   LIG    1       -4.658  -0.338  -0.856  0.00  0.00    -0.450 OA
BRANCH  13  14
ATOM     14  C   LIG    1       -6.022  -0.369  -1.132  0.00  0.00    +0.230 C 
ATOM     15  C   LIG    1       -6.375   0.889  -1.899  0.00  0.00    +0.048 C 
ENDBRANCH  13  14
ENDBRANCH  11  13
ENDBRANCH   1   9
BRANCH   5  16
ATOM     16  N   LIG    1        2.906  -0.194   0.542  0.00  0.00    -0.246 N 
ATOM     17  H   LIG    1        3.479  -0.975   1.035  0.00  0.00    +0.158 HD
ATOM     18  C   LIG    1        3.657   0.879   0.057  0.00  0.00    +0.405 C 
ATOM     19  O   LIG    1        3.197   1.882  -0.508  0.00  0.00    -0.226 OA
BRANCH  18  20
ATOM     20  O   LIG    1        5.044   0.854   0.205  0.00  0.00    -0.450 OA
BRANCH  20  21
ATOM     21  C   LIG    1        5.923   1.874  -0.177  0.00  0.00    +0.230 C 
ATOM     22  C   LIG    1        5.799   3.071   0.748  0.00  0.00    +0.048 C 
ENDBRANCH  20  21
ENDBRANCH  18  20
ENDBRANCH   5  16
BRANCH   4  23
ATOM     23  N   LIG    1        1.962  -2.425   1.788  0.00  0.00    -0.322 N 
ATOM     24  C   LIG    1        2.663  -2.785   3.008  0.00  0.00    +0.124 C 
ATOM     25  C   LIG    1        2.881  -3.615   1.849  0.00  0.00    +0.124 C 
ENDBRANCH   4  23
BRANCH   8  26
ATOM     26  N   LIG    1       -1.693   0.997  -1.045  0.00  0.00    -0.322 N 
ATOM     27  C   LIG    1       -2.551   2.129  -1.204  0.00  0.00    +0.124 C 
ATOM     28  C   LIG    1       -2.350   1.324  -2.380  0.00  0.00    +0.124 C 
ENDBRANCH   8  26
TORSDOF 8
