REMARK  Name = molecules/WWVAPFRKZMUPHZ-UHFFFAOYSA-N.pdb
REMARK                            x       y       z     vdW  Elec       q    Type
REMARK                         _______ _______ _______ _____ _____    ______ ____
ROOT
ATOM      1  C   LIG    1        0.133   1.615   2.488  0.00  0.00    +0.188 C 
ENDROOT
BRANCH   1   2
ATOM      2  C   LIG    1        0.450   1.617   0.982  0.00  0.00    +0.188 C 
BRANCH   2   3
ATOM      3  O   LIG    1        0.594   0.372   0.453  0.00  0.00    -0.375 OA
BRANCH   3   4
ATOM      4  C   LIG    1        1.568  -0.428   0.979  0.00  0.00    +0.188 C 
BRANCH   4   5
ATOM      5  C   LIG    1        2.953   0.152   0.859  0.00  0.00    +0.188 C 
BRANCH   5   6
ATOM      6  O   LIG    1        3.924  -0.677   1.398  0.00  0.00    -0.377 OA
BRANCH   6   7
ATOM      7  C   LIG    1        3.986  -1.920   0.796  0.00  0.00    +0.169 C 
BRANCH   7   8
ATOM      8  C   LIG    1        4.309  -1.853  -0.670  0.00  0.00    +0.124 C 
BRANCH   8   9
ATOM      9  C   LIG    1        5.631  -1.211  -0.881  0.00  0.00    +0.219 C 
ATOM     10  O   LIG    1        6.283  -0.859   0.135  0.00  0.00    -0.275 OA
ATOM     11  N   LIG    1        6.173  -0.985  -2.169  0.00  0.00    -0.284 N 
ATOM     12  H   LIG    1        5.702  -1.241  -3.063  0.00  0.00    +0.155 HD
BRANCH  11  13
ATOM     13  C   LIG    1        7.447  -0.366  -2.261  0.00  0.00    +0.061 A 
ATOM     14  C   LIG    1        8.530  -1.234  -2.286  0.00  0.00    +0.051 A 
ATOM     15  I   LIG    1        8.310  -3.320  -2.205  0.00  0.00    -0.041 I 
ATOM     16  C   LIG    1        9.778  -0.669  -2.368  0.00  0.00    +0.087 A 
ATOM     17  C   LIG    1        9.931   0.694  -2.422  0.00  0.00    +0.029 A 
ATOM     18  C   LIG    1        8.833   1.536  -2.396  0.00  0.00    +0.031 A 
ATOM     19  I   LIG    1       11.853   1.546  -2.547  0.00  0.00    -0.043 I 
ATOM     20  C   LIG    1        7.574   0.993  -2.314  0.00  0.00    +0.037 A 
ATOM     21  I   LIG    1        5.832   2.173  -2.269  0.00  0.00    -0.042 I 
BRANCH  16  22
ATOM     22  C   LIG    1       10.990  -1.502  -2.401  0.00  0.00    +0.339 C 
ATOM     23  O   LIG    1       11.414  -1.871  -3.541  0.00  0.00    -0.245 OA
BRANCH  22  24
ATOM     24  O   LIG    1       11.643  -1.870  -1.236  0.00  0.00    -0.477 OA
ATOM     25  H   LIG    1       12.374  -2.563  -1.310  0.00  0.00    +0.295 HD
ENDBRANCH  22  24
ENDBRANCH  16  22
ENDBRANCH  11  13
ENDBRANCH   8   9
ENDBRANCH   7   8
ENDBRANCH   6   7
ENDBRANCH   5   6
ENDBRANCH   4   5
ENDBRANCH   3   4
ENDBRANCH   2   3
ENDBRANCH   1   2
BRANCH   1  26
ATOM     26  O   LIG    1       -0.904   1.035   2.836  0.00  0.00    -0.375 OA
BRANCH  26  27
ATOM     27  C   LIG    1       -1.966   0.475   3.164  0.00  0.00    +0.188 C 
BRANCH  27  28
ATOM     28  C   LIG    1       -2.990   1.405   3.823  0.00  0.00    +0.188 C 
BRANCH  28  29
ATOM     29  O   LIG    1       -4.151   0.802   4.191  0.00  0.00    -0.377 OA
BRANCH  29  30
ATOM     30  C   LIG    1       -4.888   0.187   3.227  0.00  0.00    +0.169 C 
BRANCH  30  31
ATOM     31  C   LIG    1       -5.315   1.076   2.080  0.00  0.00    +0.124 C 
BRANCH  31  33
ATOM     32  N   LIG    1       -6.588   0.882  -0.111  0.00  0.00    -0.284 N 
ATOM     33  C   LIG    1       -6.116   0.312   1.082  0.00  0.00    +0.219 C 
ATOM     34  O   LIG    1       -6.371  -0.895   1.333  0.00  0.00    -0.275 OA
ATOM     35  H   LIG    1       -6.380   1.879  -0.323  0.00  0.00    +0.155 HD
BRANCH  32  36
ATOM     36  C   LIG    1       -7.342   0.090  -1.014  0.00  0.00    +0.061 A 
ATOM     37  C   LIG    1       -8.733   0.058  -0.896  0.00  0.00    +0.051 A 
ATOM     38  I   LIG    1       -9.655   1.201   0.619  0.00  0.00    -0.041 I 
ATOM     39  C   LIG    1       -9.490  -0.704  -1.755  0.00  0.00    +0.087 A 
ATOM     40  C   LIG    1       -8.839  -1.429  -2.724  0.00  0.00    +0.029 A 
ATOM     41  C   LIG    1       -7.449  -1.410  -2.858  0.00  0.00    +0.031 A 
ATOM     42  I   LIG    1      -10.037  -2.584  -4.022  0.00  0.00    -0.043 I 
ATOM     43  C   LIG    1       -6.692  -0.644  -1.996  0.00  0.00    +0.037 A 
ATOM     44  I   LIG    1       -4.586  -0.622  -2.201  0.00  0.00    -0.042 I 
BRANCH  39  45
ATOM     45  C   LIG    1      -10.948  -0.735  -1.629  0.00  0.00    +0.339 C 
ATOM     46  O   LIG    1      -11.622  -1.435  -2.418  0.00  0.00    -0.245 OA
BRANCH  45  47
ATOM     47  O   LIG    1      -11.614  -0.004  -0.652  0.00  0.00    -0.477 OA
ATOM     48  H   LIG    1      -12.092   0.858  -0.910  0.00  0.00    +0.295 HD
ENDBRANCH  45  47
ENDBRANCH  39  45
ENDBRANCH  32  36
ENDBRANCH  31  33
ENDBRANCH  30  31
ENDBRANCH  29  30
ENDBRANCH  28  29
ENDBRANCH  27  28
ENDBRANCH  26  27
ENDBRANCH   1  26
TORSDOF 21
