REMARK  Name = molecules/WWXBHTZSYYGCSG-UHFFFAOYSA-N.pdb
REMARK                            x       y       z     vdW  Elec       q    Type
REMARK                         _______ _______ _______ _____ _____    ______ ____
ROOT
ATOM      1 AS   LIG    1        3.639  -0.220  -0.669  0.00  0.00    +0.000 As
ATOM      2  O   LIG    1        3.975  -1.000  -2.058  0.00  0.00    +0.000 OA
ENDROOT
BRANCH   1   3
ATOM      3  O   LIG    1        4.451  -1.098   0.750  0.00  0.00    +0.000 OA
ATOM      4  H   LIG    1        4.431  -0.548   1.568  0.00  0.00    +0.000 HD
ENDBRANCH   1   3
BRANCH   1   5
ATOM      5  O   LIG    1        4.331   1.494  -0.755  0.00  0.00    +0.000 OA
ATOM      6  H   LIG    1        3.603   2.098  -0.453  0.00  0.00    +0.000 HD
ENDBRANCH   1   5
TORSDOF 2
REMARK  Name = molecules/WWXBHTZSYYGCSG-UHFFFAOYSA-N.pdb
REMARK                            x       y       z     vdW  Elec       q    Type
REMARK                         _______ _______ _______ _____ _____    ______ ____
ROOT
ATOM      1  N   LIG    1       -2.473  -0.120   0.332  0.00  0.00    +0.000 N 
ATOM      2  H   LIG    1       -2.776  -0.410   1.301  0.00  0.00    +0.000 HD
ATOM      3  C   LIG    1       -3.530   0.228  -0.530  0.00  0.00    +0.000 C 
ATOM      4  N   LIG    1       -4.899   0.181  -0.092  0.00  0.00    +0.000 N 
ATOM      5  H   LIG    1       -5.349  -0.724   0.117  0.00  0.00    +0.000 HD
ATOM      6  H   LIG    1       -5.408   1.069   0.005  0.00  0.00    +0.000 HD
ATOM      7  O   LIG    1       -3.313   0.587  -1.700  0.00  0.00    +0.000 OA
ENDROOT
BRANCH   1  11
ATOM      8  C   LIG    1        1.721  -0.183  -0.373  0.00  0.00    +0.000 A 
ATOM      9  C   LIG    1        1.179  -0.532   0.841  0.00  0.00    +0.000 A 
ATOM     10  C   LIG    1       -0.183  -0.503   1.039  0.00  0.00    +0.000 A 
ATOM     11  C   LIG    1       -1.089  -0.121   0.038  0.00  0.00    +0.000 A 
ATOM     12  C   LIG    1       -0.530   0.225  -1.167  0.00  0.00    +0.000 A 
ATOM     13  C   LIG    1        0.852   0.194  -1.367  0.00  0.00    +0.000 A 
ENDBRANCH   1  11
TORSDOF 1
