REMARK  Name = molecules/WXNXCEHXYPACJF-SSDOTTSWSA-N.pdb
REMARK                            x       y       z     vdW  Elec       q    Type
REMARK                         _______ _______ _______ _____ _____    ______ ____
ROOT
ATOM      1  CA  LEU A  1        0.487   0.081  -0.257  0.00  0.00    +0.182 C 
ENDROOT
BRANCH   1   2
ATOM      2  N   LEU A  1        1.813  -0.046   0.411  0.00  0.00    -0.303 N 
ATOM      3  H   LEU A  1        2.040  -0.828   1.046  0.00  0.00    +0.149 HD
ATOM      4  C   UNK A  0        2.751   0.967   0.127  0.00  0.00    +0.211 C 
ATOM      5  C   UNK A  0        4.111   0.929   0.748  0.00  0.00    +0.109 C 
ATOM      6  O   UNK A  0        2.510   1.934  -0.642  0.00  0.00    -0.276 OA
ENDBRANCH   1   2
BRANCH   1   7
ATOM      7  C   LEU A  1        0.555  -1.168  -1.123  0.00  0.00    +0.325 C 
ATOM      8  O   LEU A  1        1.649  -1.342  -1.755  0.00  0.00    -0.249 OA
BRANCH   7   9
ATOM      9  OXT LEU A  1       -0.457  -2.048  -1.219  0.00  0.00    -0.479 OA
ATOM     10  HXT LEU A  1       -0.388  -3.052  -1.296  0.00  0.00    +0.295 HD
ENDBRANCH   7   9
ENDBRANCH   1   7
BRANCH   1  11
ATOM     11  CB  LEU A  1       -0.619  -0.012   0.691  0.00  0.00    +0.036 C 
BRANCH  11  12
ATOM     12  CG  LEU A  1       -1.962   0.294   0.146  0.00  0.00    -0.015 C 
ATOM     13  CD2 LEU A  1       -3.033   0.116   1.245  0.00  0.00    +0.007 C 
ATOM     14  CD1 LEU A  1       -2.433  -0.151  -1.165  0.00  0.00    +0.007 C 
ENDBRANCH  11  12
ENDBRANCH   1  11
TORSDOF 5
