REMARK  Name = molecules/WXURHACBFYSXBI-GQKYHHCASA-N.pdb
REMARK                            x       y       z     vdW  Elec       q    Type
REMARK                         _______ _______ _______ _____ _____    ______ ____
ROOT
ATOM      1  F   LIG    1       -1.580  -1.574   0.580  0.00  0.00    -0.238 F 
ATOM      2  C   LIG    1       -1.454  -0.413  -0.205  0.00  0.00    +0.153 C 
ATOM      3  C   LIG    1       -0.709   0.568   0.702  0.00  0.00    +0.037 C 
ATOM      4  C   LIG    1       -1.434   0.582   2.029  0.00  0.00    +0.048 C 
ATOM      5  C   LIG    1       -2.814   1.213   1.761  0.00  0.00    +0.194 C 
ATOM      6  F   LIG    1       -3.438   1.330   2.970  0.00  0.00    -0.241 F 
ATOM      7  C   LIG    1       -3.498   0.260   0.852  0.00  0.00    -0.020 C 
ATOM      8  C   LIG    1       -4.581  -0.349   1.266  0.00  0.00    +0.054 C 
ATOM      9  C   LIG    1       -5.205  -1.299   0.388  0.00  0.00    +0.179 C 
ATOM     10  O   LIG    1       -6.259  -1.908   0.758  0.00  0.00    -0.288 OA
ATOM     11  C   LIG    1       -4.638  -1.566  -0.920  0.00  0.00    +0.047 C 
ATOM     12  C   LIG    1       -3.555  -0.937  -1.298  0.00  0.00    -0.009 C 
ATOM     13  C   LIG    1        0.642  -0.030   0.888  0.00  0.00    +0.005 C 
ATOM     14  C   LIG    1        1.561   0.603   1.849  0.00  0.00    +0.011 C 
ATOM     15  C   LIG    1        2.851  -0.128   1.523  0.00  0.00    +0.026 C 
ATOM     16  C   LIG    1        2.751  -1.556   2.060  0.00  0.00    +0.011 C 
ATOM     17  C   LIG    1        2.786  -0.232  -0.005  0.00  0.00    +0.134 C 
ATOM     18  C   LIG    1        1.397   0.133  -0.423  0.00  0.00    +0.010 C 
ATOM     19  C   LIG    1        1.282   1.510  -1.000  0.00  0.00    +0.015 C 
ATOM     20  C   LIG    1        0.753  -0.831  -1.366  0.00  0.00    +0.044 C 
ATOM     21  C   LIG    1       -2.850   0.053  -0.473  0.00  0.00    +0.047 C 
ATOM     22  C   LIG    1       -2.900   1.363  -1.231  0.00  0.00    +0.023 C 
ATOM     23  C   LIG    1       -0.719  -0.786  -1.427  0.00  0.00    +0.154 C 
ENDROOT
BRANCH  17  24
ATOM     24  O   LIG    1        3.102  -1.526  -0.411  0.00  0.00    -0.380 OA
ATOM     25  H   LIG    1        3.231  -1.593  -1.388  0.00  0.00    +0.211 HD
ENDBRANCH  17  24
BRANCH  17  26
ATOM     26  C   LIG    1        3.825   0.698  -0.506  0.00  0.00    +0.190 C 
ATOM     27  O   LIG    1        3.813   1.897  -0.302  0.00  0.00    -0.292 OA
BRANCH  26  28
ATOM     28  C   LIG    1        4.949   0.158  -1.302  0.00  0.00    +0.233 C 
BRANCH  28  29
ATOM     29  O   LIG    1        5.818   1.177  -1.675  0.00  0.00    -0.387 OA
ATOM     30  H   LIG    1        6.061   1.761  -0.916  0.00  0.00    +0.210 HD
ENDBRANCH  28  29
ENDBRANCH  26  28
ENDBRANCH  17  26
BRANCH  23  31
ATOM     31  O   LIG    1       -1.085   0.000  -2.547  0.00  0.00    -0.389 OA
ATOM     32  H   LIG    1       -0.680  -0.485  -3.327  0.00  0.00    +0.210 HD
ENDBRANCH  23  31
TORSDOF 5
