REMARK  Name = molecules/WXXSNCNJFUAIDG-UHFFFAOYSA-N.pdb
REMARK                            x       y       z     vdW  Elec       q    Type
REMARK                         _______ _______ _______ _____ _____    ______ ____
ROOT
ATOM      1  C   LIG    1        0.628   0.177  -0.105  0.00  0.00    +0.184 A 
ATOM      2  N   LIG    1        1.565   0.552   0.775  0.00  0.00    -0.209 NA
ATOM      3  C   LIG    1        2.837   0.086   0.652  0.00  0.00    +0.144 A 
ATOM      4  C   LIG    1        3.215  -0.773  -0.358  0.00  0.00    +0.118 A 
ATOM      5  C   LIG    1        2.218  -1.148  -1.261  0.00  0.00    +0.144 A 
ATOM      6  N   LIG    1        0.977  -0.665  -1.103  0.00  0.00    -0.209 NA
ENDROOT
BRANCH   1  14
ATOM      7  N   LIG    1       -2.895   0.963  -0.529  0.00  0.00    -0.241 N 
ATOM      8  C   LIG    1       -2.626   1.726   0.531  0.00  0.00    +0.159 A 
ATOM      9  N   LIG    1       -3.373   2.579   1.274  0.00  0.00    -0.236 NA
ATOM     10  C   LIG    1       -2.849   3.240   2.295  0.00  0.00    +0.113 A 
ATOM     11  C   LIG    1       -1.511   3.071   2.630  0.00  0.00    +0.020 A 
ATOM     12  C   LIG    1       -0.729   2.214   1.897  0.00  0.00    +0.015 A 
ATOM     13  C   LIG    1       -1.282   1.537   0.842  0.00  0.00    +0.050 A 
ATOM     14  C   LIG    1       -0.759   0.638  -0.066  0.00  0.00    +0.139 A 
ATOM     15  N   LIG    1       -1.762   0.317  -0.873  0.00  0.00    -0.165 NA
BRANCH   7  16
ATOM     16  C   LIG    1       -4.151   0.812  -1.216  0.00  0.00    +0.183 C 
BRANCH  16  17
ATOM     17  C   LIG    1       -5.004  -0.284  -0.749  0.00  0.00    +0.009 A 
ATOM     18  C   LIG    1       -5.801  -0.213   0.366  0.00  0.00    +0.128 A 
ATOM     19  F   LIG    1       -5.885   0.911   1.119  0.00  0.00    -0.205 F 
ATOM     20  C   LIG    1       -6.596  -1.267   0.809  0.00  0.00    +0.039 A 
ATOM     21  C   LIG    1       -6.584  -2.439   0.096  0.00  0.00    +0.003 A 
ATOM     22  C   LIG    1       -5.800  -2.566  -1.036  0.00  0.00    +0.000 A 
ATOM     23  C   LIG    1       -5.033  -1.506  -1.438  0.00  0.00    +0.008 A 
ENDBRANCH  16  17
ENDBRANCH   7  16
ENDBRANCH   1  14
BRANCH   4  24
ATOM     24  N   LIG    1        4.514  -1.277  -0.524  0.00  0.00    -0.234 N 
ATOM     25  C   LIG    1        5.606  -0.380  -0.591  0.00  0.00    +0.407 C 
ATOM     26  O   LIG    1        6.773  -0.809  -0.734  0.00  0.00    -0.226 OA
ATOM     27  C   LIG    1        4.756  -2.694  -0.635  0.00  0.00    +0.142 C 
BRANCH  25  28
ATOM     28  O   LIG    1        5.388   0.986  -0.499  0.00  0.00    -0.453 OA
ATOM     29  C   LIG    1        6.516   1.869  -0.573  0.00  0.00    +0.282 C 
ENDBRANCH  25  28
ENDBRANCH   4  24
BRANCH   3  30
ATOM     30  N   LIG    1        3.817   0.488   1.596  0.00  0.00    -0.342 N 
ATOM     31  H   LIG    1        3.835   1.430   2.027  0.00  0.00    +0.144 HD
ATOM     32  H   LIG    1        4.549  -0.194   1.867  0.00  0.00    +0.144 HD
ENDBRANCH   3  30
BRANCH   5  33
ATOM     33  N   LIG    1        2.587  -2.029  -2.301  0.00  0.00    -0.342 N 
ATOM     34  H   LIG    1        2.279  -3.015  -2.311  0.00  0.00    +0.144 HD
ATOM     35  H   LIG    1        3.182  -1.682  -3.074  0.00  0.00    +0.144 HD
ENDBRANCH   5  33
TORSDOF 7
