REMARK  Name = molecules/WXZMFSXDPGVJKK-UHFFFAOYSA-N.pdb
REMARK                            x       y       z     vdW  Elec       q    Type
REMARK                         _______ _______ _______ _____ _____    ______ ____
ROOT
ATOM      1  C   LIG    1        0.061  -0.114   0.096  0.00  0.00    +0.063 C 
ENDROOT
BRANCH   1   2
ATOM      2  C   LIG    1        0.457  -0.789   1.372  0.00  0.00    +0.169 C 
BRANCH   2   3
ATOM      3  O   LIG    1       -0.351  -1.845   1.724  0.00  0.00    -0.394 OA
ATOM      4  H   LIG    1       -0.054  -2.158   2.618  0.00  0.00    +0.209 HD
ENDBRANCH   2   3
ENDBRANCH   1   2
BRANCH   1   5
ATOM      5  C   LIG    1       -1.331   0.460   0.129  0.00  0.00    +0.169 C 
BRANCH   5   6
ATOM      6  O   LIG    1       -1.428   1.417   1.154  0.00  0.00    -0.394 OA
ATOM      7  H   LIG    1       -1.833   2.259   0.848  0.00  0.00    +0.209 HD
ENDBRANCH   5   6
ENDBRANCH   1   5
BRANCH   1   8
ATOM      8  C   LIG    1        1.024   1.066  -0.099  0.00  0.00    +0.169 C 
BRANCH   8   9
ATOM      9  O   LIG    1        0.743   1.764  -1.259  0.00  0.00    -0.394 OA
ATOM     10  H   LIG    1        1.488   1.752  -1.906  0.00  0.00    +0.209 HD
ENDBRANCH   8   9
ENDBRANCH   1   8
BRANCH   1  11
ATOM     11  C   LIG    1        0.146  -1.056  -1.084  0.00  0.00    +0.169 C 
BRANCH  11  12
ATOM     12  O   LIG    1       -0.211  -0.466  -2.269  0.00  0.00    -0.394 OA
ATOM     13  H   LIG    1       -0.928  -0.944  -2.756  0.00  0.00    +0.209 HD
ENDBRANCH  11  12
ENDBRANCH   1  11
TORSDOF 8
