REMARK  Name = molecules/WYCLKVQLVUQKNZ-UHFFFAOYSA-N.pdb
REMARK                            x       y       z     vdW  Elec       q    Type
REMARK                         _______ _______ _______ _____ _____    ______ ____
ROOT
ATOM      1  N   LIG    1        2.325   0.084  -0.543  0.00  0.00    -0.261 N 
ATOM      2  C   LIG    1        1.401  -0.965  -0.186  0.00  0.00    +0.046 A 
ATOM      3  C   LIG    1        1.980  -2.139   0.204  0.00  0.00    +0.025 A 
ATOM      4  C   LIG    1        1.137  -3.208   0.466  0.00  0.00    +0.022 A 
ATOM      5  C   LIG    1       -0.225  -3.054   0.324  0.00  0.00    +0.042 A 
ATOM      6 CL   LIG    1       -1.285  -4.414   0.662  0.00  0.00    -0.084 Cl
ATOM      7  C   LIG    1       -0.828  -1.875  -0.070  0.00  0.00    +0.032 A 
ATOM      8  C   LIG    1        0.012  -0.803  -0.326  0.00  0.00    +0.023 A 
ATOM      9  C   LIG    1       -0.751   0.361  -0.692  0.00  0.00    +0.075 C 
ATOM     10  N   LIG    1       -0.344   1.206  -1.624  0.00  0.00    -0.273 NA
ATOM     11  C   LIG    1        0.865   1.189  -2.438  0.00  0.00    +0.238 C 
ATOM     12  C   LIG    1        2.099   1.036  -1.617  0.00  0.00    +0.241 C 
ATOM     13  O   LIG    1        3.026   1.797  -1.874  0.00  0.00    -0.273 OA
ENDROOT
BRANCH   9  14
ATOM     14  C   LIG    1       -2.017   0.635  -0.048  0.00  0.00    +0.001 A 
ATOM     15  C   LIG    1       -2.553   0.004   1.021  0.00  0.00    +0.010 A 
ATOM     16  C   LIG    1       -3.822   0.288   1.504  0.00  0.00    +0.001 A 
ATOM     17  C   LIG    1       -4.607   1.243   0.908  0.00  0.00    +0.000 A 
ATOM     18  C   LIG    1       -4.085   1.913  -0.191  0.00  0.00    +0.001 A 
ATOM     19  C   LIG    1       -2.836   1.621  -0.654  0.00  0.00    +0.010 A 
ENDBRANCH   9  14
BRANCH   1  20
ATOM     20  C   LIG    1        3.509   0.151   0.217  0.00  0.00    +0.226 C 
BRANCH  20  21
ATOM     21  C   LIG    1        3.307   1.087   1.452  0.00  0.00    +0.406 C 
ATOM     22  F   LIG    1        2.389   0.549   2.312  0.00  0.00    -0.169 F 
ATOM     23  F   LIG    1        4.501   1.208   2.138  0.00  0.00    -0.169 F 
ATOM     24  F   LIG    1        2.975   2.348   1.005  0.00  0.00    -0.169 F 
ENDBRANCH  20  21
ENDBRANCH   1  20
TORSDOF 3
