REMARK  Name = molecules/WYDUSKDSKCASEF-IBGZPJMESA-N.pdb
REMARK                            x       y       z     vdW  Elec       q    Type
REMARK                         _______ _______ _______ _____ _____    ______ ____
ROOT
ATOM      1  C   LIG    1       -0.213   0.553  -0.341  0.00  0.00    +0.095 C 
ENDROOT
BRANCH   1   2
ATOM      2  C   LIG    1       -0.861  -0.780  -0.100  0.00  0.00    +0.025 C 
ATOM      3  C   LIG    1       -1.714  -0.879   1.120  0.00  0.00    +0.007 C 
ATOM      4  C   LIG    1       -2.218  -2.319   1.212  0.00  0.00    +0.000 C 
ATOM      5  C   LIG    1       -3.076  -2.699   0.063  0.00  0.00    +0.000 C 
ATOM      6  C   LIG    1       -2.948  -1.757  -1.077  0.00  0.00    +0.000 C 
ATOM      7  C   LIG    1       -1.516  -1.315  -1.314  0.00  0.00    +0.007 C 
ENDBRANCH   1   2
BRANCH   1   8
ATOM      8  C   LIG    1       -1.264   1.626  -0.320  0.00  0.00    -0.016 A 
ATOM      9  C   LIG    1       -1.706   2.204   0.862  0.00  0.00    +0.006 A 
ATOM     10  C   LIG    1       -2.660   3.190   0.941  0.00  0.00    +0.000 A 
ATOM     11  C   LIG    1       -3.228   3.650  -0.243  0.00  0.00    +0.000 A 
ATOM     12  C   LIG    1       -2.817   3.101  -1.433  0.00  0.00    +0.000 A 
ATOM     13  C   LIG    1       -1.864   2.118  -1.466  0.00  0.00    +0.006 A 
ENDBRANCH   1   8
BRANCH   1  14
ATOM     14  O   LIG    1        0.404   0.585  -1.569  0.00  0.00    -0.384 OA
ATOM     15  H   LIG    1        0.767  -0.272  -1.857  0.00  0.00    +0.211 HD
ENDBRANCH   1  14
BRANCH   1  16
ATOM     16  C   LIG    1        0.771   0.927   0.733  0.00  0.00    +0.055 C 
BRANCH  16  17
ATOM     17  C   LIG    1        1.876  -0.116   0.824  0.00  0.00    +0.087 C 
BRANCH  17  18
ATOM     18  N   LIG    1        2.680  -0.255  -0.342  0.00  0.00    -0.302 NA
ATOM     19  C   LIG    1        3.448  -1.466  -0.272  0.00  0.00    +0.084 C 
ATOM     20  C   LIG    1        4.626  -1.127   0.623  0.00  0.00    +0.017 C 
ATOM     21  C   LIG    1        4.850   0.321   0.343  0.00  0.00    +0.017 C 
ATOM     22  C   LIG    1        3.662   0.802  -0.495  0.00  0.00    +0.084 C 
ENDBRANCH  17  18
ENDBRANCH  16  17
ENDBRANCH   1  16
TORSDOF 6
