REMARK  Name = molecules/WYIJGAVIVKPUGJ-GIVPXCGWSA-N.pdb
REMARK                            x       y       z     vdW  Elec       q    Type
REMARK                         _______ _______ _______ _____ _____    ______ ____
ROOT
ATOM      1  C   LIG    1       -1.234   0.988   0.617  0.00  0.00    -0.003 C 
ATOM      2  C   LIG    1       -2.358   1.176   1.654  0.00  0.00    +0.010 C 
ATOM      3  C   LIG    1       -3.481   0.227   1.519  0.00  0.00    +0.016 C 
ATOM      4  C   LIG    1       -3.103  -1.206   1.421  0.00  0.00    +0.085 C 
ATOM      5  N   LIG    1       -1.778  -1.447   0.905  0.00  0.00    -0.293 NA
ATOM      6  C   LIG    1       -1.906  -2.612   0.014  0.00  0.00    +0.090 C 
ATOM      7  C   LIG    1       -0.817  -2.776  -0.989  0.00  0.00    +0.053 C 
ATOM      8  C   LIG    1        0.416  -2.043  -0.643  0.00  0.00    -0.016 A 
ATOM      9  C   LIG    1        0.192  -0.809  -0.053  0.00  0.00    +0.044 A 
ATOM     10  N   LIG    1        1.293  -0.206   0.242  0.00  0.00    -0.305 N 
ATOM     11  C   LIG    1        1.327   1.073   0.873  0.00  0.00    +0.244 C 
ATOM     12  C   LIG    1        2.299  -1.044  -0.156  0.00  0.00    +0.054 A 
ATOM     13  C   LIG    1        3.663  -0.885  -0.074  0.00  0.00    +0.041 A 
ATOM     14  C   LIG    1        4.464  -1.911  -0.563  0.00  0.00    +0.020 A 
ATOM     15 BR   LIG    1        6.380  -1.754  -0.480  0.00  0.00    -0.050 Br
ATOM     16  C   LIG    1        3.913  -3.057  -1.115  0.00  0.00    +0.016 A 
ATOM     17  C   LIG    1        2.532  -3.218  -1.198  0.00  0.00    +0.011 A 
ATOM     18  C   LIG    1        1.764  -2.191  -0.709  0.00  0.00    +0.004 A 
ATOM     19  C   LIG    1       -0.024   1.529   1.280  0.00  0.00    +0.079 C 
ATOM     20  C   LIG    1       -1.231  -0.388   0.133  0.00  0.00    +0.110 C 
ENDROOT
BRANCH   1  21
ATOM     21  C   LIG    1       -1.562   1.924  -0.546  0.00  0.00    +0.005 C 
ATOM     22  C   LIG    1       -2.885   1.724  -1.181  0.00  0.00    +0.004 C 
ENDBRANCH   1  21
BRANCH  11  23
ATOM     23  O   LIG    1        1.999   0.866   2.137  0.00  0.00    -0.361 OA
ATOM     24  H   LIG    1        1.799  -0.033   2.460  0.00  0.00    +0.213 HD
ENDBRANCH  11  23
BRANCH  11  25
ATOM     25  C   LIG    1        2.167   2.073   0.207  0.00  0.00    +0.361 C 
ATOM     26  O   LIG    1        3.186   2.592   0.717  0.00  0.00    -0.245 OA
BRANCH  25  27
ATOM     27  O   LIG    1        1.856   2.501  -1.065  0.00  0.00    -0.465 OA
ATOM     28  C   LIG    1        2.614   3.463  -1.781  0.00  0.00    +0.280 C 
ENDBRANCH  25  27
ENDBRANCH  11  25
TORSDOF 4
