REMARK  Name = molecules/WYJAPUKIYAZSEM-MOPGFXCFSA-N.pdb
REMARK                            x       y       z     vdW  Elec       q    Type
REMARK                         _______ _______ _______ _____ _____    ______ ____
ROOT
ATOM      1  C   LIG    1       -1.552  -0.678  -0.124  0.00  0.00    +0.000 C 
ATOM      2  C   LIG    1       -0.675   0.458   0.182  0.00  0.00    +0.111 C 
ATOM      3  C   LIG    1        0.757   0.137   0.087  0.00  0.00    +0.048 A 
ATOM      4  C   LIG    1        1.697   1.122   0.197  0.00  0.00    -0.016 A 
ATOM      5  C   LIG    1        1.310   2.552   0.364  0.00  0.00    +0.053 C 
ATOM      6  C   LIG    1       -0.175   2.708   0.298  0.00  0.00    +0.090 C 
ATOM      7  C   LIG    1        2.934   0.503   0.093  0.00  0.00    +0.004 A 
ATOM      8  C   LIG    1        4.236   0.916   0.125  0.00  0.00    +0.010 A 
ATOM      9  C   LIG    1        5.287   0.033  -0.007  0.00  0.00    +0.001 A 
ATOM     10  C   LIG    1        4.958  -1.308  -0.177  0.00  0.00    +0.002 A 
ATOM     11  C   LIG    1        3.661  -1.750  -0.213  0.00  0.00    +0.027 A 
ATOM     12  C   LIG    1        2.640  -0.856  -0.080  0.00  0.00    +0.057 A 
ATOM     13  N   LIG    1        1.314  -1.042  -0.080  0.00  0.00    -0.282 N 
ATOM     14  C   LIG    1        0.419  -2.171  -0.249  0.00  0.00    +0.233 C 
ATOM     15  O   LIG    1        0.820  -3.273   0.110  0.00  0.00    -0.272 OA
ATOM     16  N   LIG    1       -0.833   1.699  -0.509  0.00  0.00    -0.293 NA
ATOM     17  C   LIG    1       -2.128   2.044  -0.956  0.00  0.00    +0.085 C 
ATOM     18  C   LIG    1       -3.204   1.087  -0.531  0.00  0.00    +0.016 C 
ATOM     19  C   LIG    1       -0.882  -1.805  -0.853  0.00  0.00    +0.108 C 
ATOM     20  C   LIG    1       -2.769  -0.299  -0.944  0.00  0.00    +0.010 C 
ENDROOT
BRANCH   1  21
ATOM     21  C   LIG    1       -2.124  -1.188   1.216  0.00  0.00    +0.006 C 
ATOM     22  C   LIG    1       -3.041  -2.341   1.077  0.00  0.00    +0.004 C 
ENDBRANCH   1  21
TORSDOF 1
