REMARK  Name = molecules/WYJAPUKIYAZSEM-RBUKOAKNSA-N.pdb
REMARK                            x       y       z     vdW  Elec       q    Type
REMARK                         _______ _______ _______ _____ _____    ______ ____
ROOT
ATOM      1  C   LIG    1       -1.630  -0.437   0.792  0.00  0.00    +0.000 C 
ATOM      2  C   LIG    1       -2.305   0.364   1.878  0.00  0.00    +0.010 C 
ATOM      3  C   LIG    1       -2.990   1.544   1.298  0.00  0.00    +0.016 C 
ATOM      4  C   LIG    1       -2.007   2.391   0.579  0.00  0.00    +0.085 C 
ATOM      5  N   LIG    1       -0.712   1.806   0.354  0.00  0.00    -0.293 NA
ATOM      6  C   LIG    1        0.021   2.643  -0.505  0.00  0.00    +0.090 C 
ATOM      7  C   LIG    1        1.118   2.039  -1.331  0.00  0.00    +0.053 C 
ATOM      8  C   LIG    1        1.535   0.730  -0.829  0.00  0.00    -0.016 A 
ATOM      9  C   LIG    1        0.599  -0.032  -0.207  0.00  0.00    +0.048 A 
ATOM     10  N   LIG    1        1.141  -1.164   0.194  0.00  0.00    -0.282 N 
ATOM     11  C   LIG    1        0.289  -2.065   0.888  0.00  0.00    +0.233 C 
ATOM     12  O   LIG    1        0.601  -3.260   0.947  0.00  0.00    -0.272 OA
ATOM     13  C   LIG    1        2.458  -1.163  -0.167  0.00  0.00    +0.057 A 
ATOM     14  C   LIG    1        3.448  -2.084   0.006  0.00  0.00    +0.027 A 
ATOM     15  C   LIG    1        4.720  -1.840  -0.461  0.00  0.00    +0.002 A 
ATOM     16  C   LIG    1        5.026  -0.658  -1.115  0.00  0.00    +0.001 A 
ATOM     17  C   LIG    1        4.013   0.277  -1.288  0.00  0.00    +0.010 A 
ATOM     18  C   LIG    1        2.741   0.034  -0.822  0.00  0.00    +0.004 A 
ATOM     19  C   LIG    1       -0.917  -1.561   1.508  0.00  0.00    +0.108 C 
ATOM     20  C   LIG    1       -0.778   0.424  -0.058  0.00  0.00    +0.111 C 
ENDROOT
BRANCH   1  21
ATOM     21  C   LIG    1       -2.782  -1.052  -0.025  0.00  0.00    +0.006 C 
ATOM     22  C   LIG    1       -2.242  -1.904  -1.152  0.00  0.00    +0.004 C 
ENDBRANCH   1  21
TORSDOF 1
