REMARK  Name = molecules/WYWHKKSPHMUBEB-UHFFFAOYSA-N.pdb
REMARK                            x       y       z     vdW  Elec       q    Type
REMARK                         _______ _______ _______ _____ _____    ______ ____
ROOT
ATOM      1  C   LIG    1        1.703   0.001   0.136  0.00  0.00    +0.193 A 
ATOM      2  N   LIG    1        0.901  -1.017   0.515  0.00  0.00    -0.195 NA
ATOM      3  C   LIG    1       -0.436  -1.006   0.400  0.00  0.00    +0.183 A 
ATOM      4  N   LIG    1       -1.441  -1.857   0.690  0.00  0.00    -0.216 NA
ATOM      5  C   LIG    1       -2.623  -1.325   0.359  0.00  0.00    +0.199 A 
ATOM      6  N   LIG    1       -2.375  -0.107  -0.154  0.00  0.00    -0.341 N 
ATOM      7  H   LIG    1       -3.059   0.602  -0.521  0.00  0.00    +0.167 HD
ATOM      8  C   LIG    1       -1.056   0.103  -0.137  0.00  0.00    +0.116 A 
ATOM      9  C   LIG    1       -0.248   1.146  -0.527  0.00  0.00    +0.114 A 
ATOM     10  S   LIG    1       -0.943   2.482  -1.170  0.00  0.00    -0.030 S 
ATOM     11  N   LIG    1        1.087   1.084  -0.390  0.00  0.00    -0.320 N 
ATOM     12  H   LIG    1        1.716   1.874  -0.684  0.00  0.00    +0.169 HD
ENDROOT
BRANCH   1  13
ATOM     13  N   LIG    1        3.120  -0.058   0.279  0.00  0.00    -0.329 N 
ATOM     14  H   LIG    1        3.502  -0.052   1.244  0.00  0.00    +0.145 HD
ATOM     15  H   LIG    1        3.776  -0.104  -0.508  0.00  0.00    +0.145 HD
ENDBRANCH   1  13
TORSDOF 1
