REMARK  Name = molecules/WYWIFABBXFUGLM-UHFFFAOYSA-N.pdb
REMARK                            x       y       z     vdW  Elec       q    Type
REMARK                         _______ _______ _______ _____ _____    ______ ____
ROOT
ATOM      1  C   LIG    1        0.747  -0.535   0.722  0.00  0.00    -0.035 A 
ATOM      2  C   LIG    1        0.185   0.430   1.530  0.00  0.00    -0.046 A 
ATOM      3  C   LIG    1        0.887   1.079   2.663  0.00  0.00    +0.044 C 
ATOM      4  C   LIG    1       -1.126   0.820   1.258  0.00  0.00    +0.011 A 
ATOM      5  C   LIG    1       -1.837   0.259   0.217  0.00  0.00    -0.000 A 
ATOM      6  C   LIG    1       -1.266  -0.715  -0.595  0.00  0.00    +0.124 A 
ATOM      7  C   LIG    1        0.028  -1.105  -0.334  0.00  0.00    -0.005 A 
ATOM      8  C   LIG    1        0.634  -2.145  -1.207  0.00  0.00    +0.048 C 
ENDROOT
BRANCH   5   9
ATOM      9  C   LIG    1       -3.234   0.658  -0.093  0.00  0.00    -0.009 C 
ATOM     10  C   LIG    1       -3.707   1.742   0.845  0.00  0.00    +0.015 C 
ATOM     11  C   LIG    1       -4.152  -0.552   0.016  0.00  0.00    +0.015 C 
ATOM     12  C   LIG    1       -3.286   1.200  -1.501  0.00  0.00    +0.015 C 
ENDBRANCH   5   9
BRANCH   6  13
ATOM     13  O   LIG    1       -1.998  -1.264  -1.634  0.00  0.00    -0.506 OA
ATOM     14  H   LIG    1       -1.712  -1.958  -2.276  0.00  0.00    +0.292 HD
ENDBRANCH   6  13
BRANCH   1  15
ATOM     15  C   LIG    1        2.124  -0.977   0.973  0.00  0.00    +0.078 C 
BRANCH  15  16
ATOM     16  C   LIG    1        3.085  -0.385  -0.023  0.00  0.00    +0.124 C 
ATOM     17  N   LIG    1        4.475  -0.671   0.036  0.00  0.00    -0.293 NA
ATOM     18  H   LIG    1        5.037  -1.073   0.810  0.00  0.00    +0.124 HD
ATOM     19  C   LIG    1        5.020  -0.283  -1.249  0.00  0.00    +0.099 C 
ATOM     20  C   LIG    1        4.006   0.732  -1.701  0.00  0.00    +0.119 C 
ATOM     21  N   LIG    1        2.812   0.399  -0.996  0.00  0.00    -0.214 NA
ENDBRANCH  15  16
ENDBRANCH   1  15
TORSDOF 4
