REMARK  Name = molecules/WYZDXEKUWRCKOB-YDSAWKJFSA-N.pdb
REMARK                            x       y       z     vdW  Elec       q    Type
REMARK                         _______ _______ _______ _____ _____    ______ ____
ROOT
ATOM      1  C   LIG    1        2.021   1.267  -0.838  0.00  0.00    +0.012 C 
ATOM      2  C   LIG    1        1.942   0.347   0.370  0.00  0.00    -0.025 C 
ATOM      3  C   LIG    1        2.522   1.083   1.539  0.00  0.00    +0.015 C 
ATOM      4  C   LIG    1        3.953   1.448   1.341  0.00  0.00    +0.075 C 
ATOM      5  C   LIG    1        4.712   0.471   0.538  0.00  0.00    +0.134 C 
ATOM      6  O   LIG    1        5.934   0.588   0.511  0.00  0.00    -0.297 OA
ATOM      7  C   LIG    1        4.118  -0.632  -0.232  0.00  0.00    +0.078 C 
ATOM      8  C   LIG    1        0.511  -0.042   0.675  0.00  0.00    -0.001 C 
ATOM      9  C   LIG    1       -0.254   1.063   1.307  0.00  0.00    +0.005 C 
ATOM     10  C   LIG    1       -1.705   0.642   1.451  0.00  0.00    +0.010 C 
ATOM     11  C   LIG    1       -2.238   0.438   0.084  0.00  0.00    -0.000 C 
ATOM     12  C   LIG    1       -3.653  -0.034   0.004  0.00  0.00    +0.069 C 
ATOM     13  C   LIG    1       -3.966  -1.185   0.921  0.00  0.00    +0.042 C 
ATOM     14  C   LIG    1       -3.706  -0.591  -1.425  0.00  0.00    +0.035 C 
ATOM     15  C   LIG    1       -2.266  -0.927  -1.784  0.00  0.00    +0.007 C 
ATOM     16  C   LIG    1       -1.521  -0.788  -0.503  0.00  0.00    +0.001 C 
ATOM     17  C   LIG    1       -2.075   1.640  -0.779  0.00  0.00    +0.014 C 
ATOM     18  C   LIG    1       -0.067  -0.551  -0.615  0.00  0.00    -0.004 C 
ATOM     19  C   LIG    1        0.619  -1.858  -0.934  0.00  0.00    +0.004 C 
ATOM     20  C   LIG    1        2.095  -1.796  -0.921  0.00  0.00    +0.005 C 
ATOM     21  C   LIG    1        2.696  -0.934   0.144  0.00  0.00    +0.002 C 
ENDROOT
BRANCH  12  22
ATOM     22  O   LIG    1       -4.581   1.002   0.159  0.00  0.00    -0.388 OA
ATOM     23  H   LIG    1       -5.271   0.787   0.831  0.00  0.00    +0.210 HD
ENDBRANCH  12  22
TORSDOF 1
