REMARK  Name = molecules/WZDGZWOAQTVYBX-XOINTXKNSA-N.pdb
REMARK                            x       y       z     vdW  Elec       q    Type
REMARK                         _______ _______ _______ _____ _____    ______ ____
ROOT
ATOM      1  C   LIG    1        0.308  -2.525   1.831  0.00  0.00    +0.008 C 
ATOM      2  C   LIG    1        0.698  -1.959   0.497  0.00  0.00    -0.010 C 
ATOM      3  C   LIG    1        2.197  -1.802   0.382  0.00  0.00    +0.012 C 
ATOM      4  C   LIG    1        2.590  -0.563  -0.346  0.00  0.00    -0.009 C 
ATOM      5  C   LIG    1        2.034   0.604  -0.020  0.00  0.00    -0.013 C 
ATOM      6  C   LIG    1        0.790   0.494   0.758  0.00  0.00    -0.000 C 
ATOM      7  C   LIG    1       -0.040   1.699   0.873  0.00  0.00    +0.005 C 
ATOM      8  C   LIG    1       -1.150   1.839  -0.125  0.00  0.00    +0.011 C 
ATOM      9  C   LIG    1       -1.891   0.606  -0.439  0.00  0.00    +0.011 C 
ATOM     10  C   LIG    1       -1.368  -0.509   0.482  0.00  0.00    +0.002 C 
ATOM     11  C   LIG    1       -2.311  -1.603   0.200  0.00  0.00    +0.008 C 
ATOM     12  C   LIG    1       -3.639  -0.895   0.005  0.00  0.00    +0.049 C 
ATOM     13  C   LIG    1       -3.336   0.580  -0.146  0.00  0.00    +0.132 C 
ATOM     14  C   LIG    1       -1.674   0.241  -1.891  0.00  0.00    +0.015 C 
ATOM     15  C   LIG    1        2.694   1.832  -0.456  0.00  0.00    +0.016 C 
ATOM     16  C   LIG    1        4.204   1.581  -0.337  0.00  0.00    +0.075 C 
ATOM     17  C   LIG    1        4.527   0.555  -1.365  0.00  0.00    +0.134 C 
ATOM     18  O   LIG    1        5.448   0.607  -2.129  0.00  0.00    -0.297 OA
ATOM     19  C   LIG    1        3.610  -0.643  -1.438  0.00  0.00    +0.082 C 
ATOM     20  C   LIG    1        0.042  -0.696   0.132  0.00  0.00    -0.001 C 
ENDROOT
BRANCH  13  21
ATOM     21  C   LIG    1       -3.722   1.340   1.037  0.00  0.00    -0.070 C 
ATOM     22  C   LIG    1       -4.048   1.949   2.022  0.00  0.00    +0.007 C 
ENDBRANCH  13  21
BRANCH  13  23
ATOM     23  O   LIG    1       -4.065   1.065  -1.224  0.00  0.00    -0.376 OA
ATOM     24  H   LIG    1       -4.696   0.381  -1.583  0.00  0.00    +0.211 HD
ENDBRANCH  13  23
TORSDOF 2
