REMARK  Name = molecules/WZGBZLHGOVJDET-UHFFFAOYSA-N.pdb
REMARK                            x       y       z     vdW  Elec       q    Type
REMARK                         _______ _______ _______ _____ _____    ______ ____
ROOT
ATOM      1  C   LIG    1        1.685  -1.217   0.516  0.00  0.00    +0.048 A 
ATOM      2  C   LIG    1        0.499  -1.924   0.536  0.00  0.00    +0.059 A 
ATOM      3  C   LIG    1        0.422  -3.058  -0.243  0.00  0.00    +0.029 A 
ATOM      4  C   LIG    1        1.429  -3.531  -1.030  0.00  0.00    +0.035 A 
ATOM      5  C   LIG    1        2.608  -2.810  -1.038  0.00  0.00    +0.127 A 
ATOM      6  C   LIG    1        2.726  -1.661  -0.266  0.00  0.00    +0.046 A 
ENDROOT
BRANCH   2   7
ATOM      7  N   LIG    1       -0.570  -1.471   1.335  0.00  0.00    -0.302 N 
ATOM      8  C   LIG    1       -1.013  -2.021   2.473  0.00  0.00    +0.112 A 
ATOM      9  C   LIG    1       -2.080  -1.298   2.959  0.00  0.00    +0.131 A 
ATOM     10  N   LIG    1       -2.274  -0.298   2.091  0.00  0.00    -0.239 NA
ATOM     11  C   LIG    1       -1.359  -0.397   1.099  0.00  0.00    +0.128 A 
BRANCH  11  12
ATOM     12  C   LIG    1       -1.156   0.464  -0.078  0.00  0.00    +0.159 C 
BRANCH  12  13
ATOM     13  N   LIG    1       -2.430   0.957  -0.639  0.00  0.00    -0.296 NA
BRANCH  13  14
ATOM     14  C   LIG    1       -2.905   1.979   0.198  0.00  0.00    +0.081 C 
ATOM     15  C   LIG    1       -4.130   2.709  -0.302  0.00  0.00    +0.020 C 
ENDBRANCH  13  14
BRANCH  13  16
ATOM     16  C   LIG    1       -3.264  -0.143  -0.962  0.00  0.00    +0.081 C 
ATOM     17  C   LIG    1       -4.568   0.120  -1.608  0.00  0.00    +0.020 C 
ENDBRANCH  13  16
ENDBRANCH  12  13
ENDBRANCH  11  12
ENDBRANCH   2   7
BRANCH   5  18
ATOM     18  N   LIG    1        3.710  -3.223  -1.824  0.00  0.00    +0.056 N 
ATOM     19  O   LIG    1        4.771  -2.576  -1.845  0.00  0.00    -0.126 OA
ATOM     20  O   LIG    1        3.599  -4.359  -2.576  0.00  0.00    -0.126 OA
ENDBRANCH   5  18
BRANCH   1  21
ATOM     21  C   LIG    1        1.865  -0.002   1.327  0.00  0.00    +0.197 C 
ATOM     22  O   LIG    1        1.252   0.088   2.422  0.00  0.00    -0.287 OA
BRANCH  21  23
ATOM     23  C   LIG    1        2.741   1.024   0.813  0.00  0.00    +0.041 A 
ATOM     24  C   LIG    1        3.458   1.861   1.633  0.00  0.00    +0.052 A 
ATOM     25 CL   LIG    1        3.374   1.730   3.383  0.00  0.00    -0.083 Cl
ATOM     26  C   LIG    1        4.282   2.850   1.112  0.00  0.00    +0.021 A 
ATOM     27  C   LIG    1        4.380   2.992  -0.268  0.00  0.00    +0.001 A 
ATOM     28  C   LIG    1        3.663   2.156  -1.104  0.00  0.00    +0.001 A 
ATOM     29  C   LIG    1        2.856   1.186  -0.545  0.00  0.00    +0.013 A 
ENDBRANCH  21  23
ENDBRANCH   1  21
TORSDOF 8
