REMARK  Name = molecules/WZNJWVWKTVETCG-YFKPBYRVSA-N.pdb
REMARK                            x       y       z     vdW  Elec       q    Type
REMARK                         _______ _______ _______ _____ _____    ______ ____
ROOT
ATOM      1  C   LIG    1        0.908   0.926   0.265  0.00  0.00    +0.151 C 
ENDROOT
BRANCH   1   2
ATOM      2  N   LIG    1       -0.475   0.549   0.215  0.00  0.00    -0.348 N 
ATOM      3  C   LIG    1       -1.028  -0.348   1.030  0.00  0.00    +0.135 A 
ATOM      4  C   LIG    1       -2.348  -0.730   1.007  0.00  0.00    +0.180 A 
ATOM      5  C   LIG    1       -3.170  -0.140   0.068  0.00  0.00    +0.223 A 
ATOM      6  O   LIG    1       -4.380  -0.488   0.044  0.00  0.00    -0.284 OA
ATOM      7  C   LIG    1       -2.611   0.780  -0.770  0.00  0.00    +0.072 A 
ATOM      8  C   LIG    1       -1.277   1.128  -0.705  0.00  0.00    +0.089 A 
BRANCH   4   9
ATOM      9  O   LIG    1       -2.826  -1.684   1.909  0.00  0.00    -0.502 OA
ATOM     10  H   LIG    1       -3.787  -1.930   1.858  0.00  0.00    +0.292 HD
ENDBRANCH   4   9
ENDBRANCH   1   2
BRANCH   1  11
ATOM     11  CA  LIG    1        1.769   0.053  -0.630  0.00  0.00    +0.180 C 
BRANCH  11  12
ATOM     12  N   LIG    1        1.658  -1.326  -0.273  0.00  0.00    -0.317 NA
ATOM     13  H1  LIG    1        1.645  -1.530   0.729  0.00  0.00    +0.119 HD
ATOM     14  H2  LIG    1        1.042  -1.893  -0.858  0.00  0.00    +0.119 HD
ENDBRANCH  11  12
BRANCH  11  15
ATOM     15  C   LIG    1        3.182   0.457  -0.562  0.00  0.00    +0.323 C 
ATOM     16  O   LIG    1        3.544   1.622  -0.830  0.00  0.00    -0.249 OA
BRANCH  15  17
ATOM     17  OXT LIG    1        4.139  -0.460  -0.197  0.00  0.00    -0.479 OA
ATOM     18  HXT LIG    1        4.880  -0.271   0.469  0.00  0.00    +0.295 HD
ENDBRANCH  15  17
ENDBRANCH  11  15
ENDBRANCH   1  11
TORSDOF 6
