REMARK  Name = molecules/WZOZEZRFJCJXNZ-ZBFHGGJFSA-N.pdb
REMARK                            x       y       z     vdW  Elec       q    Type
REMARK                         _______ _______ _______ _____ _____    ______ ____
ROOT
ATOM      1  C   LIG    1        0.407  -2.873   0.925  0.00  0.00    +0.242 C 
ATOM      2  C   LIG    1       -0.853  -2.397   0.345  0.00  0.00    +0.199 C 
ATOM      3  S   LIG    1       -1.744  -1.057   1.194  0.00  0.00    -0.128 S 
ATOM      4  C   LIG    1       -2.739  -0.501  -0.220  0.00  0.00    +0.107 C 
ATOM      5  C   LIG    1       -1.880  -0.147  -1.394  0.00  0.00    +0.006 C 
ATOM      6  C   LIG    1       -0.740  -0.750  -1.605  0.00  0.00    +0.125 C 
ATOM      7  N   LIG    1       -0.197  -1.800  -0.754  0.00  0.00    -0.244 N 
ATOM      8  C   LIG    1        0.881  -2.623  -0.491  0.00  0.00    +0.275 C 
ATOM      9  O   LIG    1        1.902  -3.050  -1.128  0.00  0.00    -0.270 OA
ENDROOT
BRANCH   1  10
ATOM     10  N   LIG    1        1.169  -2.102   1.827  0.00  0.00    -0.278 N 
ATOM     11  H   LIG    1        1.319  -2.422   2.842  0.00  0.00    +0.152 HD
ATOM     12  C   LIG    1        1.791  -0.882   1.499  0.00  0.00    +0.220 C 
ATOM     13  O   LIG    1        1.707  -0.403   0.353  0.00  0.00    -0.275 OA
BRANCH  12  14
ATOM     14  C   LIG    1        2.592  -0.083   2.491  0.00  0.00    +0.138 C 
BRANCH  14  15
ATOM     15  C   LIG    1        3.159   1.142   1.807  0.00  0.00    -0.001 A 
ATOM     16  C   LIG    1        2.560   2.367   1.672  0.00  0.00    +0.011 A 
ATOM     17  C   LIG    1        3.240   3.312   1.018  0.00  0.00    +0.008 A 
ATOM     18  C   LIG    1        4.481   2.985   0.534  0.00  0.00    +0.045 A 
ATOM     19  S   LIG    1        4.654   1.353   1.016  0.00  0.00    -0.101 S 
ENDBRANCH  14  15
ENDBRANCH  12  14
ENDBRANCH   1  10
BRANCH   1  20
ATOM     20  O   LIG    1        0.333  -4.251   1.199  0.00  0.00    -0.349 OA
ATOM     21  C   LIG    1       -0.286  -4.441   2.410  0.00  0.00    +0.197 C 
ENDBRANCH   1  20
BRANCH   6  22
ATOM     22  C   LIG    1        0.088  -0.309  -2.735  0.00  0.00    +0.351 C 
ATOM     23  O   LIG    1        1.196  -0.911  -2.961  0.00  0.00    -0.244 OA
BRANCH  22  24
ATOM     24  O   LIG    1       -0.212   0.700  -3.587  0.00  0.00    -0.476 OA
ATOM     25  H   LIG    1        0.117   1.675  -3.474  0.00  0.00    +0.295 HD
ENDBRANCH  22  24
ENDBRANCH   6  22
BRANCH   5  26
ATOM     26  C   LIG    1       -2.495   0.894  -2.247  0.00  0.00    +0.268 C 
BRANCH  26  27
ATOM     27  O   LIG    1       -2.670   2.095  -1.511  0.00  0.00    -0.446 OA
BRANCH  27  28
ATOM     28  C   LIG    1       -3.228   3.244  -2.057  0.00  0.00    +0.398 C 
ATOM     29  N   LIG    1       -3.406   4.449  -1.322  0.00  0.00    -0.295 N 
ATOM     30  H   LIG    1       -3.837   4.419  -0.379  0.00  0.00    +0.148 HD
ATOM     31  H   LIG    1       -3.107   5.387  -1.718  0.00  0.00    +0.148 HD
ATOM     32  O   LIG    1       -3.577   3.162  -3.265  0.00  0.00    -0.227 OA
ENDBRANCH  27  28
ENDBRANCH  26  27
ENDBRANCH   5  26
TORSDOF 9
