REMARK  Name = molecules/XACKNLSZYYIACO-DJLDLDEBSA-N.pdb
REMARK                            x       y       z     vdW  Elec       q    Type
REMARK                         _______ _______ _______ _____ _____    ______ ____
ROOT
ATOM      1  O   LIG    1        0.095   2.867  -1.087  0.00  0.00    -0.246 OA
ATOM      2  C   LIG    1        0.919   2.010  -0.639  0.00  0.00    +0.331 A 
ATOM      3  N   LIG    1        0.449   0.807  -0.196  0.00  0.00    -0.274 N 
ATOM      4  C   LIG    1        1.352  -0.047   0.260  0.00  0.00    +0.102 A 
ATOM      5  C   LIG    1        2.706   0.223   0.304  0.00  0.00    +0.033 A 
ATOM      6  C   LIG    1        3.137   1.442  -0.150  0.00  0.00    +0.257 A 
ATOM      7  O   LIG    1        4.353   1.772  -0.148  0.00  0.00    -0.267 OA
ATOM      8  N   LIG    1        2.227   2.317  -0.616  0.00  0.00    -0.275 N 
ATOM      9  H   LIG    1        2.536   3.265  -0.973  0.00  0.00    +0.173 HD
ENDROOT
BRANCH   3  10
ATOM     10  C1* LIG    1       -0.956   0.586  -0.267  0.00  0.00    +0.226 C 
ATOM     11  O4* LIG    1       -1.528   0.127   0.934  0.00  0.00    -0.348 OA
ATOM     12  C4* LIG    1       -2.868   0.040   0.516  0.00  0.00    +0.175 C 
ATOM     13  C3* LIG    1       -2.743  -0.860  -0.689  0.00  0.00    +0.150 C 
ATOM     14  C2* LIG    1       -1.381  -0.467  -1.263  0.00  0.00    +0.088 C 
BRANCH  13  15
ATOM     15  O3* LIG    1       -3.773  -0.565  -1.566  0.00  0.00    -0.389 OA
ATOM     16  H3* LIG    1       -4.593  -0.978  -1.181  0.00  0.00    +0.210 HD
ENDBRANCH  13  15
BRANCH  12  17
ATOM     17  C5* LIG    1       -3.746  -0.565   1.582  0.00  0.00    +0.190 C 
BRANCH  17  18
ATOM     18  O5* LIG    1       -5.059  -0.613   1.097  0.00  0.00    -0.392 OA
ATOM     19  H5* LIG    1       -5.443   0.299   0.984  0.00  0.00    +0.210 HD
ENDBRANCH  17  18
ENDBRANCH  12  17
ENDBRANCH   3  10
BRANCH   5  20
ATOM     20  C   LIG    1        3.727  -0.721   0.810  0.00  0.00    +0.039 C 
ATOM     21  C   LIG    1        4.504  -1.379  -0.317  0.00  0.00    +0.009 C 
ENDBRANCH   5  20
TORSDOF 5
