REMARK  Name = molecules/XADCESSVHJOZHK-UHFFFAOYSA-N.pdb
REMARK                            x       y       z     vdW  Elec       q    Type
REMARK                         _______ _______ _______ _____ _____    ______ ____
ROOT
ATOM      1  C   LIG    1        0.231  -0.062  -0.186  0.00  0.00    +0.095 C 
ATOM      2  C   LIG    1        0.941  -0.429   1.068  0.00  0.00    +0.038 C 
ATOM      3  C   LIG    1        2.425  -0.310   1.018  0.00  0.00    +0.085 C 
ATOM      4  N   LIG    1        3.028  -0.838  -0.170  0.00  0.00    -0.305 NA
ATOM      5  C   LIG    1        4.074  -1.802   0.101  0.00  0.00    +0.104 C 
ATOM      6  C   LIG    1        2.088  -1.298  -1.155  0.00  0.00    +0.085 C 
ATOM      7  C   LIG    1        1.111  -0.173  -1.416  0.00  0.00    +0.038 C 
ENDROOT
BRANCH   1   8
ATOM      8  C   LIG    1       -0.332   1.309  -0.209  0.00  0.00    -0.031 A 
ATOM      9  C   LIG    1        0.107   2.273   0.665  0.00  0.00    +0.005 A 
ATOM     10  C   LIG    1       -0.385   3.565   0.687  0.00  0.00    +0.000 A 
ATOM     11  C   LIG    1       -1.368   3.921  -0.207  0.00  0.00    +0.000 A 
ATOM     12  C   LIG    1       -1.828   2.987  -1.091  0.00  0.00    +0.000 A 
ATOM     13  C   LIG    1       -1.317   1.689  -1.096  0.00  0.00    +0.005 A 
ENDBRANCH   1   8
BRANCH   1  14
ATOM     14  C   LIG    1       -0.939  -0.983  -0.292  0.00  0.00    +0.318 C 
ATOM     15  O   LIG    1       -1.101  -1.802  -1.207  0.00  0.00    -0.250 OA
BRANCH  14  16
ATOM     16  O   LIG    1       -1.892  -0.900   0.705  0.00  0.00    -0.464 OA
BRANCH  16  17
ATOM     17  C   LIG    1       -3.055  -1.691   0.761  0.00  0.00    +0.229 C 
ATOM     18  C   LIG    1       -3.950  -1.522  -0.424  0.00  0.00    +0.048 C 
ENDBRANCH  16  17
ENDBRANCH  14  16
ENDBRANCH   1  14
TORSDOF 4
