REMARK  Name = molecules/XAEXSWVTEJHRMH-UHFFFAOYSA-N.pdb
REMARK                            x       y       z     vdW  Elec       q    Type
REMARK                         _______ _______ _______ _____ _____    ______ ____
ROOT
ATOM      1  N   LIG    1       -0.531  -0.526  -0.261  0.00  0.00    -0.309 N 
ENDROOT
BRANCH   1   2
ATOM      2  C   LIG    1       -1.149  -1.709   0.181  0.00  0.00    +0.122 A 
ATOM      3  N   LIG    1       -2.199  -1.598   1.048  0.00  0.00    -0.240 NA
ATOM      4  C   LIG    1       -2.829  -2.699   1.492  0.00  0.00    +0.113 A 
ATOM      5  C   LIG    1       -2.391  -3.941   1.049  0.00  0.00    +0.020 A 
ATOM      6  C   LIG    1       -1.338  -4.091   0.178  0.00  0.00    +0.005 A 
ATOM      7  C   LIG    1       -0.703  -2.934  -0.265  0.00  0.00    +0.043 A 
ENDBRANCH   1   2
BRANCH   1   8
ATOM      8  C   LIG    1        0.604   0.004   0.418  0.00  0.00    +0.122 C 
BRANCH   8   9
ATOM      9  C   LIG    1        1.880  -0.114  -0.391  0.00  0.00    +0.102 C 
BRANCH   9  10
ATOM     10  N   LIG    1        2.948   0.453   0.372  0.00  0.00    -0.307 NA
ATOM     11  C   LIG    1        2.865   1.863   0.520  0.00  0.00    +0.104 C 
ATOM     12  C   LIG    1        4.246  -0.081   0.142  0.00  0.00    +0.104 C 
ENDBRANCH   9  10
ENDBRANCH   8   9
ENDBRANCH   1   8
BRANCH   1  13
ATOM     13  C   LIG    1       -1.023   0.196  -1.428  0.00  0.00    +0.148 C 
BRANCH  13  14
ATOM     14  C   LIG    1       -1.460   1.577  -1.022  0.00  0.00    +0.008 A 
ATOM     15  C   LIG    1       -2.627   1.960  -0.426  0.00  0.00    +0.014 A 
ATOM     16  C   LIG    1       -2.783   3.265  -0.158  0.00  0.00    +0.028 A 
ATOM     17  C   LIG    1       -1.756   4.103  -0.506  0.00  0.00    +0.078 A 
ATOM     18 CL   LIG    1       -1.688   5.860  -0.276  0.00  0.00    -0.076 Cl
ATOM     19  S   LIG    1       -0.612   3.039  -1.193  0.00  0.00    -0.080 S 
ENDBRANCH  13  14
ENDBRANCH   1  13
TORSDOF 6
