REMARK  Name = molecules/XAPRFLSJBSXESP-UHFFFAOYSA-N.pdb
REMARK                            x       y       z     vdW  Elec       q    Type
REMARK                         _______ _______ _______ _____ _____    ______ ____
ROOT
ATOM      1  C   LIG    1       -1.298  -0.080  -1.444  0.00  0.00    +0.111 A 
ATOM      2  C   LIG    1       -2.063  -0.341  -0.329  0.00  0.00    +0.018 A 
ATOM      3  C   LIG    1       -1.502  -0.376   0.951  0.00  0.00    +0.073 A 
ATOM      4  C   LIG    1       -2.328  -0.644   2.030  0.00  0.00    +0.028 A 
ATOM      5  C   LIG    1       -3.657  -0.876   1.899  0.00  0.00    +0.002 A 
ATOM      6  C   LIG    1       -4.208  -0.843   0.640  0.00  0.00    +0.001 A 
ATOM      7  N   LIG    1       -0.198  -0.152   1.116  0.00  0.00    -0.243 NA
ATOM      8  C   LIG    1        0.614   0.110   0.067  0.00  0.00    +0.114 A 
ATOM      9  C   LIG    1       -3.397  -0.575  -0.450  0.00  0.00    +0.011 A 
ATOM     10  C   LIG    1        0.077   0.148  -1.193  0.00  0.00    +0.157 A 
ENDROOT
BRANCH   8  11
ATOM     11  C   LIG    1        2.050   0.354   0.337  0.00  0.00    +0.004 A 
ATOM     12  C   LIG    1        2.408   1.284   1.296  0.00  0.00    +0.010 A 
ATOM     13  C   LIG    1        3.742   1.498   1.572  0.00  0.00    +0.001 A 
ATOM     14  C   LIG    1        4.694   0.784   0.891  0.00  0.00    +0.000 A 
ATOM     15  C   LIG    1        4.386  -0.157  -0.077  0.00  0.00    +0.001 A 
ATOM     16  C   LIG    1        3.028  -0.340  -0.323  0.00  0.00    +0.010 A 
ENDBRANCH   8  11
BRANCH   1  17
ATOM     17  C   LIG    1       -1.772  -0.021  -2.798  0.00  0.00    +0.341 C 
ATOM     18  O   LIG    1       -0.932   0.233  -3.712  0.00  0.00    -0.245 OA
BRANCH  17  19
ATOM     19  O   LIG    1       -3.049  -0.214  -3.207  0.00  0.00    -0.477 OA
ATOM     20  H   LIG    1       -3.318  -0.665  -4.087  0.00  0.00    +0.295 HD
ENDBRANCH  17  19
ENDBRANCH   1  17
BRANCH  10  21
ATOM     21  O   LIG    1        0.887   0.421  -2.284  0.00  0.00    -0.504 OA
ATOM     22  H   LIG    1        1.850   0.624  -2.305  0.00  0.00    +0.292 HD
ENDBRANCH  10  21
TORSDOF 4
