REMARK  Name = molecules/XASIMHXSUQUHLV-UHFFFAOYSA-N.pdb
REMARK                            x       y       z     vdW  Elec       q    Type
REMARK                         _______ _______ _______ _____ _____    ______ ____
ROOT
ATOM      1  O   LIG    1       -1.958   0.806  -1.801  0.00  0.00    -0.422 OA
ENDROOT
BRANCH   1   2
ATOM      2  C   LIG    1       -0.583   0.941  -1.938  0.00  0.00    +0.132 A 
ATOM      3  C   LIG    1        0.023   2.127  -1.559  0.00  0.00    +0.046 A 
ATOM      4  C   LIG    1        1.368   2.306  -1.675  0.00  0.00    +0.008 A 
ATOM      5  C   LIG    1        2.200   1.323  -2.174  0.00  0.00    -0.037 A 
ATOM      6  C   LIG    1        1.588   0.129  -2.557  0.00  0.00    +0.008 A 
ATOM      7  C   LIG    1        0.231  -0.047  -2.438  0.00  0.00    +0.046 A 
BRANCH   5   8
ATOM      8  C   LIG    1        3.649   1.541  -2.290  0.00  0.00    +0.155 C 
BRANCH   8   9
ATOM      9  C   LIG    1        4.367   1.117  -1.040  0.00  0.00    +0.312 C 
ATOM     10  O   LIG    1        3.760   0.645  -0.057  0.00  0.00    -0.250 OA
BRANCH   9  11
ATOM     11  O   LIG    1        5.745   1.245  -0.954  0.00  0.00    -0.455 OA
BRANCH  11  12
ATOM     12  C   LIG    1        6.499   0.872   0.181  0.00  0.00    +0.327 C 
BRANCH  12  13
ATOM     13  C   LIG    1        6.303  -0.577   0.439  0.00  0.00    +0.253 C 
ATOM     14  N   LIG    1        6.950  -1.203   1.525  0.00  0.00    -0.305 N 
ATOM     15  C   LIG    1        7.810  -0.432   2.393  0.00  0.00    +0.131 C 
ATOM     16  C   LIG    1        6.758  -2.602   1.770  0.00  0.00    +0.131 C 
ATOM     17  O   LIG    1        5.559  -1.263  -0.304  0.00  0.00    -0.272 OA
ENDBRANCH  12  13
ENDBRANCH  11  12
ENDBRANCH   9  11
ENDBRANCH   8   9
ENDBRANCH   5   8
ENDBRANCH   1   2
BRANCH   1  18
ATOM     18  C   LIG    1       -2.571   0.318  -0.666  0.00  0.00    +0.344 C 
ATOM     19  O   LIG    1       -1.827  -0.020   0.288  0.00  0.00    -0.245 OA
BRANCH  18  20
ATOM     20  C   LIG    1       -4.014   0.182  -0.535  0.00  0.00    +0.060 A 
ATOM     21  C   LIG    1       -4.567  -0.311   0.617  0.00  0.00    +0.018 A 
ATOM     22  C   LIG    1       -5.930  -0.434   0.728  0.00  0.00    +0.043 A 
ATOM     23  C   LIG    1       -6.810  -0.085  -0.274  0.00  0.00    +0.100 A 
ATOM     24  C   LIG    1       -6.239   0.411  -1.436  0.00  0.00    +0.043 A 
ATOM     25  C   LIG    1       -4.863   0.540  -1.558  0.00  0.00    +0.018 A 
BRANCH  23  26
ATOM     26  N   LIG    1       -8.214  -0.234  -0.106  0.00  0.00    -0.244 N 
ATOM     27  H   LIG    1       -8.870   0.038  -0.885  0.00  0.00    +0.265 HD
BRANCH  26  28
ATOM     28  C   LIG    1       -8.697  -0.749   1.114  0.00  0.00    +0.381 C 
ATOM     29  N   LIG    1       -8.921  -2.131   1.276  0.00  0.00    -0.289 N 
ATOM     30  H   LIG    1       -8.410  -2.607   2.060  0.00  0.00    +0.255 HD
ATOM     31  H   LIG    1       -9.549  -2.712   0.684  0.00  0.00    +0.255 HD
BRANCH  28  32
ATOM     32  N   LIG    1       -8.934   0.048   2.085  0.00  0.00    -0.129 NA
ATOM     33  H   LIG    1       -9.286  -0.222   3.014  0.00  0.00    +0.306 HD
ENDBRANCH  28  32
ENDBRANCH  26  28
ENDBRANCH  23  26
ENDBRANCH  18  20
ENDBRANCH   1  18
TORSDOF 11
