REMARK  Name = molecules/XAUDJQYHKZQPEU-KVQBGUIXSA-N.pdb
REMARK                            x       y       z     vdW  Elec       q    Type
REMARK                         _______ _______ _______ _____ _____    ______ ____
ROOT
ATOM      1  C   LIG    1       -3.809   0.560   0.129  0.00  0.00    +0.218 A 
ATOM      2  N   LIG    1       -3.533  -0.750   0.304  0.00  0.00    -0.205 NA
ATOM      3  C   LIG    1       -2.254  -1.125   0.288  0.00  0.00    +0.209 A 
ATOM      4  N   LIG    1       -1.253  -0.237   0.104  0.00  0.00    -0.256 N 
ATOM      5  C   LIG    1       -1.563   1.062  -0.067  0.00  0.00    +0.354 A 
ATOM      6  O   LIG    1       -0.604   1.876  -0.237  0.00  0.00    -0.244 OA
ATOM      7  N   LIG    1       -2.836   1.468  -0.056  0.00  0.00    -0.159 NA
ENDROOT
BRANCH   4   8
ATOM      8  C1* LIG    1        0.090  -0.698   0.097  0.00  0.00    +0.228 C 
ATOM      9  O4* LIG    1        0.924  -0.076   1.018  0.00  0.00    -0.348 OA
ATOM     10  C4* LIG    1        2.224  -0.320   0.624  0.00  0.00    +0.175 C 
ATOM     11  C3* LIG    1        2.220  -0.827  -0.782  0.00  0.00    +0.150 C 
ATOM     12  C2* LIG    1        0.806  -0.506  -1.228  0.00  0.00    +0.088 C 
BRANCH  11  13
ATOM     13  O3* LIG    1        2.310  -2.222  -0.728  0.00  0.00    -0.389 OA
ATOM     14  H3* LIG    1        2.960  -2.600  -1.341  0.00  0.00    +0.210 HD
ENDBRANCH  11  13
BRANCH  10  15
ATOM     15  C5* LIG    1        2.996   0.977   0.720  0.00  0.00    +0.190 C 
BRANCH  15  16
ATOM     16  O5* LIG    1        2.487   1.980  -0.077  0.00  0.00    -0.392 OA
ATOM     17  H5* LIG    1        3.074   2.248  -0.817  0.00  0.00    +0.210 HD
ENDBRANCH  15  16
ENDBRANCH  10  15
ENDBRANCH   4   8
BRANCH   1  18
ATOM     18  N   LIG    1       -5.173   0.954   0.147  0.00  0.00    -0.327 N 
ATOM     19  H   LIG    1       -5.427   1.785   0.718  0.00  0.00    +0.145 HD
ATOM     20  H   LIG    1       -5.851   0.400  -0.405  0.00  0.00    +0.145 HD
ENDBRANCH   1  18
TORSDOF 5
