REMARK  Name = molecules/XBJBPGROQZJDOJ-UHFFFAOYSA-N.pdb
REMARK                            x       y       z     vdW  Elec       q    Type
REMARK                         _______ _______ _______ _____ _____    ______ ____
ROOT
ATOM      1  N   LIG    1       -2.759   0.450  -0.763  0.00  0.00    -0.341 N 
ATOM      2  C   LIG    1       -1.757   0.381   0.122  0.00  0.00    +0.091 A 
ATOM      3  C   LIG    1       -1.968   0.477   1.481  0.00  0.00    +0.052 A 
ATOM      4  C   LIG    1       -0.925   0.402   2.374  0.00  0.00    +0.054 A 
ATOM      5  C   LIG    1        0.365   0.226   1.898  0.00  0.00    +0.148 A 
ATOM      6  F   LIG    1        1.420   0.147   2.744  0.00  0.00    -0.203 F 
ATOM      7  C   LIG    1        0.596   0.128   0.549  0.00  0.00    +0.103 A 
ATOM      8  C   LIG    1       -3.238   0.648   1.964  0.00  0.00    +0.204 A 
ATOM      9  O   LIG    1       -3.401   0.733   3.220  0.00  0.00    -0.286 OA
ATOM     10  C   LIG    1       -4.288   0.723   1.087  0.00  0.00    +0.122 A 
ATOM     11  C   LIG    1       -0.456   0.204  -0.356  0.00  0.00    +0.171 A 
ATOM     12  F   LIG    1       -0.233   0.104  -1.675  0.00  0.00    -0.201 F 
ATOM     13  C   LIG    1       -4.019   0.622  -0.250  0.00  0.00    +0.105 A 
ENDROOT
BRANCH   7  14
ATOM     14  N   LIG    1        1.904  -0.052   0.035  0.00  0.00    -0.323 N 
ATOM     15  C   LIG    1        2.495  -1.361  -0.189  0.00  0.00    +0.120 C 
ATOM     16  C   LIG    1        3.960  -1.321   0.188  0.00  0.00    +0.103 C 
ATOM     17  N   LIG    1        4.671  -0.359  -0.594  0.00  0.00    -0.302 NA
ATOM     18  C   LIG    1        5.882   0.095   0.022  0.00  0.00    +0.105 C 
ATOM     19  C   LIG    1        3.865   0.671  -1.166  0.00  0.00    +0.103 C 
ATOM     20  C   LIG    1        2.711   1.099  -0.290  0.00  0.00    +0.120 C 
ENDBRANCH   7  14
BRANCH  10  21
ATOM     21  C   LIG    1       -5.636   0.903   1.560  0.00  0.00    +0.342 C 
ATOM     22  O   LIG    1       -6.641   0.979   0.810  0.00  0.00    -0.245 OA
BRANCH  21  23
ATOM     23  O   LIG    1       -5.887   1.004   2.930  0.00  0.00    -0.477 OA
ATOM     24  H   LIG    1       -5.968   0.125   3.436  0.00  0.00    +0.295 HD
ENDBRANCH  21  23
ENDBRANCH  10  21
BRANCH   1  25
ATOM     25  C   LIG    1       -2.607   0.357  -2.204  0.00  0.00    +0.155 C 
BRANCH  25  26
ATOM     26  C   LIG    1       -2.703  -1.051  -2.732  0.00  0.00    +0.235 C 
ATOM     27  F   LIG    1       -3.961  -1.604  -2.427  0.00  0.00    -0.247 F 
ENDBRANCH  25  26
ENDBRANCH   1  25
TORSDOF 5
