REMARK  Name = molecules/XBMIVRRWGCYBTQ-AVRDEDQJSA-N.pdb
REMARK                            x       y       z     vdW  Elec       q    Type
REMARK                         _______ _______ _______ _____ _____    ______ ____
ROOT
ATOM      1  C   LIG    1       -0.343  -0.452  -0.084  0.00  0.00    +0.059 C 
ENDROOT
BRANCH   1   2
ATOM      2  C   LIG    1       -0.901  -0.599   1.307  0.00  0.00    -0.033 A 
ATOM      3  C   LIG    1       -1.387   0.394   2.077  0.00  0.00    +0.004 A 
ATOM      4  C   LIG    1       -1.890   0.178   3.356  0.00  0.00    +0.000 A 
ATOM      5  C   LIG    1       -1.904  -1.099   3.887  0.00  0.00    +0.000 A 
ATOM      6  C   LIG    1       -1.415  -2.138   3.130  0.00  0.00    +0.000 A 
ATOM      7  C   LIG    1       -0.920  -1.891   1.857  0.00  0.00    +0.004 A 
ENDBRANCH   1   2
BRANCH   1   8
ATOM      8  C   LIG    1       -1.136  -1.595  -0.748  0.00  0.00    -0.033 A 
ATOM      9  C   LIG    1       -2.509  -1.488  -0.763  0.00  0.00    +0.004 A 
ATOM     10  C   LIG    1       -3.291  -2.504  -1.325  0.00  0.00    +0.000 A 
ATOM     11  C   LIG    1       -2.689  -3.626  -1.870  0.00  0.00    +0.000 A 
ATOM     12  C   LIG    1       -1.317  -3.724  -1.849  0.00  0.00    +0.000 A 
ATOM     13  C   LIG    1       -0.576  -2.692  -1.282  0.00  0.00    +0.004 A 
ENDBRANCH   1   8
BRANCH   1  14
ATOM     14  C   LIG    1        1.052  -0.911  -0.050  0.00  0.00    +0.038 C 
BRANCH  14  15
ATOM     15  C   LIG    1        2.125  -0.065   0.522  0.00  0.00    +0.054 C 
ATOM     16  C   LIG    1        2.099   0.045   2.024  0.00  0.00    +0.024 C 
BRANCH  15  17
ATOM     17  N   LIG    1        2.321   1.190  -0.126  0.00  0.00    -0.306 NA
ATOM     18  C   LIG    1        2.871   2.146   0.857  0.00  0.00    +0.104 C 
ATOM     19  C   LIG    1        3.456   1.041  -1.082  0.00  0.00    +0.104 C 
ENDBRANCH  15  17
ENDBRANCH  14  15
ENDBRANCH   1  14
BRANCH   1  20
ATOM     20  C   LIG    1       -0.747   0.714  -0.842  0.00  0.00    +0.191 C 
BRANCH  20  21
ATOM     21  C   LIG    1       -0.909   0.544  -2.315  0.00  0.00    +0.042 C 
ATOM     22  C   LIG    1        0.298   0.152  -3.097  0.00  0.00    +0.007 C 
ENDBRANCH  20  21
BRANCH  20  23
ATOM     23  O   LIG    1       -0.169   1.960  -0.645  0.00  0.00    -0.460 OA
BRANCH  23  24
ATOM     24  C   LIG    1       -0.835   3.110  -0.333  0.00  0.00    +0.304 C 
ATOM     25  C   LIG    1       -0.079   4.380  -0.145  0.00  0.00    +0.136 C 
ATOM     26  O   LIG    1       -2.089   3.114  -0.202  0.00  0.00    -0.251 OA
ENDBRANCH  23  24
ENDBRANCH  20  23
ENDBRANCH   1  20
TORSDOF 9
