REMARK  Name = molecules/XBPZXDSZHPDXQU-UHFFFAOYSA-N.pdb
REMARK                            x       y       z     vdW  Elec       q    Type
REMARK                         _______ _______ _______ _____ _____    ______ ____
ROOT
ATOM      1  N   LIG    1       -1.856  -0.527   0.247  0.00  0.00    -0.346 N 
ATOM      2  C   LIG    1       -3.041   0.087   0.046  0.00  0.00    +0.105 A 
ATOM      3  C   LIG    1       -3.199   1.349  -0.449  0.00  0.00    +0.122 A 
ATOM      4  C   LIG    1       -2.057   2.054  -0.769  0.00  0.00    +0.203 A 
ATOM      5  C   LIG    1       -0.826   1.464  -0.580  0.00  0.00    +0.046 A 
ATOM      6  C   LIG    1        0.299   2.186  -0.908  0.00  0.00    +0.014 A 
ATOM      7  C   LIG    1        1.545   1.603  -0.723  0.00  0.00    +0.009 A 
ATOM      8  C   LIG    1        1.649   0.319  -0.218  0.00  0.00    -0.016 A 
ATOM      9  C   LIG    1        0.482  -0.378   0.102  0.00  0.00    +0.035 A 
ATOM     10  O   LIG    1       -2.164   3.225  -1.230  0.00  0.00    -0.286 OA
ATOM     11  C   LIG    1       -0.762   0.177  -0.072  0.00  0.00    +0.053 A 
ENDROOT
BRANCH   8  12
ATOM     12  C   LIG    1        2.974  -0.223  -0.057  0.00  0.00    -0.015 A 
ATOM     13  C   LIG    1        4.053   0.609   0.242  0.00  0.00    +0.028 A 
ATOM     14  C   LIG    1        5.327   0.123   0.399  0.00  0.00    +0.111 A 
ATOM     15  N   LIG    1        5.575  -1.191   0.267  0.00  0.00    -0.263 NA
ATOM     16  C   LIG    1        4.571  -2.018  -0.018  0.00  0.00    +0.111 A 
ATOM     17  C   LIG    1        3.278  -1.572  -0.184  0.00  0.00    +0.028 A 
ENDBRANCH   8  12
BRANCH   1  18
ATOM     18  C   LIG    1       -1.821  -1.861   0.777  0.00  0.00    +0.118 C 
ATOM     19  C   LIG    1       -1.853  -2.907  -0.344  0.00  0.00    +0.027 C 
ENDBRANCH   1  18
BRANCH   3  20
ATOM     20  C   LIG    1       -4.522   1.918  -0.627  0.00  0.00    +0.342 C 
ATOM     21  O   LIG    1       -5.536   1.263  -0.334  0.00  0.00    -0.245 OA
BRANCH  20  22
ATOM     22  O   LIG    1       -4.625   3.198  -1.129  0.00  0.00    -0.477 OA
ATOM     23  H   LIG    1       -4.447   4.000  -0.571  0.00  0.00    +0.295 HD
ENDBRANCH  20  22
ENDBRANCH   3  20
TORSDOF 4
