REMARK  Name = molecules/XCDXSSFOJZZGQC-UHFFFAOYSA-N.pdb
REMARK                            x       y       z     vdW  Elec       q    Type
REMARK                         _______ _______ _______ _____ _____    ______ ____
ROOT
ATOM      1  C   LIG    1       -0.250  -0.288  -0.256  0.00  0.00    +0.030 A 
ATOM      2  C   LIG    1        0.658   0.613   0.286  0.00  0.00    +0.031 A 
ATOM      3  C   LIG    1        2.023   0.582   0.042  0.00  0.00    -0.016 A 
ATOM      4  C   LIG    1        2.869   1.518   0.623  0.00  0.00    +0.008 A 
ATOM      5  C   LIG    1        4.212   1.454   0.358  0.00  0.00    +0.001 A 
ATOM      6  C   LIG    1        4.706   0.486  -0.463  0.00  0.00    +0.001 A 
ATOM      7  C   LIG    1        3.866  -0.433  -1.032  0.00  0.00    +0.008 A 
ATOM      8  C   LIG    1        2.501  -0.401  -0.788  0.00  0.00    -0.018 A 
ATOM      9  C   LIG    1        1.617  -1.303  -1.336  0.00  0.00    +0.010 A 
ATOM     10  C   LIG    1        0.252  -1.273  -1.092  0.00  0.00    +0.024 A 
ENDROOT
BRANCH   1  11
ATOM     11  N   LIG    1       -1.640  -0.223  -0.026  0.00  0.00    -0.328 N 
BRANCH  11  12
ATOM     12  C   LIG    1       -2.234   1.025   0.451  0.00  0.00    +0.121 C 
BRANCH  12  13
ATOM     13  C   LIG    1       -3.179   1.595  -0.598  0.00  0.00    +0.127 C 
ATOM     14 CL   LIG    1       -3.855   3.103   0.058  0.00  0.00    -0.124 Cl
ENDBRANCH  12  13
ENDBRANCH  11  12
BRANCH  11  15
ATOM     15  C   LIG    1       -2.503  -1.380  -0.207  0.00  0.00    +0.121 C 
BRANCH  15  16
ATOM     16  C   LIG    1       -3.012  -1.873   1.150  0.00  0.00    +0.127 C 
ATOM     17 CL   LIG    1       -1.688  -2.350   2.207  0.00  0.00    -0.124 Cl
ENDBRANCH  15  16
ENDBRANCH  11  15
ENDBRANCH   1  11
TORSDOF 5
