REMARK  Name = molecules/XCEPXSCPQIRLCL-UHFFFAOYSA-N.pdb
REMARK                            x       y       z     vdW  Elec       q    Type
REMARK                         _______ _______ _______ _____ _____    ______ ____
ROOT
ATOM      1  C   LIG    1       -2.184   0.572  -0.895  0.00  0.00    +0.192 C 
ENDROOT
BRANCH   1   2
ATOM      2  C   LIG    1       -2.644  -0.731  -0.366  0.00  0.00    -0.003 A 
ATOM      3  C   LIG    1       -3.580  -0.831   0.642  0.00  0.00    +0.007 A 
ATOM      4  C   LIG    1       -4.032  -2.027   1.148  0.00  0.00    +0.000 A 
ATOM      5  C   LIG    1       -3.550  -3.211   0.650  0.00  0.00    +0.000 A 
ATOM      6  C   LIG    1       -2.614  -3.147  -0.356  0.00  0.00    +0.000 A 
ATOM      7  C   LIG    1       -2.174  -1.938  -0.851  0.00  0.00    +0.007 A 
ENDBRANCH   1   2
BRANCH   1   8
ATOM      8  C   LIG    1       -2.967   1.727  -0.410  0.00  0.00    -0.003 A 
ATOM      9  C   LIG    1       -2.479   2.798   0.270  0.00  0.00    +0.007 A 
ATOM     10  C   LIG    1       -3.264   3.845   0.680  0.00  0.00    +0.000 A 
ATOM     11  C   LIG    1       -4.623   3.829   0.397  0.00  0.00    +0.000 A 
ATOM     12  C   LIG    1       -5.147   2.762  -0.288  0.00  0.00    +0.000 A 
ATOM     13  C   LIG    1       -4.326   1.720  -0.688  0.00  0.00    +0.007 A 
ENDBRANCH   1   8
BRANCH   1  14
ATOM     14  C   LIG    1       -0.739   0.681  -0.745  0.00  0.00    +0.256 C 
ATOM     15  N   LIG    1        0.046   0.491   0.382  0.00  0.00    -0.303 N 
ATOM     16  C   LIG    1       -0.531   0.071   1.624  0.00  0.00    +0.132 C 
ATOM     17  O   LIG    1       -0.093   1.000  -1.820  0.00  0.00    -0.272 OA
BRANCH  15  18
ATOM     18  C   LIG    1        1.478   0.681   0.344  0.00  0.00    +0.089 C 
BRANCH  18  19
ATOM     19  C   LIG    1        2.081  -0.630  -0.021  0.00  0.00    -0.056 C 
BRANCH  19  20
ATOM     20  N   LIG    1        3.499  -0.690  -0.120  0.00  0.00    +0.379 N 
ATOM     21  C   LIG    1        4.128   0.287  -0.942  0.00  0.00    -0.092 C 
BRANCH  20  22
ATOM     22  C   LIG    1        4.120  -0.594   1.213  0.00  0.00    -0.079 C 
ATOM     23  C   LIG    1        4.338   0.811   1.657  0.00  0.00    -0.016 C 
ENDBRANCH  20  22
BRANCH  20  24
ATOM     24  C   LIG    1        3.810  -2.061  -0.563  0.00  0.00    -0.079 C 
ATOM     25  C   LIG    1        3.776  -2.195  -2.048  0.00  0.00    -0.016 C 
ENDBRANCH  20  24
ENDBRANCH  19  20
ENDBRANCH  18  19
ENDBRANCH  15  18
ENDBRANCH   1  14
BRANCH   1  26
ATOM     26  O   LIG    1       -2.446   0.571  -2.299  0.00  0.00    -0.371 OA
ATOM     27  H   LIG    1       -1.917   1.289  -2.733  0.00  0.00    +0.212 HD
ENDBRANCH   1  26
TORSDOF 9
