REMARK  Name = molecules/XCGSFFUVFURLIX-VFGNJEKYSA-N.pdb
REMARK                            x       y       z     vdW  Elec       q    Type
REMARK                         _______ _______ _______ _____ _____    ______ ____
ROOT
ATOM      1  C   LIG    1       -2.329  -1.274  -0.004  0.00  0.00    +0.269 C 
ATOM      2  N   LIG    1       -2.796  -0.036   0.497  0.00  0.00    -0.233 N 
ATOM      3  C   LIG    1       -1.653   0.717   0.875  0.00  0.00    +0.271 C 
ATOM      4  C   LIG    1       -0.583  -0.317   1.070  0.00  0.00    +0.215 C 
ATOM      5  C   LIG    1       -0.620  -0.608   2.582  0.00  0.00    +0.074 C 
ATOM      6  O   LIG    1       -1.483   1.935   1.032  0.00  0.00    -0.270 OA
ATOM      7  C   LIG    1       -4.200   0.348   0.584  0.00  0.00    +0.171 C 
ATOM      8  C   LIG    1       -5.085  -0.831   0.650  0.00  0.00    +0.237 C 
ATOM      9  O   LIG    1       -6.310  -0.659   0.863  0.00  0.00    -0.274 OA
ATOM     10  N   LIG    1       -4.574  -2.147   0.479  0.00  0.00    -0.290 N 
ATOM     11  C   LIG    1       -5.292  -3.400   0.418  0.00  0.00    +0.108 C 
ATOM     12  C   LIG    1       -4.388  -4.349  -0.318  0.00  0.00    +0.021 C 
ATOM     13  C   LIG    1       -3.175  -3.510  -0.739  0.00  0.00    +0.031 C 
ATOM     14  O   LIG    1       -1.037  -1.438   0.448  0.00  0.00    -0.299 OA
ATOM     15  C   LIG    1       -3.191  -2.454   0.340  0.00  0.00    +0.156 C 
ENDROOT
BRANCH   4  16
ATOM     16  N   LIG    1        0.716   0.147   0.695  0.00  0.00    -0.280 N 
ATOM     17  H   LIG    1        1.480   0.145   1.432  0.00  0.00    +0.152 HD
ATOM     18  C   LIG    1        1.083   0.611  -0.574  0.00  0.00    +0.223 C 
ATOM     19  O   LIG    1        0.183   0.628  -1.482  0.00  0.00    -0.275 OA
BRANCH  18  20
ATOM     20  C   LIG    1        2.441   1.078  -0.913  0.00  0.00    +0.112 C 
ATOM     21  C   LIG    1        2.871   2.288  -0.096  0.00  0.00    +0.101 C 
ATOM     22  N   LIG    1        4.211   2.637  -0.524  0.00  0.00    -0.297 NA
ATOM     23  C   LIG    1        4.509   3.916   0.136  0.00  0.00    +0.105 C 
ATOM     24  C   LIG    1        5.117   1.635   0.000  0.00  0.00    +0.091 C 
ATOM     25  C   LIG    1        6.542   1.908  -0.340  0.00  0.00    +0.061 C 
ATOM     26  C   LIG    1        7.455   0.775  -0.237  0.00  0.00    -0.020 A 
ATOM     27  C   LIG    1        8.842   0.663  -0.156  0.00  0.00    +0.087 A 
ATOM     28  N   LIG    1        9.158  -0.669  -0.077  0.00  0.00    -0.360 N 
ATOM     29  H   LIG    1       10.111  -1.087  -0.006  0.00  0.00    +0.165 HD
ATOM     30  C   LIG    1        8.027  -1.402  -0.104  0.00  0.00    +0.047 A 
ATOM     31  C   LIG    1        7.647  -2.724  -0.062  0.00  0.00    +0.026 A 
ATOM     32  C   LIG    1        6.311  -3.104  -0.116  0.00  0.00    +0.003 A 
ATOM     33  C   LIG    1        5.294  -2.158  -0.215  0.00  0.00    +0.009 A 
ATOM     34  C   LIG    1        5.669  -0.819  -0.259  0.00  0.00    -0.011 A 
ATOM     35  C   LIG    1        6.994  -0.497  -0.203  0.00  0.00    +0.010 A 
ATOM     36  C   LIG    1        4.679   0.269  -0.369  0.00  0.00    -0.025 C 
ATOM     37  C   LIG    1        3.468  -0.011  -0.791  0.00  0.00    -0.007 C 
ENDBRANCH  18  20
ENDBRANCH   4  16
BRANCH   1  38
ATOM     38  O   LIG    1       -2.232  -1.273  -1.416  0.00  0.00    -0.348 OA
ATOM     39  H   LIG    1       -3.057  -1.045  -1.865  0.00  0.00    +0.214 HD
ENDBRANCH   1  38
BRANCH   7  40
ATOM     40  C   LIG    1       -4.603   1.271  -0.516  0.00  0.00    +0.067 C 
BRANCH  40  41
ATOM     41  C   LIG    1       -6.021   1.697  -0.483  0.00  0.00    -0.045 A 
ATOM     42  C   LIG    1       -6.423   2.798   0.235  0.00  0.00    +0.004 A 
ATOM     43  C   LIG    1       -7.758   3.157   0.218  0.00  0.00    +0.000 A 
ATOM     44  C   LIG    1       -8.697   2.428  -0.509  0.00  0.00    +0.000 A 
ATOM     45  C   LIG    1       -8.299   1.323  -1.230  0.00  0.00    +0.000 A 
ATOM     46  C   LIG    1       -6.962   0.980  -1.202  0.00  0.00    +0.004 A 
ENDBRANCH  40  41
ENDBRANCH   7  40
TORSDOF 5
