REMARK  Name = molecules/XCGYUJZMCCFSRP-LBPRGKRZSA-N.pdb
REMARK                            x       y       z     vdW  Elec       q    Type
REMARK                         _______ _______ _______ _____ _____    ______ ____
ROOT
ATOM      1  C   LIG    1        3.292   1.391  -0.773  0.00  0.00    +0.133 A 
ATOM      2  C   LIG    1        3.860   0.244  -0.253  0.00  0.00    +0.008 A 
ATOM      3  C   LIG    1        3.074  -0.847   0.148  0.00  0.00    +0.013 A 
ATOM      4  C   LIG    1        1.708  -0.824   0.044  0.00  0.00    -0.026 A 
ATOM      5  C   LIG    1        0.919  -1.993   0.471  0.00  0.00    +0.039 C 
ATOM      6  C   LIG    1       -0.544  -1.919   0.253  0.00  0.00    +0.028 C 
ATOM      7  C   LIG    1       -1.019  -0.920  -0.751  0.00  0.00    +0.084 C 
ATOM      8  N   LIG    1       -0.278   0.343  -0.571  0.00  0.00    -0.339 N 
ATOM      9  H   LIG    1       -0.748   1.270  -0.517  0.00  0.00    +0.146 HD
ATOM     10  C   LIG    1        1.130   0.307  -0.469  0.00  0.00    +0.033 A 
ATOM     11  C   LIG    1        1.893   1.381  -0.866  0.00  0.00    +0.056 A 
ENDROOT
BRANCH   1  12
ATOM     12  N   LIG    1        4.025   2.523  -1.201  0.00  0.00    +0.057 N 
ATOM     13  O   LIG    1        3.459   3.658  -1.190  0.00  0.00    -0.126 OA
ATOM     14  O   LIG    1        5.308   2.484  -1.639  0.00  0.00    -0.126 OA
ENDBRANCH   1  12
BRANCH   7  15
ATOM     15  C   LIG    1       -2.490  -0.595  -0.517  0.00  0.00    +0.103 C 
BRANCH  15  16
ATOM     16  N   LIG    1       -2.716  -0.110   0.798  0.00  0.00    -0.312 NA
ATOM     17  H   LIG    1       -1.925   0.103   1.391  0.00  0.00    +0.122 HD
BRANCH  16  18
ATOM     18  C   LIG    1       -3.988   0.429   1.090  0.00  0.00    +0.048 C 
ATOM     19  C   LIG    1       -5.097  -0.561   0.773  0.00  0.00    +0.023 C 
ATOM     20  C   LIG    1       -4.289   1.700   0.298  0.00  0.00    +0.023 C 
ENDBRANCH  16  18
ENDBRANCH  15  16
ENDBRANCH   7  15
BRANCH   2  21
ATOM     21  C   LIG    1        5.342   0.207  -0.133  0.00  0.00    +0.193 C 
BRANCH  21  22
ATOM     22  O   LIG    1        5.775  -1.000   0.414  0.00  0.00    -0.390 OA
ATOM     23  H   LIG    1        6.358  -0.841   1.204  0.00  0.00    +0.210 HD
ENDBRANCH  21  22
ENDBRANCH   2  21
TORSDOF 6
