REMARK  Name = molecules/XCPGHVQEEXUHNC-UHFFFAOYSA-N.pdb
REMARK                            x       y       z     vdW  Elec       q    Type
REMARK                         _______ _______ _______ _____ _____    ______ ____
ROOT
ATOM      1  N   LIG    1       -1.128  -0.872   0.545  0.00  0.00    -0.311 N 
ATOM      2  H   LIG    1       -1.451  -1.572   1.246  0.00  0.00    +0.152 HD
ENDROOT
BRANCH   1   3
ATOM      3  C   LIG    1       -2.114  -0.025  -0.031  0.00  0.00    +0.050 A 
ATOM      4  C   LIG    1       -2.405   1.178   0.580  0.00  0.00    +0.022 A 
ATOM      5  C   LIG    1       -1.785   1.608   1.731  0.00  0.00    +0.012 A 
ATOM      6  C   LIG    1       -2.091   2.814   2.324  0.00  0.00    +0.001 A 
ATOM      7  C   LIG    1       -3.058   3.619   1.738  0.00  0.00    +0.002 A 
ATOM      8  C   LIG    1       -3.690   3.183   0.568  0.00  0.00    +0.028 A 
ATOM      9  C   LIG    1       -3.369   1.969  -0.014  0.00  0.00    +0.073 A 
ATOM     10  N   LIG    1       -3.986   1.564  -1.140  0.00  0.00    -0.247 NA
ATOM     11  C   LIG    1       -3.697   0.390  -1.729  0.00  0.00    +0.073 A 
ATOM     12  C   LIG    1       -4.322  -0.031  -2.879  0.00  0.00    +0.028 A 
ATOM     13  C   LIG    1       -4.024  -1.230  -3.478  0.00  0.00    +0.002 A 
ATOM     14  C   LIG    1       -3.063  -2.073  -2.931  0.00  0.00    +0.001 A 
ATOM     15  C   LIG    1       -2.427  -1.667  -1.780  0.00  0.00    +0.012 A 
ATOM     16  C   LIG    1       -2.732  -0.466  -1.187  0.00  0.00    +0.022 A 
ENDBRANCH   1   3
BRANCH   1  17
ATOM     17  C   LIG    1        0.245  -0.798   0.206  0.00  0.00    +0.074 A 
ATOM     18  C   LIG    1        1.152  -1.649   0.800  0.00  0.00    +0.143 A 
ATOM     19  C   LIG    1        2.490  -1.609   0.499  0.00  0.00    +0.072 A 
ATOM     20  C   LIG    1        2.992  -0.710  -0.418  0.00  0.00    +0.051 A 
ATOM     21  C   LIG    1        2.092   0.146  -1.019  0.00  0.00    +0.026 A 
ATOM     22  C   LIG    1        0.748   0.100  -0.711  0.00  0.00    +0.029 A 
BRANCH  18  23
ATOM     23  O   LIG    1        0.738  -2.592   1.740  0.00  0.00    -0.493 OA
ATOM     24  C   LIG    1        1.613  -3.478   2.373  0.00  0.00    +0.277 C 
ENDBRANCH  18  23
BRANCH  20  25
ATOM     25  N   LIG    1        4.386  -0.687  -0.716  0.00  0.00    -0.221 N 
ATOM     26  H   LIG    1        4.862  -1.591  -0.870  0.00  0.00    +0.173 HD
BRANCH  25  27
ATOM     27  S   LIG    1        5.254   0.791  -0.816  0.00  0.00    +0.040 S 
ATOM     28  C   LIG    1        5.211   1.654   0.756  0.00  0.00    +0.218 C 
ATOM     29  O   LIG    1        6.685   0.514  -1.136  0.00  0.00    -0.155 OA
ATOM     30  O   LIG    1        4.704   1.656  -1.918  0.00  0.00    -0.155 OA
ENDBRANCH  25  27
ENDBRANCH  20  25
ENDBRANCH   1  17
TORSDOF 5
