REMARK  Name = molecules/XCTYLCDETUVOIP-UHFFFAOYSA-N.pdb
REMARK                            x       y       z     vdW  Elec       q    Type
REMARK                         _______ _______ _______ _____ _____    ______ ____
ROOT
ATOM      1  C   LIG    1        3.889  -1.320  -0.930  0.00  0.00    +0.010 A 
ATOM      2  C   LIG    1        5.000  -0.837  -0.277  0.00  0.00    +0.016 A 
ATOM      3  C   LIG    1        4.979   0.394   0.349  0.00  0.00    +0.018 A 
ATOM      4  C   LIG    1        3.815   1.114   0.295  0.00  0.00    +0.034 A 
ATOM      5  S   LIG    1        3.831   2.695   1.130  0.00  0.00    -0.086 S 
ATOM      6  C   LIG    1        2.224   3.388   0.911  0.00  0.00    +0.034 C 
ATOM      7  C   LIG    1        1.997   4.609   1.461  0.00  0.00    +0.013 C 
ATOM      8  C   LIG    1        0.796   5.276   1.363  0.00  0.00    -0.017 C 
ATOM      9  C   LIG    1       -0.196   4.634   0.664  0.00  0.00    +0.047 C 
ATOM     10  C   LIG    1        0.043   3.373   0.098  0.00  0.00    +0.006 C 
ATOM     11  C   LIG    1        1.259   2.727   0.213  0.00  0.00    +0.044 C 
ATOM     12  N   LIG    1        1.447   1.448  -0.389  0.00  0.00    -0.298 N 
ATOM     13  C   LIG    1        2.662   0.712  -0.333  0.00  0.00    +0.049 A 
ATOM     14  C   LIG    1        2.732  -0.541  -0.952  0.00  0.00    +0.039 A 
ENDROOT
BRANCH   1  15
ATOM     15  S   LIG    1        3.935  -2.911  -1.729  0.00  0.00    -0.125 S 
BRANCH  15  17
ATOM     16  C   LIG    1        5.807  -3.998  -0.045  0.00  0.00    +0.015 C 
ATOM     17  C   LIG    1        5.562  -3.662  -1.499  0.00  0.00    +0.071 C 
ENDBRANCH  15  17
ENDBRANCH   1  15
BRANCH  12  18
ATOM     18  C   LIG    1        0.309   0.872  -1.068  0.00  0.00    +0.112 C 
BRANCH  18  19
ATOM     19  C   LIG    1       -0.731   0.306  -0.132  0.00  0.00    +0.035 C 
BRANCH  19  20
ATOM     20  C   LIG    1       -1.900  -0.263  -0.902  0.00  0.00    +0.086 C 
BRANCH  20  21
ATOM     21  N   LIG    1       -2.924  -0.820  -0.075  0.00  0.00    -0.300 NA
ATOM     22  C   LIG    1       -3.519   0.168   0.797  0.00  0.00    +0.100 C 
ATOM     23  C   LIG    1       -4.592  -0.564   1.604  0.00  0.00    +0.099 C 
ATOM     24  N   LIG    1       -5.706  -0.788   0.735  0.00  0.00    -0.303 NA
ATOM     25  C   LIG    1       -6.386  -2.016   1.101  0.00  0.00    +0.105 C 
ATOM     26  C   LIG    1       -5.328  -0.759  -0.647  0.00  0.00    +0.099 C 
ATOM     27  C   LIG    1       -3.980  -1.363  -0.907  0.00  0.00    +0.100 C 
ENDBRANCH  20  21
ENDBRANCH  19  20
ENDBRANCH  18  19
ENDBRANCH  12  18
TORSDOF 6
