REMARK  Name = molecules/XDKCGKQHVBOOHC-KRWDZBQOSA-N.pdb
REMARK                            x       y       z     vdW  Elec       q    Type
REMARK                         _______ _______ _______ _____ _____    ______ ____
ROOT
ATOM      1  C   LIG    1        0.136  -0.275  -0.607  0.00  0.00    +0.180 C 
ATOM      2  C   LIG    1       -1.038   0.608  -0.334  0.00  0.00    +0.026 A 
ATOM      3  C   LIG    1       -1.811   0.591   0.815  0.00  0.00    +0.041 A 
ATOM      4  N   LIG    1       -1.660  -0.331   1.925  0.00  0.00    -0.284 N 
ATOM      5  H   LIG    1       -2.082  -0.038   2.811  0.00  0.00    +0.155 HD
ATOM      6  C   LIG    1       -0.973  -1.586   1.809  0.00  0.00    +0.231 C 
ATOM      7  O   LIG    1       -0.650  -2.093   2.925  0.00  0.00    -0.274 OA
ATOM      8  C   LIG    1       -0.609  -2.335   0.593  0.00  0.00    +0.184 C 
ATOM      9  C   LIG    1       -2.855   1.459   0.975  0.00  0.00    +0.025 A 
ATOM     10  C   LIG    1       -3.161   2.381  -0.027  0.00  0.00    +0.017 A 
ATOM     11  C   LIG    1       -2.403   2.407  -1.173  0.00  0.00    +0.018 A 
ATOM     12 BR   LIG    1       -2.740   3.629  -2.603  0.00  0.00    -0.050 Br
ATOM     13  C   LIG    1       -1.344   1.509  -1.307  0.00  0.00    +0.025 A 
ATOM     14  N   LIG    1       -0.272  -1.586  -0.486  0.00  0.00    -0.256 NA
ATOM     15  C   LIG    1       -0.320  -2.220  -1.784  0.00  0.00    +0.116 C 
ATOM     16  C   LIG    1        0.722  -1.350  -2.505  0.00  0.00    +0.178 C 
ATOM     17  O   LIG    1        0.419  -0.120  -1.990  0.00  0.00    -0.349 OA
ENDROOT
BRANCH   1  24
ATOM     18  F   LIG    1        1.252   2.326  -0.864  0.00  0.00    -0.205 F 
ATOM     19  C   LIG    1        1.836   1.420  -0.038  0.00  0.00    +0.131 A 
ATOM     20  C   LIG    1        2.970   1.889   0.599  0.00  0.00    +0.039 A 
ATOM     21  C   LIG    1        3.636   1.059   1.455  0.00  0.00    +0.003 A 
ATOM     22  C   LIG    1        3.157  -0.215   1.654  0.00  0.00    +0.001 A 
ATOM     23  C   LIG    1        2.010  -0.666   0.998  0.00  0.00    +0.011 A 
ATOM     24  C   LIG    1        1.324   0.157   0.131  0.00  0.00    +0.039 A 
ENDBRANCH   1  24
TORSDOF 1
