REMARK  Name = molecules/XDRYMKDFEDOLFX-UHFFFAOYSA-N.pdb
REMARK                            x       y       z     vdW  Elec       q    Type
REMARK                         _______ _______ _______ _____ _____    ______ ____
ROOT
ATOM      1  C   LIG    1       -0.072  -2.407  -0.540  0.00  0.00    +0.007 C 
ENDROOT
BRANCH   1   2
ATOM      2  C   LIG    1       -0.276  -1.027  -0.002  0.00  0.00    +0.041 C 
BRANCH   2   3
ATOM      3  C   LIG    1        1.057  -0.472   0.526  0.00  0.00    +0.229 C 
BRANCH   3   4
ATOM      4  O   LIG    1        1.987  -0.434  -0.529  0.00  0.00    -0.492 OA
BRANCH   4   8
ATOM      5  C   LIG    1        5.820   0.989   0.284  0.00  0.00    +0.065 A 
ATOM      6  C   LIG    1        4.882   0.941   1.310  0.00  0.00    +0.019 A 
ATOM      7  C   LIG    1        3.627   0.469   1.020  0.00  0.00    +0.046 A 
ATOM      8  C   LIG    1        3.269   0.044  -0.250  0.00  0.00    +0.121 A 
ATOM      9  C   LIG    1        4.226   0.106  -1.243  0.00  0.00    +0.046 A 
ATOM     10  C   LIG    1        5.484   0.567  -0.998  0.00  0.00    +0.019 A 
BRANCH   5  14
ATOM     11  N   LIG    1        7.439   1.905   1.915  0.00  0.00    -0.286 N 
ATOM     12  H   LIG    1        7.266   1.341   2.776  0.00  0.00    +0.301 HD
ATOM     13  H   LIG    1        7.872   2.853   2.076  0.00  0.00    +0.301 HD
ATOM     14  C   LIG    1        7.142   1.490   0.611  0.00  0.00    +0.306 C 
BRANCH  14  15
ATOM     15  N   LIG    1        8.053   1.564  -0.278  0.00  0.00    -0.069 NA
ATOM     16  H   LIG    1        8.017   1.311  -1.262  0.00  0.00    +0.348 HD
ENDBRANCH  14  15
ENDBRANCH   5  14
ENDBRANCH   4   8
ENDBRANCH   3   4
ENDBRANCH   2   3
ENDBRANCH   1   2
BRANCH   1  17
ATOM     17  C   LIG    1       -1.347  -3.023  -1.014  0.00  0.00    +0.041 C 
BRANCH  17  18
ATOM     18  C   LIG    1       -1.989  -2.238  -2.094  0.00  0.00    +0.229 C 
BRANCH  18  19
ATOM     19  O   LIG    1       -2.425  -0.969  -1.850  0.00  0.00    -0.492 OA
BRANCH  19  20
ATOM     20  C   LIG    1       -3.368  -0.450  -1.017  0.00  0.00    +0.121 A 
ATOM     21  C   LIG    1       -4.188  -1.143  -0.157  0.00  0.00    +0.046 A 
ATOM     22  C   LIG    1       -5.127  -0.501   0.660  0.00  0.00    +0.019 A 
ATOM     23  C   LIG    1       -5.274   0.867   0.640  0.00  0.00    +0.065 A 
ATOM     24  C   LIG    1       -4.456   1.566  -0.220  0.00  0.00    +0.019 A 
ATOM     25  C   LIG    1       -3.532   0.946  -1.025  0.00  0.00    +0.046 A 
BRANCH  23  26
ATOM     26  C   LIG    1       -6.249   1.546   1.487  0.00  0.00    +0.306 C 
ATOM     27  N   LIG    1       -6.342   2.962   1.409  0.00  0.00    -0.286 N 
ATOM     28  H   LIG    1       -6.383   3.544   2.267  0.00  0.00    +0.301 HD
ATOM     29  H   LIG    1       -6.371   3.426   0.455  0.00  0.00    +0.301 HD
BRANCH  26  30
ATOM     30  N   LIG    1       -7.034   0.941   2.304  0.00  0.00    -0.069 NA
ATOM     31  H   LIG    1       -7.080  -0.083   2.468  0.00  0.00    +0.348 HD
ENDBRANCH  26  30
ENDBRANCH  23  26
ENDBRANCH  19  20
ENDBRANCH  18  19
ENDBRANCH  17  18
ENDBRANCH   1  17
TORSDOF 12
