REMARK  Name = molecules/XDUOTWNXVDBCDY-VOTSOKGWSA-N.pdb
REMARK                            x       y       z     vdW  Elec       q    Type
REMARK                         _______ _______ _______ _____ _____    ______ ____
ROOT
ATOM      1  C   LIG    1        1.671  -0.363   0.559  0.00  0.00    +0.013 C 
ATOM      2  C   LIG    1        1.315  -0.809   1.731  0.00  0.00    +0.068 C 
ENDROOT
BRANCH   2   3
ATOM      3  C   LIG    1        0.009  -1.163   2.217  0.00  0.00    +0.240 C 
ATOM      4  O   LIG    1        0.032  -1.572   3.467  0.00  0.00    -0.271 OA
ATOM      5  N   LIG    1       -1.242  -1.150   1.613  0.00  0.00    -0.296 N 
ATOM      6  C   LIG    1       -2.430  -1.570   2.394  0.00  0.00    +0.123 C 
ATOM      7  C   LIG    1       -3.420  -0.425   2.302  0.00  0.00    +0.104 C 
ATOM      8  N   LIG    1       -3.855  -0.285   0.923  0.00  0.00    -0.290 NA
ATOM      9  C   LIG    1       -3.010  -0.992   0.007  0.00  0.00    +0.104 C 
ATOM     10  C   LIG    1       -1.516  -0.756   0.268  0.00  0.00    +0.123 C 
BRANCH   8  11
ATOM     11  C   LIG    1       -5.204  -0.777   0.794  0.00  0.00    +0.205 C 
BRANCH  11  12
ATOM     12  C   LIG    1       -5.835  -0.403  -0.473  0.00  0.00    +0.321 C 
ATOM     13  O   LIG    1       -5.213   0.362  -1.265  0.00  0.00    -0.249 OA
BRANCH  12  14
ATOM     14  O   LIG    1       -7.085  -0.832  -0.879  0.00  0.00    -0.464 OA
BRANCH  14  15
ATOM     15  C   LIG    1       -7.678  -0.452  -2.118  0.00  0.00    +0.229 C 
ATOM     16  C   LIG    1       -7.829   1.057  -2.153  0.00  0.00    +0.048 C 
ENDBRANCH  14  15
ENDBRANCH  12  14
ENDBRANCH  11  12
ENDBRANCH   8  11
ENDBRANCH   2   3
BRANCH   1  21
ATOM     17  C   LIG    1        4.519   0.777  -1.591  0.00  0.00    +0.166 A 
ATOM     18  C   LIG    1        5.600   0.644  -0.747  0.00  0.00    +0.204 A 
ATOM     19  C   LIG    1        5.408   0.181   0.535  0.00  0.00    +0.166 A 
ATOM     20  C   LIG    1        4.138  -0.157   0.997  0.00  0.00    +0.057 A 
ATOM     21  C   LIG    1        3.051  -0.032   0.172  0.00  0.00    -0.018 A 
ATOM     22  C   LIG    1        3.269   0.437  -1.115  0.00  0.00    +0.057 A 
BRANCH  17  23
ATOM     23  O   LIG    1        4.758   1.246  -2.869  0.00  0.00    -0.491 OA
ATOM     24  C   LIG    1        3.635   1.378  -3.723  0.00  0.00    +0.277 C 
ENDBRANCH  17  23
BRANCH  19  25
ATOM     25  O   LIG    1        6.494   0.050   1.375  0.00  0.00    -0.491 OA
ATOM     26  C   LIG    1        6.278  -0.426   2.686  0.00  0.00    +0.277 C 
ENDBRANCH  19  25
BRANCH  18  27
ATOM     27  O   LIG    1        6.846   0.964  -1.166  0.00  0.00    -0.488 OA
ATOM     28  C   LIG    1        7.496   2.189  -1.087  0.00  0.00    +0.277 C 
ENDBRANCH  18  27
ENDBRANCH   1  21
TORSDOF 9
