REMARK  Name = molecules/XDWLRMBWIWKFNC-HNQUOIGGSA-N.pdb
REMARK                            x       y       z     vdW  Elec       q    Type
REMARK                         _______ _______ _______ _____ _____    ______ ____
ROOT
ATOM      1  C   LIG    1        0.708   0.119   0.139  0.00  0.00    +0.048 C 
ATOM      2  C   LIG    1       -0.179  -0.807  -0.169  0.00  0.00    +0.033 C 
ENDROOT
BRANCH   2   3
ATOM      3  C   LIG    1       -1.614  -0.588  -0.234  0.00  0.00    +0.086 A 
ATOM      4  C   LIG    1       -2.239   0.607   0.014  0.00  0.00    +0.033 A 
ATOM      5  C   LIG    1       -3.634   0.683  -0.084  0.00  0.00    +0.047 A 
ATOM      6  C   LIG    1       -4.393  -0.417  -0.424  0.00  0.00    +0.139 A 
ATOM      7  N   LIG    1       -3.725  -1.560  -0.656  0.00  0.00    -0.134 NA
ATOM      8  N   LIG    1       -2.414  -1.623  -0.561  0.00  0.00    -0.148 NA
BRANCH   6   9
ATOM      9  N   LIG    1       -5.819  -0.330  -0.522  0.00  0.00    -0.342 N 
ATOM     10  H   LIG    1       -6.443  -0.918   0.036  0.00  0.00    +0.144 HD
ATOM     11  H   LIG    1       -6.191   0.369  -1.198  0.00  0.00    +0.144 HD
ENDBRANCH   6   9
ENDBRANCH   2   3
BRANCH   1  12
ATOM     12  C   LIG    1        2.147  -0.164   0.189  0.00  0.00    +0.131 A 
ATOM     13  O   LIG    1        3.052   0.731   0.490  0.00  0.00    -0.435 OA
ATOM     14  C   LIG    1        4.250   0.198   0.457  0.00  0.00    +0.280 A 
ATOM     15  C   LIG    1        4.123  -1.116   0.115  0.00  0.00    +0.076 A 
ATOM     16  C   LIG    1        2.784  -1.357  -0.058  0.00  0.00    +0.052 A 
BRANCH  14  17
ATOM     17  N   LIG    1        5.467   0.881   0.731  0.00  0.00    +0.093 N 
ATOM     18  O   LIG    1        5.490   2.089   1.037  0.00  0.00    -0.123 OA
ATOM     19  O   LIG    1        6.670   0.221   0.666  0.00  0.00    -0.123 OA
ENDBRANCH  14  17
ENDBRANCH   1  12
TORSDOF 4
