REMARK  Name = molecules/XDXDZDZNSLXDNA-TZNDIEGXSA-N.pdb
REMARK                            x       y       z     vdW  Elec       q    Type
REMARK                         _______ _______ _______ _____ _____    ______ ____
ROOT
ATOM      1  C   LIG    1       -0.516   0.671  -1.040  0.00  0.00    +0.158 C 
ATOM      2  C   LIG    1        0.804   0.444  -0.437  0.00  0.00    +0.030 A 
ATOM      3  C   LIG    1        1.493   1.539   0.083  0.00  0.00    +0.007 A 
ATOM      4  C   LIG    1        2.715   1.327   0.637  0.00  0.00    +0.132 A 
ATOM      5  C   LIG    1        3.305   0.073   0.707  0.00  0.00    +0.078 A 
ATOM      6  C   LIG    1        4.612  -0.152   1.300  0.00  0.00    +0.198 C 
ATOM      7  O   LIG    1        5.233   0.826   1.768  0.00  0.00    -0.286 OA
ATOM      8  C   LIG    1        5.175  -1.482   1.344  0.00  0.00    +0.033 A 
ATOM      9  C   LIG    1        6.416  -1.679   1.910  0.00  0.00    +0.012 A 
ATOM     10  C   LIG    1        6.959  -2.962   1.952  0.00  0.00    +0.001 A 
ATOM     11  C   LIG    1        6.261  -4.019   1.434  0.00  0.00    +0.001 A 
ATOM     12  C   LIG    1        5.034  -3.816   0.875  0.00  0.00    +0.012 A 
ATOM     13  C   LIG    1        4.476  -2.543   0.824  0.00  0.00    +0.033 A 
ATOM     14  C   LIG    1        3.171  -2.322   0.232  0.00  0.00    +0.198 C 
ATOM     15  O   LIG    1        2.534  -3.309  -0.245  0.00  0.00    -0.286 OA
ATOM     16  C   LIG    1        2.608  -0.989   0.189  0.00  0.00    +0.078 A 
ATOM     17  C   LIG    1        0.966   2.920   0.070  0.00  0.00    +0.082 C 
ATOM     18  C   LIG    1       -0.346   3.069  -0.628  0.00  0.00    +0.130 C 
ATOM     19  C   LIG    1        1.362  -0.806  -0.382  0.00  0.00    +0.134 A 
ATOM     20  C   LIG    1       -0.538   2.034  -1.702  0.00  0.00    +0.079 C 
ENDROOT
BRANCH  18  21
ATOM     21  C   LIG    1       -0.375   4.410  -1.288  0.00  0.00    +0.162 C 
ATOM     22  C   LIG    1       -1.364   5.436  -0.913  0.00  0.00    +0.089 C 
ATOM     23  O   LIG    1        0.471   4.600  -2.155  0.00  0.00    -0.295 OA
ENDBRANCH  18  21
BRANCH   4  24
ATOM     24  O   LIG    1        3.432   2.382   1.165  0.00  0.00    -0.506 OA
ATOM     25  H   LIG    1        3.046   3.310   1.138  0.00  0.00    +0.292 HD
ENDBRANCH   4  24
BRANCH  18  26
ATOM     26  O   LIG    1       -1.369   3.011   0.331  0.00  0.00    -0.381 OA
ATOM     27  H   LIG    1       -1.126   3.633   1.058  0.00  0.00    +0.211 HD
ENDBRANCH  18  26
BRANCH  19  28
ATOM     28  O   LIG    1        0.714  -1.899  -0.882  0.00  0.00    -0.506 OA
ATOM     29  H   LIG    1       -0.178  -1.855  -1.300  0.00  0.00    +0.292 HD
ENDBRANCH  19  28
BRANCH   1  30
ATOM     30  O   LIG    1       -1.454   0.701  -0.002  0.00  0.00    -0.343 OA
BRANCH  30  31
ATOM     31  C   LIG    1       -2.509  -0.205  -0.270  0.00  0.00    +0.253 C 
ATOM     32  C   LIG    1       -2.447  -1.236   0.835  0.00  0.00    +0.082 C 
ATOM     33  C   LIG    1       -3.608  -2.172   0.652  0.00  0.00    +0.087 C 
ATOM     34  C   LIG    1       -4.861  -1.374   0.576  0.00  0.00    +0.160 C 
ATOM     35  C   LIG    1       -4.822  -0.203  -0.344  0.00  0.00    +0.148 C 
ATOM     36  C   LIG    1       -5.164  -0.565  -1.784  0.00  0.00    +0.041 C 
ATOM     37  O   LIG    1       -3.666   0.550  -0.250  0.00  0.00    -0.346 OA
BRANCH  33  38
ATOM     38  N   LIG    1       -3.379  -3.050  -0.454  0.00  0.00    -0.325 NA
ATOM     39  H   LIG    1       -3.111  -4.018  -0.169  0.00  0.00    +0.119 HD
ATOM     40  H   LIG    1       -2.814  -2.687  -1.222  0.00  0.00    +0.119 HD
ENDBRANCH  33  38
BRANCH  34  41
ATOM     41  O   LIG    1       -5.980  -2.145   0.272  0.00  0.00    -0.388 OA
ATOM     42  H   LIG    1       -6.568  -1.694  -0.386  0.00  0.00    +0.210 HD
ENDBRANCH  34  41
ENDBRANCH  30  31
ENDBRANCH   1  30
TORSDOF 8
