REMARK  Name = molecules/XEDHVZKDSYZQBF-UHFFFAOYSA-N.pdb
REMARK                            x       y       z     vdW  Elec       q    Type
REMARK                         _______ _______ _______ _____ _____    ______ ____
ROOT
ATOM      1  C   LIG    1        1.525   0.043   0.819  0.00  0.00    +0.126 A 
ATOM      2  N   LIG    1        0.163  -0.166   0.729  0.00  0.00    -0.229 NA
ATOM      3  C   LIG    1       -0.377  -1.363   0.556  0.00  0.00    +0.109 A 
ATOM      4  C   LIG    1        0.463  -2.455   0.462  0.00  0.00    +0.031 A 
ATOM      5  C   LIG    1        1.832  -2.335   0.541  0.00  0.00    +0.006 A 
ATOM      6  C   LIG    1        2.348  -1.043   0.726  0.00  0.00    +0.044 A 
ENDROOT
BRANCH   1   9
ATOM      7  C   LIG    1        3.281   1.884   0.807  0.00  0.00    +0.255 C 
ATOM      8  O   LIG    1        3.468   3.129   1.200  0.00  0.00    -0.270 OA
ATOM      9  N   LIG    1        2.017   1.343   0.953  0.00  0.00    -0.266 N 
ATOM     10  H   LIG    1        1.286   2.058   1.370  0.00  0.00    +0.157 HD
BRANCH   7  12
ATOM     11  C   LIG    1        4.547   0.641  -0.940  0.00  0.00    +0.141 A 
ATOM     12  C   LIG    1        4.511   1.316   0.271  0.00  0.00    +0.107 A 
ATOM     13  C   LIG    1        5.699   1.421   1.006  0.00  0.00    +0.141 A 
ATOM     14  F   LIG    1        5.683   2.079   2.193  0.00  0.00    -0.205 F 
ATOM     15  C   LIG    1        6.832   0.851   0.487  0.00  0.00    +0.077 A 
ATOM     16  C   LIG    1        6.888   0.175  -0.713  0.00  0.00    +0.129 A 
ATOM     17  F   LIG    1        8.024  -0.361  -1.166  0.00  0.00    -0.205 F 
ATOM     18  C   LIG    1        5.712   0.083  -1.419  0.00  0.00    +0.077 A 
ATOM     19  F   LIG    1        3.411   0.535  -1.717  0.00  0.00    -0.205 F 
ENDBRANCH   7  12
ENDBRANCH   1   9
BRANCH   3  20
ATOM     20  C   LIG    1       -1.813  -1.598   0.460  0.00  0.00    +0.184 C 
ATOM     21  O   LIG    1       -2.283  -2.748   0.296  0.00  0.00    -0.290 OA
BRANCH  20  22
ATOM     22  C   LIG    1       -2.775  -0.472   0.553  0.00  0.00    +0.064 C 
ATOM     23  C   LIG    1       -4.205  -0.942   0.405  0.00  0.00    +0.027 C 
ATOM     24  C   LIG    1       -5.071   0.286   0.671  0.00  0.00    +0.085 C 
ATOM     25  N   LIG    1       -4.935   1.183  -0.446  0.00  0.00    -0.305 NA
ATOM     26  C   LIG    1       -6.134   1.025  -1.266  0.00  0.00    +0.104 C 
ATOM     27  C   LIG    1       -3.807   0.886  -1.291  0.00  0.00    +0.085 C 
ATOM     28  C   LIG    1       -2.556   0.558  -0.534  0.00  0.00    +0.027 C 
ENDBRANCH  20  22
ENDBRANCH   3  20
TORSDOF 4
