REMARK  Name = molecules/XEFQLINVKFYRCS-UHFFFAOYSA-N.pdb
REMARK                            x       y       z     vdW  Elec       q    Type
REMARK                         _______ _______ _______ _____ _____    ______ ____
ROOT
ATOM      1  C   LIG    1        2.278   1.277   0.324  0.00  0.00    +0.160 A 
ATOM      2  C   LIG    1        3.479   0.699   0.659  0.00  0.00    +0.069 A 
ATOM      3  C   LIG    1        3.525  -0.666   0.861  0.00  0.00    +0.045 A 
ATOM      4 CL   LIG    1        5.049  -1.409   1.287  0.00  0.00    -0.083 Cl
ATOM      5  C   LIG    1        2.376  -1.413   0.724  0.00  0.00    +0.024 A 
ATOM      6  C   LIG    1        1.179  -0.822   0.388  0.00  0.00    +0.051 A 
ATOM      7  C   LIG    1        1.130   0.533   0.187  0.00  0.00    +0.170 A 
ENDROOT
BRANCH   1   8
ATOM      8  O   LIG    1        2.250   2.649   0.125  0.00  0.00    -0.503 OA
ATOM      9  H   LIG    1        1.383   3.085  -0.119  0.00  0.00    +0.292 HD
ENDBRANCH   1   8
BRANCH   7  10
ATOM     10  O   LIG    1       -0.036   1.220  -0.152  0.00  0.00    -0.451 OA
BRANCH  10  11
ATOM     11  C   LIG    1       -1.246   0.565  -0.246  0.00  0.00    +0.147 A 
ATOM     12  C   LIG    1       -1.813  -0.024   0.860  0.00  0.00    +0.085 A 
ATOM     13 CL   LIG    1       -1.000   0.089   2.413  0.00  0.00    -0.080 Cl
ATOM     14  C   LIG    1       -3.037  -0.696   0.807  0.00  0.00    +0.043 A 
ATOM     15  C   LIG    1       -3.669  -0.748  -0.416  0.00  0.00    +0.043 A 
ATOM     16 CL   LIG    1       -5.206  -1.585  -0.509  0.00  0.00    -0.083 Cl
ATOM     17  C   LIG    1       -3.136  -0.169  -1.552  0.00  0.00    +0.023 A 
ATOM     18  C   LIG    1       -1.925   0.481  -1.444  0.00  0.00    +0.049 A 
ENDBRANCH  10  11
ENDBRANCH   7  10
TORSDOF 3
