REMARK  Name = molecules/XFCLJVABOIYOMF-QPLCGJKRSA-N.pdb
REMARK                            x       y       z     vdW  Elec       q    Type
REMARK                         _______ _______ _______ _____ _____    ______ ____
ROOT
ATOM      1  C   LIG    1       -2.998  -0.358  -0.773  0.00  0.00    -0.031 C 
ATOM      2  C   LIG    1       -1.999   0.542  -0.715  0.00  0.00    -0.007 C 
ENDROOT
BRANCH   1   6
ATOM      3  C   LIG    1       -2.482  -4.290   0.731  0.00  0.00    +0.000 A 
ATOM      4  C   LIG    1       -3.531  -3.511   1.138  0.00  0.00    +0.001 A 
ATOM      5  C   LIG    1       -3.655  -2.228   0.633  0.00  0.00    +0.008 A 
ATOM      6  C   LIG    1       -2.757  -1.694  -0.273  0.00  0.00    -0.021 A 
ATOM      7  C   LIG    1       -1.716  -2.491  -0.665  0.00  0.00    +0.008 A 
ATOM      8  C   LIG    1       -1.576  -3.779  -0.169  0.00  0.00    +0.001 A 
ENDBRANCH   1   6
BRANCH   2   9
ATOM      9  C   LIG    1       -0.781   0.107  -0.026  0.00  0.00    -0.017 A 
ATOM     10  C   LIG    1       -0.821  -0.361   1.265  0.00  0.00    +0.012 A 
ATOM     11  C   LIG    1        0.327  -0.698   1.907  0.00  0.00    +0.046 A 
ATOM     12  C   LIG    1        1.602  -0.594   1.312  0.00  0.00    +0.121 A 
ATOM     13  C   LIG    1        1.608  -0.127   0.028  0.00  0.00    +0.046 A 
ATOM     14  C   LIG    1        0.433   0.216  -0.625  0.00  0.00    +0.012 A 
BRANCH  12  15
ATOM     15  O   LIG    1        2.700  -0.948   2.029  0.00  0.00    -0.491 OA
BRANCH  15  16
ATOM     16  C   LIG    1        4.049  -0.941   1.756  0.00  0.00    +0.244 C 
BRANCH  16  17
ATOM     17  C   LIG    1        4.645   0.418   1.478  0.00  0.00    +0.124 C 
BRANCH  17  18
ATOM     18  N   LIG    1        6.078   0.316   1.217  0.00  0.00    -0.305 NA
ATOM     19  C   LIG    1        6.763  -0.039   2.414  0.00  0.00    +0.104 C 
ATOM     20  C   LIG    1        6.525   1.477   0.530  0.00  0.00    +0.104 C 
ENDBRANCH  17  18
ENDBRANCH  16  17
ENDBRANCH  15  16
ENDBRANCH  12  15
ENDBRANCH   2   9
BRANCH   2  21
ATOM     21  C   LIG    1       -2.223   1.887  -1.212  0.00  0.00    -0.017 A 
ATOM     22  C   LIG    1       -3.248   2.664  -0.652  0.00  0.00    +0.008 A 
ATOM     23  C   LIG    1       -3.474   3.960  -1.040  0.00  0.00    +0.001 A 
ATOM     24  C   LIG    1       -2.692   4.545  -2.002  0.00  0.00    +0.000 A 
ATOM     25  C   LIG    1       -1.678   3.801  -2.568  0.00  0.00    +0.001 A 
ATOM     26  C   LIG    1       -1.454   2.469  -2.163  0.00  0.00    +0.008 A 
ENDBRANCH   2  21
BRANCH   1  27
ATOM     27  C   LIG    1       -4.332  -0.046  -1.359  0.00  0.00    +0.052 C 
BRANCH  27  28
ATOM     28  C   LIG    1       -4.515  -1.001  -2.553  0.00  0.00    +0.113 C 
ATOM     29 CL   LIG    1       -4.474  -2.693  -2.114  0.00  0.00    -0.125 Cl
ENDBRANCH  27  28
ENDBRANCH   1  27
TORSDOF 9
