REMARK  Name = molecules/XFYDIVBRZNQMJC-UHFFFAOYSA-N.pdb
REMARK                            x       y       z     vdW  Elec       q    Type
REMARK                         _______ _______ _______ _____ _____    ______ ____
ROOT
ATOM      1  C   LIG    1       -0.996  -0.424   0.447  0.00  0.00    +0.077 A 
ATOM      2  C   LIG    1       -1.737   0.756   0.324  0.00  0.00    +0.122 A 
ATOM      3  N   LIG    1       -1.306   1.968   0.694  0.00  0.00    -0.189 NA
ATOM      4  S   LIG    1       -2.587   2.988   0.320  0.00  0.00    +0.117 S 
ATOM      5  N   LIG    1       -3.645   1.847  -0.299  0.00  0.00    -0.191 NA
ATOM      6  C   LIG    1       -2.971   0.692  -0.200  0.00  0.00    +0.102 A 
ATOM      7  C   LIG    1       -3.507  -0.544  -0.617  0.00  0.00    +0.032 A 
ATOM      8  C   LIG    1       -2.759  -1.687  -0.485  0.00  0.00    +0.024 A 
ATOM      9  C   LIG    1       -1.489  -1.657   0.049  0.00  0.00    +0.064 A 
ATOM     10 CL   LIG    1       -0.520  -3.113   0.224  0.00  0.00    -0.082 Cl
ENDROOT
BRANCH   1  11
ATOM     11  N   LIG    1        0.311  -0.387   0.998  0.00  0.00    -0.306 N 
ATOM     12  H   LIG    1        0.373  -0.511   2.045  0.00  0.00    +0.149 HD
BRANCH  11  13
ATOM     13  C   LIG    1        1.481  -0.195   0.216  0.00  0.00    +0.206 C 
ATOM     14  N   LIG    1        2.297   0.966   0.313  0.00  0.00    -0.277 NA
ATOM     15  H   LIG    1        2.320   1.707   1.054  0.00  0.00    +0.125 HD
ATOM     16  C   LIG    1        3.173   0.983  -0.862  0.00  0.00    +0.101 C 
ATOM     17  C   LIG    1        3.171  -0.470  -1.257  0.00  0.00    +0.121 C 
ATOM     18  N   LIG    1        1.972  -0.995  -0.663  0.00  0.00    -0.196 NA
ENDBRANCH  11  13
ENDBRANCH   1  11
TORSDOF 2
