REMARK  Name = molecules/XGALLCVXEZPNRQ-UHFFFAOYSA-N.pdb
REMARK                            x       y       z     vdW  Elec       q    Type
REMARK                         _______ _______ _______ _____ _____    ______ ____
ROOT
ATOM      1  C   LIG    1       -3.130  -0.630   0.176  0.00  0.00    +0.134 A 
ATOM      2  C   LIG    1       -2.074  -1.225   0.867  0.00  0.00    +0.044 A 
ATOM      3  C   LIG    1       -0.950  -0.532   1.272  0.00  0.00    +0.062 A 
ATOM      4  C   LIG    1        0.090  -1.131   1.954  0.00  0.00    +0.163 A 
ATOM      5  C   LIG    1       -0.065  -2.502   2.213  0.00  0.00    +0.164 A 
ATOM      6  C   LIG    1       -1.168  -3.203   1.820  0.00  0.00    +0.078 A 
ATOM      7  C   LIG    1       -2.191  -2.567   1.138  0.00  0.00    +0.080 A 
ATOM      8  N   LIG    1       -3.271  -3.281   0.759  0.00  0.00    -0.235 NA
ATOM      9  C   LIG    1       -4.289  -2.713   0.095  0.00  0.00    +0.223 A 
ATOM     10  N   LIG    1       -4.166  -1.405  -0.166  0.00  0.00    -0.220 NA
ENDROOT
BRANCH   1  11
ATOM     11  N   LIG    1       -3.127   0.731  -0.130  0.00  0.00    -0.299 N 
ATOM     12  H   LIG    1       -2.300   1.308   0.202  0.00  0.00    +0.154 HD
BRANCH  11  13
ATOM     13  C   LIG    1       -4.124   1.448  -0.851  0.00  0.00    +0.034 A 
ATOM     14  C   LIG    1       -4.154   2.842  -0.802  0.00  0.00    +0.026 A 
ATOM     15  C   LIG    1       -5.099   3.567  -1.471  0.00  0.00    +0.041 A 
ATOM     16  C   LIG    1       -6.066   2.949  -2.225  0.00  0.00    +0.142 A 
ATOM     17  C   LIG    1       -6.073   1.578  -2.300  0.00  0.00    +0.078 A 
ATOM     18 CL   LIG    1       -7.288   0.789  -3.249  0.00  0.00    -0.081 Cl
ATOM     19  F   LIG    1       -6.983   3.717  -2.872  0.00  0.00    -0.204 F 
ATOM     20  C   LIG    1       -5.094   0.852  -1.606  0.00  0.00    +0.046 A 
ENDBRANCH  11  13
ENDBRANCH   1  11
BRANCH   5  21
ATOM     21  O   LIG    1        0.948  -3.121   2.885  0.00  0.00    -0.491 OA
ATOM     22  C   LIG    1        0.897  -4.500   3.196  0.00  0.00    +0.277 C 
ENDBRANCH   5  21
BRANCH   4  23
ATOM     23  O   LIG    1        1.163  -0.438   2.332  0.00  0.00    -0.488 OA
BRANCH  23  24
ATOM     24  C   LIG    1        1.672   0.802   2.278  0.00  0.00    +0.230 C 
BRANCH  24  25
ATOM     25  C   LIG    1        1.946   1.395   0.904  0.00  0.00    +0.056 C 
BRANCH  25  26
ATOM     26  C   LIG    1        2.917   0.458   0.227  0.00  0.00    +0.088 C 
BRANCH  26  27
ATOM     27  N   LIG    1        3.299   0.883  -1.106  0.00  0.00    -0.298 NA
ATOM     28  C   LIG    1        4.072   2.109  -1.083  0.00  0.00    +0.112 C 
ATOM     29  C   LIG    1        5.472   1.891  -0.568  0.00  0.00    +0.175 C 
ATOM     30  O   LIG    1        6.157   0.901  -1.251  0.00  0.00    -0.377 OA
ATOM     31  C   LIG    1        5.474  -0.294  -1.012  0.00  0.00    +0.175 C 
ATOM     32  C   LIG    1        4.122  -0.166  -1.661  0.00  0.00    +0.112 C 
ENDBRANCH  26  27
ENDBRANCH  25  26
ENDBRANCH  24  25
ENDBRANCH  23  24
ENDBRANCH   4  23
TORSDOF 8
