REMARK  Name = molecules/XGGHHHBGPSNXFE-ZSHCYNCHSA-N.pdb
REMARK                            x       y       z     vdW  Elec       q    Type
REMARK                         _______ _______ _______ _____ _____    ______ ____
ROOT
ATOM      1  C   LIG    1        5.213  -0.240   0.167  0.00  0.00    -0.092 C 
ATOM      2  N   LIG    1        3.831  -0.248  -0.334  0.00  0.00    +0.380 N 
ATOM      3  C   LIG    1        3.136  -1.278   0.377  0.00  0.00    -0.062 C 
ATOM      4  C   LIG    1        3.375  -0.812   1.818  0.00  0.00    -0.016 C 
ATOM      5  C   LIG    1        3.191   0.684   1.667  0.00  0.00    -0.016 C 
ATOM      6  C   LIG    1        1.684  -1.365   0.136  0.00  0.00    +0.030 C 
ATOM      7  C   LIG    1        1.096  -0.185  -0.588  0.00  0.00    +0.173 C 
ATOM      8  C   LIG    1        1.789   1.114  -0.273  0.00  0.00    +0.030 C 
ATOM      9  C   LIG    1        3.208   0.954   0.159  0.00  0.00    -0.062 C 
ATOM     10  C   LIG    1        3.859  -0.381  -1.743  0.00  0.00    -0.092 C 
ENDROOT
BRANCH   7  11
ATOM     11  O   LIG    1       -0.300  -0.101  -0.450  0.00  0.00    -0.461 OA
BRANCH  11  12
ATOM     12  C   LIG    1       -1.216  -0.223  -1.429  0.00  0.00    +0.310 C 
ATOM     13  O   LIG    1       -0.858  -0.431  -2.585  0.00  0.00    -0.251 OA
BRANCH  12  14
ATOM     14  C   LIG    1       -2.714  -0.091  -1.030  0.00  0.00    +0.098 C 
BRANCH  14  15
ATOM     15  C   LIG    1       -3.003  -1.143  -0.055  0.00  0.00    +0.014 C 
BRANCH  15  16
ATOM     16  C   LIG    1       -4.390  -1.310   0.438  0.00  0.00    -0.003 C 
ATOM     17  C   LIG    1       -4.476  -2.486   1.431  0.00  0.00    +0.004 C 
ENDBRANCH  15  16
ENDBRANCH  14  15
BRANCH  14  18
ATOM     18  C   LIG    1       -2.906   1.335  -0.698  0.00  0.00    +0.014 C 
BRANCH  18  19
ATOM     19  C   LIG    1       -4.215   1.876  -0.269  0.00  0.00    -0.003 C 
ATOM     20  C   LIG    1       -4.109   3.421  -0.113  0.00  0.00    +0.004 C 
ENDBRANCH  18  19
ENDBRANCH  14  18
ENDBRANCH  12  14
ENDBRANCH  11  12
ENDBRANCH   7  11
TORSDOF 7
