REMARK  Name = molecules/XGGTZCKQRWXCHW-WMTVXVAQSA-N.pdb
REMARK                            x       y       z     vdW  Elec       q    Type
REMARK                         _______ _______ _______ _____ _____    ______ ____
ROOT
ATOM      1  C   LIG    1        2.573  -0.449  -0.004  0.00  0.00    +0.060 C 
ATOM      2  C   LIG    1        2.155  -1.168   1.267  0.00  0.00    +0.046 C 
ATOM      3  C   LIG    1        0.866  -1.881   1.201  0.00  0.00    +0.109 C 
ATOM      4  N   LIG    1        0.062  -1.211   0.159  0.00  0.00    -0.278 N 
ATOM      5  C   LIG    1       -1.034  -0.407   0.540  0.00  0.00    +0.306 C 
ATOM      6  O   LIG    1       -1.005  -0.108   1.821  0.00  0.00    -0.252 OA
ATOM      7  N   LIG    1       -2.117   0.087  -0.214  0.00  0.00    -0.282 N 
ATOM      8  C   LIG    1       -2.318  -0.273  -1.581  0.00  0.00    +0.134 C 
ATOM      9  C   LIG    1        0.590  -1.369  -1.176  0.00  0.00    +0.111 C 
ATOM     10  C   LIG    1        2.122  -1.193  -1.194  0.00  0.00    +0.038 C 
ENDROOT
BRANCH   1  19
ATOM     11  C   LIG    1        4.271   0.387   1.372  0.00  0.00    +0.103 C 
ATOM     12  C   LIG    1        5.588   1.171   1.366  0.00  0.00    +0.123 C 
ATOM     13  N   LIG    1        5.461   2.204   0.371  0.00  0.00    -0.299 N 
ATOM     14  C   LIG    1        6.257   3.363   0.459  0.00  0.00    +0.213 C 
ATOM     15  C   LIG    1        7.240   3.490   1.589  0.00  0.00    +0.109 C 
ATOM     16  O   LIG    1        6.184   4.304  -0.370  0.00  0.00    -0.276 OA
ATOM     17  C   LIG    1        4.520   2.026  -0.698  0.00  0.00    +0.123 C 
ATOM     18  C   LIG    1        4.537   0.507  -0.971  0.00  0.00    +0.103 C 
ATOM     19  N   LIG    1        4.000  -0.251   0.104  0.00  0.00    -0.296 NA
ENDBRANCH   1  19
BRANCH   3  20
ATOM     20  C   LIG    1        0.919  -3.319   0.907  0.00  0.00    -0.024 A 
ATOM     21  C   LIG    1       -0.213  -4.068   0.811  0.00  0.00    -0.043 A 
ATOM     22  C   LIG    1       -1.601  -3.514   1.000  0.00  0.00    +0.044 C 
ATOM     23  C   LIG    1       -0.162  -5.426   0.543  0.00  0.00    +0.042 A 
ATOM     24  C   LIG    1        1.042  -6.090   0.365  0.00  0.00    +0.124 A 
ATOM     25  C   LIG    1        2.181  -5.322   0.470  0.00  0.00    +0.039 A 
ATOM     26  F   LIG    1        1.052  -7.420   0.077  0.00  0.00    -0.205 F 
ATOM     27  C   LIG    1        2.142  -3.969   0.731  0.00  0.00    +0.008 A 
ENDBRANCH   3  20
BRANCH   7  28
ATOM     28  C   LIG    1       -3.022   0.953   0.520  0.00  0.00    +0.104 C 
ATOM     29  C   LIG    1       -3.884  -0.252   1.252  0.00  0.00    +0.033 C 
BRANCH  28  30
ATOM     30  C   LIG    1       -4.046   1.681  -0.133  0.00  0.00    -0.026 A 
ATOM     31  C   LIG    1       -5.237   1.915   0.589  0.00  0.00    +0.017 A 
ATOM     32  C   LIG    1       -6.325   2.562   0.108  0.00  0.00    +0.056 A 
ATOM     33  C   LIG    1       -6.333   3.043  -1.157  0.00  0.00    +0.024 A 
ATOM     34  C   LIG    1       -5.187   2.851  -1.939  0.00  0.00    +0.056 A 
ATOM     35  C   LIG    1       -4.092   2.187  -1.415  0.00  0.00    +0.017 A 
BRANCH  32  36
ATOM     36  C   LIG    1       -7.522   2.735   1.031  0.00  0.00    +0.417 C 
ATOM     37  F   LIG    1       -7.170   3.506   2.109  0.00  0.00    -0.166 F 
ATOM     38  F   LIG    1       -7.792   1.439   1.468  0.00  0.00    -0.166 F 
ATOM     39  F   LIG    1       -8.624   3.158   0.347  0.00  0.00    -0.166 F 
ENDBRANCH  32  36
BRANCH  34  40
ATOM     40  C   LIG    1       -5.239   3.360  -3.323  0.00  0.00    +0.417 C 
ATOM     41  F   LIG    1       -6.448   4.027  -3.539  0.00  0.00    -0.166 F 
ATOM     42  F   LIG    1       -4.246   4.278  -3.614  0.00  0.00    -0.166 F 
ATOM     43  F   LIG    1       -5.218   2.298  -4.220  0.00  0.00    -0.166 F 
ENDBRANCH  34  40
ENDBRANCH  28  30
ENDBRANCH   7  28
TORSDOF 6
