REMARK  Name = molecules/XGNKHIPCARGLGS-UHFFFAOYSA-N.pdb
REMARK                            x       y       z     vdW  Elec       q    Type
REMARK                         _______ _______ _______ _____ _____    ______ ____
ROOT
ATOM      1  C   LIG    1        0.409   0.842   0.193  0.00  0.00    +0.139 C 
ATOM      2  C   LIG    1       -0.727   1.177   1.131  0.00  0.00    +0.253 C 
ATOM      3  O   LIG    1       -0.651   2.066   2.012  0.00  0.00    -0.272 OA
ATOM      4  N   LIG    1       -1.840   0.338   0.843  0.00  0.00    -0.180 N 
ATOM      5  N   LIG    1       -1.539  -0.346  -0.325  0.00  0.00    -0.180 N 
ATOM      6  C   LIG    1       -0.251   0.030  -0.809  0.00  0.00    +0.253 C 
ATOM      7  O   LIG    1        0.194  -0.308  -1.924  0.00  0.00    -0.272 OA
ENDROOT
BRANCH   4   8
ATOM      8  C   LIG    1       -3.009   0.279   1.653  0.00  0.00    +0.057 A 
ATOM      9  C   LIG    1       -3.022  -0.291   2.911  0.00  0.00    +0.025 A 
ATOM     10  C   LIG    1       -4.193  -0.338   3.677  0.00  0.00    +0.002 A 
ATOM     11  C   LIG    1       -5.342   0.190   3.165  0.00  0.00    +0.000 A 
ATOM     12  C   LIG    1       -5.334   0.759   1.912  0.00  0.00    +0.002 A 
ATOM     13  C   LIG    1       -4.192   0.815   1.143  0.00  0.00    +0.025 A 
ENDBRANCH   4   8
BRANCH   5  14
ATOM     14  C   LIG    1       -2.364  -1.291  -0.985  0.00  0.00    +0.057 A 
ATOM     15  C   LIG    1       -2.114  -2.621  -0.676  0.00  0.00    +0.025 A 
ATOM     16  C   LIG    1       -2.847  -3.603  -1.280  0.00  0.00    +0.002 A 
ATOM     17  C   LIG    1       -3.828  -3.271  -2.189  0.00  0.00    +0.000 A 
ATOM     18  C   LIG    1       -4.052  -1.941  -2.473  0.00  0.00    +0.002 A 
ATOM     19  C   LIG    1       -3.333  -0.925  -1.883  0.00  0.00    +0.025 A 
ENDBRANCH   5  14
BRANCH   1  20
ATOM     20  C   LIG    1        1.485   0.229   1.004  0.00  0.00    +0.110 C 
BRANCH  20  21
ATOM     21  N   LIG    1        2.695  -0.113   0.377  0.00  0.00    -0.298 NA
ATOM     22  C   LIG    1        3.785  -0.124   1.312  0.00  0.00    +0.100 C 
ATOM     23  C   LIG    1        5.063  -0.203   0.487  0.00  0.00    +0.099 C 
ATOM     24  N   LIG    1        5.135  -1.554  -0.017  0.00  0.00    -0.303 NA
ATOM     25  C   LIG    1        5.816  -2.373   0.974  0.00  0.00    +0.105 C 
ATOM     26  C   LIG    1        3.877  -2.157  -0.302  0.00  0.00    +0.099 C 
ATOM     27  C   LIG    1        2.738  -1.183  -0.534  0.00  0.00    +0.100 C 
ENDBRANCH  20  21
ENDBRANCH   1  20
BRANCH   1  28
ATOM     28  C   LIG    1        0.825   2.162  -0.443  0.00  0.00    +0.027 C 
BRANCH  28  29
ATOM     29  C   LIG    1       -0.332   2.717  -1.245  0.00  0.00    +0.001 C 
BRANCH  29  30
ATOM     30  C   LIG    1       -0.034   4.015  -1.928  0.00  0.00    -0.003 C 
ATOM     31  C   LIG    1        1.089   3.986  -2.902  0.00  0.00    +0.004 C 
ENDBRANCH  29  30
ENDBRANCH  28  29
ENDBRANCH   1  28
TORSDOF 7
