REMARK  Name = molecules/XGZZHZMWIXFATA-UEZBDDGYSA-N.pdb
REMARK                            x       y       z     vdW  Elec       q    Type
REMARK                         _______ _______ _______ _____ _____    ______ ____
ROOT
ATOM      1  C   LIG    1       -1.341   1.195  -0.131  0.00  0.00    +0.095 C 
ATOM      2  C   LIG    1       -0.646   0.355   0.857  0.00  0.00    +0.069 C 
ATOM      3  C   LIG    1       -1.386   0.327   2.136  0.00  0.00    +0.033 C 
ATOM      4  C   LIG    1       -2.838   0.494   1.989  0.00  0.00    +0.086 C 
ATOM      5  N   LIG    1       -3.414   0.384   0.737  0.00  0.00    -0.296 NA
ATOM      6  C   LIG    1        0.799   0.637   1.106  0.00  0.00    +0.207 C 
ATOM      7  O   LIG    1        1.127  -0.645   1.736  0.00  0.00    -0.482 OA
ATOM      8  C   LIG    1        0.545  -1.615   0.894  0.00  0.00    +0.166 A 
ATOM      9  C   LIG    1        0.786  -2.916   0.537  0.00  0.00    +0.159 A 
ATOM     10  C   LIG    1       -0.065  -3.550  -0.381  0.00  0.00    +0.049 A 
ATOM     11  C   LIG    1       -1.141  -2.899  -0.938  0.00  0.00    +0.008 A 
ATOM     12  C   LIG    1       -1.395  -1.570  -0.579  0.00  0.00    -0.038 A 
ATOM     13  C   LIG    1       -2.483  -0.792  -1.161  0.00  0.00    +0.057 C 
ATOM     14  C   LIG    1        1.615   0.821  -0.155  0.00  0.00    +0.118 C 
ATOM     15  C   LIG    1        0.813   0.863  -1.419  0.00  0.00    +0.029 C 
ATOM     16  C   LIG    1       -0.543  -1.019   0.309  0.00  0.00    +0.014 A 
ATOM     17  C   LIG    1       -2.648   0.502  -0.431  0.00  0.00    +0.094 C 
ATOM     18  C   LIG    1       -0.508   1.525  -1.334  0.00  0.00    +0.039 C 
ENDROOT
BRANCH  14  19
ATOM     19  N   LIG    1        2.507   1.956  -0.036  0.00  0.00    -0.294 N 
ATOM     20  C   LIG    1        3.895   1.995   0.043  0.00  0.00    +0.240 C 
ATOM     21  O   LIG    1        4.420   3.229   0.052  0.00  0.00    -0.271 OA
ATOM     22  C   LIG    1        1.851   3.303   0.025  0.00  0.00    +0.132 C 
BRANCH  20  23
ATOM     23  C   LIG    1        4.931   1.017   0.122  0.00  0.00    +0.068 C 
ATOM     24  C   LIG    1        4.916  -0.276   0.171  0.00  0.00    +0.016 C 
BRANCH  24  25
ATOM     25  C   LIG    1        6.174  -1.035   0.249  0.00  0.00    +0.013 A 
ATOM     26  C   LIG    1        6.272  -2.420   0.307  0.00  0.00    +0.049 A 
ATOM     27  C   LIG    1        7.620  -2.693   0.373  0.00  0.00    +0.195 A 
ATOM     28  O   LIG    1        8.284  -1.552   0.357  0.00  0.00    -0.470 OA
ATOM     29  C   LIG    1        7.434  -0.539   0.282  0.00  0.00    +0.202 A 
ENDBRANCH  24  25
ENDBRANCH  20  23
ENDBRANCH  14  19
BRANCH   1  30
ATOM     30  O   LIG    1       -1.723   2.391   0.527  0.00  0.00    -0.386 OA
ATOM     31  H   LIG    1       -1.553   3.128  -0.107  0.00  0.00    +0.210 HD
ENDBRANCH   1  30
BRANCH   9  32
ATOM     32  O   LIG    1        1.873  -3.564   1.101  0.00  0.00    -0.503 OA
ATOM     33  H   LIG    1        2.029  -4.524   0.818  0.00  0.00    +0.292 HD
ENDBRANCH   9  32
BRANCH   5  34
ATOM     34  C   LIG    1       -4.714  -0.096   0.727  0.00  0.00    +0.088 C 
BRANCH  34  35
ATOM     35  C   LIG    1       -5.739   0.804   0.064  0.00  0.00    +0.003 C 
ATOM     36  C   LIG    1       -7.143   0.194   0.099  0.00  0.00    +0.005 C 
ATOM     37  C   LIG    1       -6.402   0.421  -1.186  0.00  0.00    +0.005 C 
ENDBRANCH  34  35
ENDBRANCH   5  34
TORSDOF 7
