REMARK  Name = molecules/XHJJEWBMBSQVCJ-SECBINFHSA-N.pdb
REMARK                            x       y       z     vdW  Elec       q    Type
REMARK                         _______ _______ _______ _____ _____    ______ ____
ROOT
ATOM      1  C   LIG    1       -0.378   0.414  -0.212  0.00  0.00    +0.003 C 
ATOM      2  C   LIG    1        0.016   1.454   0.762  0.00  0.00    +0.083 C 
ATOM      3  C   LIG    1        1.456   1.650   0.933  0.00  0.00    +0.156 C 
ATOM      4  O   LIG    1        1.861   2.724   1.472  0.00  0.00    -0.293 OA
ATOM      5  C   LIG    1        2.436   0.670   0.514  0.00  0.00    +0.045 C 
ATOM      6  C   LIG    1        1.999  -0.362  -0.181  0.00  0.00    -0.069 C 
ATOM      7  C   LIG    1        3.014  -1.365  -0.609  0.00  0.00    +0.039 C 
ATOM      8  C   LIG    1        0.613  -0.606  -0.567  0.00  0.00    +0.034 C 
ENDROOT
BRANCH   1  10
ATOM      9  C   LIG    1       -2.688   0.819   0.450  0.00  0.00    +0.007 C 
ATOM     10  C   LIG    1       -1.644  -0.269   0.329  0.00  0.00    -0.013 C 
ATOM     11  C   LIG    1       -2.161  -1.279  -0.674  0.00  0.00    +0.007 C 
ENDBRANCH   1  10
TORSDOF 1
