REMARK  Name = molecules/XHOLNRLADUSQLD-NJNXFGOHSA-N.pdb
REMARK                            x       y       z     vdW  Elec       q    Type
REMARK                         _______ _______ _______ _____ _____    ______ ____
ROOT
ATOM      1  C   LIG    1        1.500  -1.282  -0.213  0.00  0.00    +0.046 A 
ATOM      2  C   LIG    1        2.612  -0.727   0.444  0.00  0.00    +0.062 A 
ATOM      3  C   LIG    1        3.837  -1.282   0.128  0.00  0.00    +0.060 A 
ATOM      4  C   LIG    1        3.953  -2.313  -0.775  0.00  0.00    +0.121 A 
ATOM      5  C   LIG    1        2.879  -2.861  -1.417  0.00  0.00    +0.047 A 
ATOM      6  C   LIG    1        1.625  -2.317  -1.115  0.00  0.00    +0.027 A 
ENDROOT
BRANCH   1   8
ATOM      7  C   LIG    1       -1.025  -1.212  -0.364  0.00  0.00    +0.248 C 
ATOM      8  N   LIG    1        0.246  -0.694  -0.017  0.00  0.00    -0.281 N 
ATOM      9  H   LIG    1        0.238   0.281   0.406  0.00  0.00    +0.155 HD
ATOM     10  O   LIG    1       -1.153  -2.313  -0.909  0.00  0.00    -0.270 OA
BRANCH   7  16
ATOM     11  C   LIG    1       -2.328   0.639   0.723  0.00  0.00    +0.014 A 
ATOM     12  C   LIG    1       -3.527   1.326   0.948  0.00  0.00    +0.016 A 
ATOM     13  C   LIG    1       -4.699   0.926   0.359  0.00  0.00    +0.065 A 
ATOM     14  C   LIG    1       -4.639  -0.191  -0.469  0.00  0.00    +0.016 A 
ATOM     15  C   LIG    1       -3.459  -0.862  -0.686  0.00  0.00    +0.014 A 
ATOM     16  C   LIG    1       -2.271  -0.462  -0.094  0.00  0.00    +0.037 A 
BRANCH  13  17
ATOM     17  C   LIG    1       -5.982   1.616   0.566  0.00  0.00    +0.312 C 
ATOM     18  N   LIG    1       -6.111   2.652   1.316  0.00  0.00    -0.099 NA
ATOM     19  H   LIG    1       -5.292   3.039   1.808  0.00  0.00    +0.363 HD
BRANCH  17  20
ATOM     20  N   LIG    1       -7.130   1.095  -0.108  0.00  0.00    -0.226 N 
ATOM     21  C   LIG    1       -7.729  -0.161   0.271  0.00  0.00    +0.276 C 
ATOM     22  C   LIG    1       -7.700   1.850  -1.197  0.00  0.00    +0.276 C 
ENDBRANCH  17  20
ENDBRANCH  13  17
ENDBRANCH   7  16
ENDBRANCH   1   8
BRANCH   2  23
ATOM     23  C   LIG    1        2.484   0.176   1.559  0.00  0.00    +0.251 C 
ATOM     24  O   LIG    1        1.317   0.193   2.179  0.00  0.00    -0.270 OA
ATOM     25  N   LIG    1        3.422   1.026   2.072  0.00  0.00    -0.266 N 
ATOM     26  H   LIG    1        3.074   1.581   2.988  0.00  0.00    +0.157 HD
BRANCH  25  27
ATOM     27  C   LIG    1        4.616   1.536   1.538  0.00  0.00    +0.125 A 
ATOM     28  N   LIG    1        5.538   1.969   2.477  0.00  0.00    -0.239 NA
ATOM     29  C   LIG    1        6.705   2.409   2.044  0.00  0.00    +0.132 A 
ATOM     30  C   LIG    1        7.050   2.459   0.703  0.00  0.00    +0.059 A 
ATOM     31 CL   LIG    1        8.599   3.044   0.146  0.00  0.00    -0.082 Cl
ATOM     32  C   LIG    1        6.138   2.031  -0.237  0.00  0.00    +0.025 A 
ATOM     33  C   LIG    1        4.930   1.576   0.212  0.00  0.00    +0.045 A 
ENDBRANCH  25  27
ENDBRANCH   2  23
BRANCH   4  34
ATOM     34  O   LIG    1        5.231  -2.793  -1.020  0.00  0.00    -0.495 OA
ATOM     35  C   LIG    1        5.401  -3.843  -1.932  0.00  0.00    +0.277 C 
ENDBRANCH   4  34
TORSDOF 7
