REMARK  Name = molecules/XIHXRRMCNSMUET-UHFFFAOYSA-N.pdb
REMARK                            x       y       z     vdW  Elec       q    Type
REMARK                         _______ _______ _______ _____ _____    ______ ____
ROOT
ATOM      1  C   LIG    1        0.624   0.734   0.414  0.00  0.00    +0.160 C 
ENDROOT
BRANCH   1   2
ATOM      2  N   LIG    1        2.044   0.603   0.038  0.00  0.00    -0.181 NA
ATOM      3  H   LIG    1        2.121   0.067  -0.871  0.00  0.00    +0.163 HD
BRANCH   2   4
ATOM      4  N   LIG    1        2.763  -0.055   1.037  0.00  0.00    -0.202 N 
ATOM      5  H   LIG    1        2.332  -0.214   1.959  0.00  0.00    +0.283 HD
BRANCH   4   6
ATOM      6  C   LIG    1        4.069  -0.490   0.755  0.00  0.00    +0.393 C 
ATOM      7  N   LIG    1        4.858   0.081  -0.283  0.00  0.00    -0.288 N 
ATOM      8  H   LIG    1        5.549   0.826  -0.039  0.00  0.00    +0.255 HD
ATOM      9  H   LIG    1        4.773  -0.216  -1.278  0.00  0.00    +0.255 HD
BRANCH   6  10
ATOM     10  N   LIG    1        4.569  -1.438   1.461  0.00  0.00    -0.128 NA
ATOM     11  H   LIG    1        4.106  -1.928   2.231  0.00  0.00    +0.306 HD
ENDBRANCH   6  10
ENDBRANCH   4   6
ENDBRANCH   2   4
ENDBRANCH   1   2
BRANCH   1  12
ATOM     12  C   LIG    1       -0.041   1.445  -0.713  0.00  0.00    +0.247 C 
BRANCH  12  13
ATOM     13  O   LIG    1       -1.409   1.679  -0.576  0.00  0.00    -0.488 OA
BRANCH  13  14
ATOM     14  C   LIG    1       -2.353   0.666  -0.429  0.00  0.00    +0.157 A 
ATOM     15  C   LIG    1       -2.770   0.180   0.785  0.00  0.00    +0.084 A 
ATOM     16 CL   LIG    1       -2.110   0.854   2.261  0.00  0.00    -0.080 Cl
ATOM     17  C   LIG    1       -3.722  -0.841   0.864  0.00  0.00    +0.024 A 
ATOM     18  C   LIG    1       -4.283  -1.403  -0.262  0.00  0.00    +0.003 A 
ATOM     19  C   LIG    1       -3.875  -0.925  -1.488  0.00  0.00    +0.024 A 
ATOM     20  C   LIG    1       -2.938   0.079  -1.560  0.00  0.00    +0.084 A 
ATOM     21 CL   LIG    1       -2.410   0.695  -3.125  0.00  0.00    -0.080 Cl
ENDBRANCH  13  14
ENDBRANCH  12  13
ENDBRANCH   1  12
TORSDOF 7
