REMARK  Name = molecules/XILVEPYQJIOVNB-UHFFFAOYSA-N.pdb
REMARK                            x       y       z     vdW  Elec       q    Type
REMARK                         _______ _______ _______ _____ _____    ______ ____
ROOT
ATOM      1  C   LIG    1        1.297   0.707  -0.096  0.00  0.00    +0.045 A 
ATOM      2  C   LIG    1       -0.081   0.731  -0.087  0.00  0.00    +0.080 A 
ATOM      3  C   LIG    1       -0.791   1.935  -0.312  0.00  0.00    +0.017 A 
ATOM      4  C   LIG    1       -0.143   3.120  -0.550  0.00  0.00    +0.001 A 
ATOM      5  C   LIG    1        1.221   3.113  -0.567  0.00  0.00    +0.002 A 
ATOM      6  C   LIG    1        1.905   1.921  -0.343  0.00  0.00    +0.024 A 
ENDROOT
BRANCH   1   7
ATOM      7  N   LIG    1        1.995  -0.463   0.203  0.00  0.00    -0.314 N 
ATOM      8  H   LIG    1        1.415  -1.284   0.642  0.00  0.00    +0.152 HD
BRANCH   7   9
ATOM      9  C   LIG    1        3.348  -0.823   0.118  0.00  0.00    +0.032 A 
ATOM     10  C   LIG    1        4.431  -0.047   0.344  0.00  0.00    +0.035 A 
ATOM     11  C   LIG    1        5.754  -0.517   0.164  0.00  0.00    +0.057 A 
ATOM     12  C   LIG    1        5.980  -1.803  -0.253  0.00  0.00    +0.012 A 
ATOM     13  C   LIG    1        4.901  -2.622  -0.490  0.00  0.00    +0.002 A 
ATOM     14  C   LIG    1        3.629  -2.160  -0.313  0.00  0.00    +0.023 A 
BRANCH  11  15
ATOM     15  C   LIG    1        6.906   0.383   0.406  0.00  0.00    +0.417 C 
ATOM     16  F   LIG    1        6.525   1.384   1.291  0.00  0.00    -0.166 F 
ATOM     17  F   LIG    1        7.976  -0.281   0.956  0.00  0.00    -0.166 F 
ATOM     18  F   LIG    1        7.376   0.926  -0.789  0.00  0.00    -0.166 F 
ENDBRANCH  11  15
ENDBRANCH   7   9
ENDBRANCH   1   7
BRANCH   2  19
ATOM     19  C   LIG    1       -0.890  -0.467   0.049  0.00  0.00    +0.341 C 
ATOM     20  O   LIG    1       -0.464  -1.621   0.158  0.00  0.00    -0.245 OA
BRANCH  19  21
ATOM     21  O   LIG    1       -2.307  -0.365   0.048  0.00  0.00    -0.459 OA
BRANCH  21  22
ATOM     22  C   LIG    1       -3.060  -1.567   0.155  0.00  0.00    +0.260 C 
BRANCH  22  23
ATOM     23  C   LIG    1       -4.556  -1.286   0.074  0.00  0.00    +0.201 C 
BRANCH  23  24
ATOM     24  O   LIG    1       -5.011  -0.475   1.055  0.00  0.00    -0.374 OA
BRANCH  24  25
ATOM     25  C   LIG    1       -6.357  -0.191   1.011  0.00  0.00    +0.187 C 
BRANCH  25  26
ATOM     26  C   LIG    1       -6.707   0.592  -0.272  0.00  0.00    +0.184 C 
BRANCH  26  27
ATOM     27  O   LIG    1       -5.971   1.799  -0.293  0.00  0.00    -0.393 OA
ATOM     28  H   LIG    1       -6.327   2.271  -1.122  0.00  0.00    +0.209 HD
ENDBRANCH  26  27
ENDBRANCH  25  26
ENDBRANCH  24  25
ENDBRANCH  23  24
ENDBRANCH  22  23
ENDBRANCH  21  22
ENDBRANCH  19  21
ENDBRANCH   2  19
TORSDOF 11
