REMARK  Name = molecules/XKFPYPQQHFEXRZ-UHFFFAOYSA-N.pdb
REMARK                            x       y       z     vdW  Elec       q    Type
REMARK                         _______ _______ _______ _____ _____    ______ ____
ROOT
ATOM      1  C   LIG    1        1.485   0.213   0.167  0.00  0.00    +0.279 C 
ATOM      2  O   LIG    1        1.190  -0.739   0.918  0.00  0.00    -0.267 OA
ATOM      3  N   LIG    1        0.443   1.003  -0.370  0.00  0.00    -0.245 N 
ATOM      4  H   LIG    1        0.741   1.810  -1.006  0.00  0.00    +0.169 HD
ENDROOT
BRANCH   1   5
ATOM      5  C   LIG    1        2.878   0.501  -0.152  0.00  0.00    +0.169 A 
ATOM      6  C   LIG    1        3.991  -0.182   0.291  0.00  0.00    +0.080 A 
ATOM      7  C   LIG    1        5.112   0.433  -0.238  0.00  0.00    +0.135 A 
ATOM      8  C   LIG    1        6.527   0.019  -0.019  0.00  0.00    +0.089 C 
ATOM      9  O   LIG    1        4.656   1.429  -0.957  0.00  0.00    -0.359 OA
ATOM     10  N   LIG    1        3.368   1.494  -0.925  0.00  0.00    -0.073 NA
ENDBRANCH   1   5
BRANCH   3  11
ATOM     11  N   LIG    1       -0.895   0.851  -0.162  0.00  0.00    -0.236 NA
ATOM     12  H   LIG    1       -1.193   1.256   0.751  0.00  0.00    +0.145 HD
BRANCH  11  13
ATOM     13  C   LIG    1       -1.416  -0.473  -0.351  0.00  0.00    +0.137 C 
BRANCH  13  14
ATOM     14  C   LIG    1       -2.894  -0.452  -0.118  0.00  0.00    -0.032 A 
ATOM     15  C   LIG    1       -3.365  -0.121   1.134  0.00  0.00    +0.005 A 
ATOM     16  C   LIG    1       -4.727  -0.066   1.392  0.00  0.00    +0.000 A 
ATOM     17  C   LIG    1       -5.622  -0.351   0.372  0.00  0.00    +0.000 A 
ATOM     18  C   LIG    1       -5.155  -0.683  -0.876  0.00  0.00    +0.000 A 
ATOM     19  C   LIG    1       -3.791  -0.735  -1.125  0.00  0.00    +0.005 A 
ENDBRANCH  13  14
ENDBRANCH  11  13
ENDBRANCH   3  11
TORSDOF 4
