REMARK  Name = molecules/XKFZYVWWXHCHIX-UHFFFAOYSA-N.pdb
REMARK                            x       y       z     vdW  Elec       q    Type
REMARK                         _______ _______ _______ _____ _____    ______ ____
ROOT
ATOM      1  C   LIG    1        0.629   0.844   0.622  0.00  0.00    +0.147 A 
ATOM      2  C   LIG    1       -0.714   0.743   0.332  0.00  0.00    +0.098 A 
ATOM      3  I   LIG    1       -1.979   2.276   1.052  0.00  0.00    -0.036 I 
ATOM      4  C   LIG    1       -1.264  -0.290  -0.392  0.00  0.00    +0.147 A 
ATOM      5  C   LIG    1       -0.412  -1.268  -0.844  0.00  0.00    +0.057 A 
ATOM      6  C   LIG    1        0.939  -1.212  -0.580  0.00  0.00    +0.036 A 
ATOM      7  I   LIG    1       -1.189  -2.868  -1.953  0.00  0.00    -0.040 I 
ATOM      8  C   LIG    1        1.472  -0.147   0.161  0.00  0.00    +0.057 A 
ATOM      9  I   LIG    1        3.520  -0.025   0.583  0.00  0.00    -0.040 I 
ENDROOT
BRANCH   1  10
ATOM     10  O   LIG    1        1.128   1.921   1.364  0.00  0.00    -0.505 OA
ATOM     11  H   LIG    1        2.118   1.935   1.541  0.00  0.00    +0.292 HD
ENDBRANCH   1  10
BRANCH   4  12
ATOM     12  O   LIG    1       -2.646  -0.336  -0.655  0.00  0.00    -0.505 OA
ATOM     13  H   LIG    1       -3.216   0.407  -0.298  0.00  0.00    +0.292 HD
ENDBRANCH   4  12
TORSDOF 2
