REMARK  Name = molecules/XKLMZUWKNUAPSZ-FQEVSTJZSA-N.pdb
REMARK                            x       y       z     vdW  Elec       q    Type
REMARK                         _______ _______ _______ _____ _____    ______ ____
ROOT
ATOM      1  N   LIG    1        0.769   0.158  -0.071  0.00  0.00    -0.297 NA
ATOM      2  C   LIG    1        0.024   1.327  -0.468  0.00  0.00    +0.100 C 
ATOM      3  C   LIG    1       -1.438   0.917  -0.522  0.00  0.00    +0.100 C 
ATOM      4  N   LIG    1       -1.582  -0.231  -1.334  0.00  0.00    -0.292 NA
ATOM      5  C   LIG    1       -0.409  -0.703  -2.009  0.00  0.00    +0.100 C 
ATOM      6  C   LIG    1        0.775  -0.850  -1.043  0.00  0.00    +0.100 C 
ENDROOT
BRANCH   1   7
ATOM      7  C   LIG    1        1.709   0.372   0.893  0.00  0.00    +0.119 C 
BRANCH   7   8
ATOM      8  C   LIG    1        2.513  -0.691   1.497  0.00  0.00    +0.166 C 
BRANCH   8   9
ATOM      9  O   LIG    1        3.349  -0.091   2.482  0.00  0.00    -0.387 OA
ATOM     10  H   LIG    1        3.348   0.884   2.390  0.00  0.00    +0.210 HD
ENDBRANCH   8   9
BRANCH   8  11
ATOM     11  C   LIG    1        3.554  -1.349   0.567  0.00  0.00    +0.261 C 
BRANCH  11  12
ATOM     12  O   LIG    1        4.415  -0.524   0.052  0.00  0.00    -0.486 OA
BRANCH  12  13
ATOM     13  C   LIG    1        5.266   0.292  -0.457  0.00  0.00    +0.162 A 
ATOM     14  C   LIG    1        6.663   0.216  -0.263  0.00  0.00    +0.161 A 
ATOM     15  C   LIG    1        7.551   1.091  -0.810  0.00  0.00    +0.049 A 
ATOM     16  C   LIG    1        7.080   2.116  -1.601  0.00  0.00    +0.004 A 
ATOM     17  C   LIG    1        5.721   2.219  -1.810  0.00  0.00    +0.004 A 
ATOM     18  C   LIG    1        4.815   1.356  -1.273  0.00  0.00    +0.049 A 
BRANCH  14  19
ATOM     19  O   LIG    1        7.125  -0.817   0.535  0.00  0.00    -0.491 OA
ATOM     20  C   LIG    1        8.514  -0.988   0.792  0.00  0.00    +0.277 C 
ENDBRANCH  14  19
ENDBRANCH  12  13
ENDBRANCH  11  12
ENDBRANCH   8  11
ENDBRANCH   7   8
ENDBRANCH   1   7
BRANCH   4  21
ATOM     21  C   LIG    1       -2.116  -1.336  -0.574  0.00  0.00    +0.180 C 
BRANCH  21  22
ATOM     22  C   LIG    1       -3.523  -1.187  -0.160  0.00  0.00    +0.231 C 
ATOM     23  O   LIG    1       -4.010  -2.134   0.506  0.00  0.00    -0.274 OA
ATOM     24  N   LIG    1       -4.340  -0.081  -0.453  0.00  0.00    -0.284 N 
ATOM     25  H   LIG    1       -3.946   0.700  -1.018  0.00  0.00    +0.155 HD
BRANCH  24  26
ATOM     26  C   LIG    1       -5.686  -0.067   0.012  0.00  0.00    +0.039 A 
ATOM     27  C   LIG    1       -5.979   0.398   1.267  0.00  0.00    -0.029 A 
ATOM     28  C   LIG    1       -4.895   0.881   2.163  0.00  0.00    +0.045 C 
ATOM     29  C   LIG    1       -7.290   0.415   1.697  0.00  0.00    +0.005 A 
ATOM     30  C   LIG    1       -8.316  -0.025   0.890  0.00  0.00    +0.001 A 
ATOM     31  C   LIG    1       -8.027  -0.493  -0.374  0.00  0.00    +0.005 A 
ATOM     32  C   LIG    1       -6.699  -0.505  -0.795  0.00  0.00    -0.029 A 
ATOM     33  C   LIG    1       -6.326  -0.996  -2.154  0.00  0.00    +0.045 C 
ENDBRANCH  24  26
ENDBRANCH  21  22
ENDBRANCH   4  21
TORSDOF 10
