REMARK  Name = molecules/XLMALTXPSGQGBX-GCJKJVERSA-N.pdb
REMARK                            x       y       z     vdW  Elec       q    Type
REMARK                         _______ _______ _______ _____ _____    ______ ____
ROOT
ATOM      1  C   LIG    1        0.133  -0.560   0.049  0.00  0.00    +0.146 C 
ENDROOT
BRANCH   1   2
ATOM      2  C   LIG    1       -0.497   0.173   1.195  0.00  0.00    -0.004 A 
ATOM      3  C   LIG    1        0.129   0.567   2.328  0.00  0.00    +0.007 A 
ATOM      4  C   LIG    1       -0.539   1.278   3.307  0.00  0.00    +0.000 A 
ATOM      5  C   LIG    1       -1.868   1.601   3.142  0.00  0.00    +0.000 A 
ATOM      6  C   LIG    1       -2.532   1.216   2.008  0.00  0.00    +0.000 A 
ATOM      7  C   LIG    1       -1.822   0.501   1.047  0.00  0.00    +0.007 A 
ENDBRANCH   1   2
BRANCH   1   8
ATOM      8  C   LIG    1        1.610  -0.496   0.099  0.00  0.00    +0.049 C 
ATOM      9  C   LIG    1        2.304  -1.449   1.044  0.00  0.00    +0.013 C 
BRANCH   8  10
ATOM     10  C   LIG    1        2.291   0.823   0.019  0.00  0.00    +0.091 C 
BRANCH  10  11
ATOM     11  N   LIG    1        3.770   0.589   0.120  0.00  0.00    -0.308 NA
ATOM     12  C   LIG    1        4.407   1.907   0.171  0.00  0.00    +0.104 C 
ATOM     13  C   LIG    1        4.224  -0.142  -1.052  0.00  0.00    +0.104 C 
ENDBRANCH  10  11
ENDBRANCH   8  10
ENDBRANCH   1   8
BRANCH   1  14
ATOM     14  C   LIG    1       -0.281  -1.995   0.126  0.00  0.00    +0.088 C 
BRANCH  14  15
ATOM     15  C   LIG    1       -1.693  -2.307   0.018  0.00  0.00    -0.043 A 
ATOM     16  C   LIG    1       -2.522  -2.440   1.089  0.00  0.00    +0.004 A 
ATOM     17  C   LIG    1       -3.853  -2.774   0.901  0.00  0.00    +0.000 A 
ATOM     18  C   LIG    1       -4.343  -2.974  -0.378  0.00  0.00    +0.000 A 
ATOM     19  C   LIG    1       -3.502  -2.839  -1.477  0.00  0.00    +0.000 A 
ATOM     20  C   LIG    1       -2.193  -2.507  -1.259  0.00  0.00    +0.004 A 
ENDBRANCH  14  15
ENDBRANCH   1  14
BRANCH   1  21
ATOM     21  O   LIG    1       -0.422   0.047  -1.084  0.00  0.00    -0.453 OA
BRANCH  21  22
ATOM     22  C   LIG    1       -0.509   1.344  -1.439  0.00  0.00    +0.308 C 
ATOM     23  O   LIG    1       -0.082   2.228  -0.691  0.00  0.00    -0.251 OA
BRANCH  22  24
ATOM     24  C   LIG    1       -1.111   1.821  -2.729  0.00  0.00    +0.117 C 
ATOM     25  C   LIG    1       -1.123   3.331  -2.779  0.00  0.00    +0.015 C 
ENDBRANCH  22  24
ENDBRANCH  21  22
ENDBRANCH   1  21
TORSDOF 9
