REMARK  Name = molecules/XLXSAKCOAKORKW-AQJXLSMYSA-N.pdb
REMARK                            x       y       z     vdW  Elec       q    Type
REMARK                         _______ _______ _______ _____ _____    ______ ____
ROOT
ATOM      1  C   LIG    1       -0.284  -1.027   0.376  0.00  0.00    +0.163 C 
ENDROOT
BRANCH   1   2
ATOM      2  C   LIG    1       -1.280  -0.454   1.283  0.00  0.00    +0.234 C 
ATOM      3  N   LIG    1       -2.449  -1.128   1.780  0.00  0.00    -0.305 N 
ATOM      4  H   LIG    1       -2.582  -2.112   1.472  0.00  0.00    +0.149 HD
ATOM      5  O   LIG    1       -1.074   0.761   1.664  0.00  0.00    -0.274 OA
BRANCH   3   6
ATOM      6  C   LIG    1       -3.375  -0.439   2.660  0.00  0.00    +0.200 C 
BRANCH   6   7
ATOM      7  C   LIG    1       -4.104   0.655   1.936  0.00  0.00    +0.231 C 
ATOM      8  O   LIG    1       -4.862   1.368   2.644  0.00  0.00    -0.274 OA
ATOM      9  N   LIG    1       -3.960   0.857   0.557  0.00  0.00    -0.303 N 
ATOM     10  H   LIG    1       -3.292   0.212   0.034  0.00  0.00    +0.149 HD
BRANCH   9  11
ATOM     11  C   LIG    1       -4.618   1.845  -0.219  0.00  0.00    +0.159 C 
BRANCH  11  12
ATOM     12  C   LIG    1       -6.098   1.593  -0.369  0.00  0.00    +0.234 C 
ATOM     13  O   LIG    1       -6.918   2.428   0.058  0.00  0.00    -0.274 OA
ATOM     14  N   LIG    1       -6.521   0.417  -0.980  0.00  0.00    -0.302 N 
ATOM     15  H   LIG    1       -5.832  -0.350  -1.277  0.00  0.00    +0.150 HD
BRANCH  14  16
ATOM     16  C   LIG    1       -7.898   0.095  -1.238  0.00  0.00    +0.159 C 
BRANCH  16  17
ATOM     17  C   LIG    1       -8.706   0.661  -0.066  0.00  0.00    +0.237 C 
ATOM     18  O   LIG    1       -8.261   0.498   1.058  0.00  0.00    -0.274 OA
ATOM     19  N   LIG    1       -9.912   1.344  -0.317  0.00  0.00    -0.288 N 
ATOM     20  C   LIG    1      -10.809   1.931   0.637  0.00  0.00    +0.162 C 
ATOM     21  C   LIG    1      -11.994   2.465  -0.154  0.00  0.00    +0.033 C 
ATOM     22  C   LIG    1      -11.946   1.729  -1.485  0.00  0.00    +0.021 C 
ATOM     23  C   LIG    1      -10.434   1.593  -1.649  0.00  0.00    +0.109 C 
BRANCH  20  24
ATOM     24  C   LIG    1      -11.287   1.037   1.709  0.00  0.00    +0.234 C 
ATOM     25  N   LIG    1      -12.318   1.489   2.567  0.00  0.00    -0.305 N 
ATOM     26  H   LIG    1      -12.716   2.433   2.440  0.00  0.00    +0.149 HD
ATOM     27  O   LIG    1      -10.799  -0.087   1.851  0.00  0.00    -0.274 OA
BRANCH  25  28
ATOM     28  C   LIG    1      -12.822   0.651   3.620  0.00  0.00    +0.199 C 
BRANCH  28  29
ATOM     29  C   LIG    1      -11.783   0.298   4.602  0.00  0.00    +0.228 C 
ATOM     30  O   LIG    1      -12.046  -0.435   5.579  0.00  0.00    -0.274 OA
ATOM     31  N   LIG    1      -10.433   0.789   4.471  0.00  0.00    -0.328 N 
ATOM     32  H   LIG    1       -9.639   0.121   4.566  0.00  0.00    +0.145 HD
ATOM     33  H   LIG    1      -10.220   1.781   4.280  0.00  0.00    +0.145 HD
ENDBRANCH  28  29
ENDBRANCH  25  28
ENDBRANCH  20  24
ENDBRANCH  16  17
BRANCH  16  34
ATOM     34  C   LIG    1       -8.106  -1.364  -1.357  0.00  0.00    +0.035 C 
BRANCH  34  35
ATOM     35  C   LIG    1       -9.514  -1.743  -1.620  0.00  0.00    +0.039 C 
BRANCH  35  36
ATOM     36  C   LIG    1       -9.613  -3.285  -1.685  0.00  0.00    +0.196 C 
BRANCH  36  37
ATOM     37  N   LIG    1       -9.190  -3.814  -0.428  0.00  0.00    -0.276 N 
ATOM     38  H   LIG    1       -8.300  -4.365  -0.362  0.00  0.00    +0.258 HD
BRANCH  37  39
ATOM     39  C   LIG    1      -10.005  -3.581   0.732  0.00  0.00    +0.376 C 
ATOM     40  N   LIG    1      -11.327  -4.071   0.715  0.00  0.00    -0.289 N 
ATOM     41  H   LIG    1      -12.185  -3.505   0.719  0.00  0.00    +0.255 HD
ATOM     42  H   LIG    1      -11.471  -5.125   0.706  0.00  0.00    +0.255 HD
BRANCH  39  43
ATOM     43  N   LIG    1       -9.561  -2.948   1.752  0.00  0.00    -0.130 NA
ATOM     44  H   LIG    1      -10.163  -2.790   2.574  0.00  0.00    +0.306 HD
ENDBRANCH  39  43
ENDBRANCH  37  39
ENDBRANCH  36  37
ENDBRANCH  35  36
ENDBRANCH  34  35
ENDBRANCH  16  34
ENDBRANCH  14  16
ENDBRANCH  11  12
BRANCH  11  45
ATOM     45  C   LIG    1       -3.955   2.513  -1.323  0.00  0.00    +0.034 C 
BRANCH  45  46
ATOM     46  C   LIG    1       -3.446   1.781  -2.499  0.00  0.00    -0.015 C 
ATOM     47  C   LIG    1       -2.217   0.937  -2.224  0.00  0.00    +0.007 C 
ATOM     48  C   LIG    1       -4.442   1.028  -3.318  0.00  0.00    +0.007 C 
ENDBRANCH  45  46
ENDBRANCH  11  45
ENDBRANCH   9  11
ENDBRANCH   6   7
ENDBRANCH   3   6
ENDBRANCH   1   2
BRANCH   1  50
ATOM     49  C   LIG    1        2.098  -0.300   0.079  0.00  0.00    +0.236 C 
ATOM     50  N   LIG    1        1.044  -0.819   0.834  0.00  0.00    -0.302 N 
ATOM     51  H   LIG    1        1.216  -1.105   1.846  0.00  0.00    +0.150 HD
ATOM     52  O   LIG    1        1.957   0.047  -1.147  0.00  0.00    -0.274 OA
BRANCH  49  53
ATOM     53  CA  LIG    1        3.409  -0.138   0.673  0.00  0.00    +0.184 C 
BRANCH  53  56
ATOM     54  C   LIG    1        5.794  -0.152  -0.037  0.00  0.00    +0.234 C 
ATOM     55  O   LIG    1        6.002  -0.821   1.008  0.00  0.00    -0.274 OA
ATOM     56  N   LIG    1        4.455   0.246  -0.294  0.00  0.00    -0.301 N 
ATOM     57  H   LIG    1        4.185   0.788  -1.109  0.00  0.00    +0.150 HD
BRANCH  54  58
ATOM     58  CA  LIG    1        6.907   0.189  -0.919  0.00  0.00    +0.163 C 
BRANCH  58  59
ATOM     59  N   LIG    1        8.143   0.269  -0.126  0.00  0.00    -0.302 N 
ATOM     60  H   LIG    1        8.555  -0.590   0.228  0.00  0.00    +0.150 HD
ATOM     61  C   LIG    1        8.744   1.553   0.122  0.00  0.00    +0.234 C 
ATOM     62  O   LIG    1        8.101   2.535  -0.419  0.00  0.00    -0.274 OA
BRANCH  61  63
ATOM     63  CA  LIG    1        9.936   1.743   0.889  0.00  0.00    +0.165 C 
BRANCH  63  64
ATOM     64  N   LIG    1       10.332   3.179   0.852  0.00  0.00    -0.302 N 
ATOM     65  C   LIG    1       11.675   3.589   0.928  0.00  0.00    +0.234 C 
ATOM     66  O   LIG    1       12.569   2.714   1.028  0.00  0.00    -0.274 OA
ATOM     67  H   LIG    1        9.538   3.844   0.766  0.00  0.00    +0.150 HD
BRANCH  65  68
ATOM     68  CA  LIG    1       11.949   5.042   0.894  0.00  0.00    +0.159 C 
ATOM     69  N   LIG    1       13.364   5.353   1.114  0.00  0.00    -0.304 N 
ATOM     70  H   LIG    1       14.022   4.732   1.599  0.00  0.00    +0.149 HD
ATOM     71  C   LIG    1       13.617   6.625   0.560  0.00  0.00    +0.214 C 
ATOM     72  O   LIG    1       14.524   7.446   0.950  0.00  0.00    -0.276 OA
ATOM     73  C   LIG    1       12.652   6.843  -0.542  0.00  0.00    +0.098 C 
ATOM     74  C   LIG    1       11.678   5.682  -0.459  0.00  0.00    +0.041 C 
ENDBRANCH  65  68
ENDBRANCH  63  64
BRANCH  63  75
ATOM     75  CB  LIG    1        9.780   1.396   2.348  0.00  0.00    +0.088 C 
BRANCH  75  76
ATOM     76  CG  LIG    1        9.460   0.024   2.707  0.00  0.00    +0.061 A 
ATOM     77  ND1 LIG    1        8.275  -0.596   2.983  0.00  0.00    -0.241 NA
ATOM     78  CE1 LIG    1        8.482  -1.876   3.333  0.00  0.00    +0.196 A 
ATOM     79  NE2 LIG    1        9.796  -2.127   3.296  0.00  0.00    -0.351 N 
ATOM     80  HE2 LIG    1       10.249  -3.054   3.522  0.00  0.00    +0.166 HD
ATOM     81  CD2 LIG    1       10.411  -1.003   2.923  0.00  0.00    +0.107 A 
ENDBRANCH  75  76
ENDBRANCH  63  75
ENDBRANCH  61  63
ENDBRANCH  58  59
BRANCH  58  82
ATOM     82  CB  LIG    1        7.027  -0.730  -2.095  0.00  0.00    +0.069 C 
BRANCH  82  83
ATOM     83  CG  LIG    1        7.386  -2.132  -1.735  0.00  0.00    -0.020 A 
ATOM     84  CD1 LIG    1        6.473  -3.114  -1.454  0.00  0.00    +0.087 A 
ATOM     85  NE1 LIG    1        7.161  -4.208  -1.110  0.00  0.00    -0.360 N 
ATOM     86  HE1 LIG    1        6.746  -5.136  -0.834  0.00  0.00    +0.165 HD
ATOM     87  CE2 LIG    1        8.496  -3.967  -1.161  0.00  0.00    +0.047 A 
ATOM     88  CZ2 LIG    1        9.600  -4.754  -0.918  0.00  0.00    +0.026 A 
ATOM     89  CH2 LIG    1       10.873  -4.244  -1.067  0.00  0.00    +0.002 A 
ATOM     90  CZ3 LIG    1       10.998  -2.926  -1.464  0.00  0.00    +0.001 A 
ATOM     91  CE3 LIG    1        9.932  -2.123  -1.712  0.00  0.00    +0.010 A 
ATOM     92  CD2 LIG    1        8.643  -2.660  -1.555  0.00  0.00    +0.003 A 
ENDBRANCH  82  83
ENDBRANCH  58  82
ENDBRANCH  54  58
ENDBRANCH  53  56
BRANCH  53  93
ATOM     93  C   LIG    1        3.331   1.006   1.707  0.00  0.00    +0.187 C 
BRANCH  93  94
ATOM     94  O   LIG    1        2.352   0.671   2.620  0.00  0.00    -0.393 OA
ATOM     95  H   LIG    1        1.639   1.397   2.637  0.00  0.00    +0.209 HD
ENDBRANCH  93  94
ENDBRANCH  53  93
ENDBRANCH  49  53
ENDBRANCH   1  50
BRANCH   1  96
ATOM     96  C   LIG    1       -0.620  -2.429  -0.062  0.00  0.00    +0.067 C 
BRANCH  96  97
ATOM     97  C   LIG    1        0.234  -2.825  -1.222  0.00  0.00    -0.045 A 
ATOM     98  C   LIG    1        1.420  -3.466  -0.997  0.00  0.00    +0.007 A 
ATOM     99  C   LIG    1        2.254  -3.816  -2.062  0.00  0.00    +0.045 A 
ATOM    100  C   LIG    1        1.913  -3.530  -3.360  0.00  0.00    +0.117 A 
ATOM    101  C   LIG    1        0.714  -2.884  -3.582  0.00  0.00    +0.045 A 
ATOM    102  C   LIG    1       -0.124  -2.530  -2.539  0.00  0.00    +0.007 A 
BRANCH 100 103
ATOM    103  O   LIG    1        2.765  -3.885  -4.421  0.00  0.00    -0.507 OA
ATOM    104  H   LIG    1        3.486  -3.211  -4.734  0.00  0.00    +0.292 HD
ENDBRANCH 100 103
ENDBRANCH  96  97
ENDBRANCH   1  96
TORSDOF 35
