REMARK  Name = molecules/XMAYWYJOQHXEEK-BVAGGSTKSA-N.pdb
REMARK                            x       y       z     vdW  Elec       q    Type
REMARK                         _______ _______ _______ _____ _____    ______ ____
ROOT
ATOM      1  C   LIG    1       -4.332   0.123   0.261  0.00  0.00    +0.217 C 
ATOM      2  O   LIG    1       -3.494   1.152   0.817  0.00  0.00    -0.334 OA
ATOM      3  C   LIG    1       -2.281   1.009   0.138  0.00  0.00    +0.185 C 
ATOM      4  C   LIG    1       -2.642   0.406  -1.193  0.00  0.00    +0.198 C 
ATOM      5  O   LIG    1       -4.006   0.251  -1.132  0.00  0.00    -0.341 OA
ENDROOT
BRANCH   1   6
ATOM      6  C   LIG    1       -5.714   0.569   0.428  0.00  0.00    +0.031 A 
ATOM      7  C   LIG    1       -6.637   0.015   1.264  0.00  0.00    +0.012 A 
ATOM      8  C   LIG    1       -7.920   0.559   1.426  0.00  0.00    +0.020 A 
ATOM      9  C   LIG    1       -8.276   1.685   0.731  0.00  0.00    +0.042 A 
ATOM     10 CL   LIG    1       -9.888   2.347   0.951  0.00  0.00    -0.083 Cl
ATOM     11  C   LIG    1       -7.374   2.267  -0.115  0.00  0.00    +0.040 A 
ATOM     12  C   LIG    1       -6.122   1.717  -0.260  0.00  0.00    +0.051 A 
ATOM     13 CL   LIG    1       -4.973   2.464  -1.372  0.00  0.00    -0.083 Cl
ENDBRANCH   1   6
BRANCH   1  14
ATOM     14  C   LIG    1       -3.869  -1.173   0.716  0.00  0.00    +0.193 C 
BRANCH  14  15
ATOM     15  N   LIG    1       -4.484  -2.372   0.248  0.00  0.00    -0.331 N 
ATOM     16  C   LIG    1       -5.436  -3.124   0.751  0.00  0.00    +0.107 A 
ATOM     17  C   LIG    1       -5.707  -4.190  -0.108  0.00  0.00    +0.130 A 
ATOM     18  N   LIG    1       -4.861  -4.008  -1.128  0.00  0.00    -0.244 NA
ATOM     19  C   LIG    1       -4.119  -2.928  -0.939  0.00  0.00    +0.199 A 
ENDBRANCH  14  15
ENDBRANCH   1  14
BRANCH   3  20
ATOM     20  C   LIG    1       -1.589   2.344  -0.005  0.00  0.00    +0.263 C 
BRANCH  20  21
ATOM     21  O   LIG    1       -0.399   2.302  -0.668  0.00  0.00    -0.489 OA
BRANCH  21  22
ATOM     22  C   LIG    1        0.798   1.750  -0.523  0.00  0.00    +0.121 A 
ATOM     23  C   LIG    1        1.199   0.966   0.515  0.00  0.00    +0.047 A 
ATOM     24  C   LIG    1        2.501   0.419   0.580  0.00  0.00    +0.027 A 
ATOM     25  C   LIG    1        3.408   0.657  -0.398  0.00  0.00    +0.030 A 
ATOM     26  C   LIG    1        3.019   1.452  -1.459  0.00  0.00    +0.027 A 
ATOM     27  C   LIG    1        1.757   1.981  -1.521  0.00  0.00    +0.047 A 
BRANCH  25  28
ATOM     28  N   LIG    1        4.708   0.110  -0.358  0.00  0.00    -0.327 N 
ATOM     29  C   LIG    1        5.058  -0.996   0.507  0.00  0.00    +0.124 C 
ATOM     30  C   LIG    1        6.222  -0.468   1.361  0.00  0.00    +0.126 C 
ATOM     31  N   LIG    1        7.302  -0.270   0.428  0.00  0.00    -0.299 N 
ATOM     32  C   LIG    1        8.549  -0.908   0.624  0.00  0.00    +0.213 C 
ATOM     33  C   LIG    1        8.752  -1.788   1.793  0.00  0.00    +0.109 C 
ATOM     34  O   LIG    1        9.515  -0.758  -0.170  0.00  0.00    -0.276 OA
ATOM     35  C   LIG    1        7.114   0.581  -0.706  0.00  0.00    +0.126 C 
ATOM     36  C   LIG    1        5.727   0.676  -1.235  0.00  0.00    +0.124 C 
ENDBRANCH  25  28
ENDBRANCH  21  22
ENDBRANCH  20  21
ENDBRANCH   3  20
TORSDOF 7
