REMARK  Name = molecules/XMQVYNAURODYCQ-SLFBBCNNSA-N.pdb
REMARK                            x       y       z     vdW  Elec       q    Type
REMARK                         _______ _______ _______ _____ _____    ______ ____
ROOT
ATOM      1  CA  LIG    1       -0.906  -0.727  -0.571  0.00  0.00    +0.190 C 
ENDROOT
BRANCH   1   2
ATOM      2  C   LIG    1       -0.498  -1.276   0.779  0.00  0.00    -0.018 A 
ATOM      3  C   LIG    1       -0.322  -0.446   1.880  0.00  0.00    +0.006 A 
ATOM      4  C   LIG    1       -0.022  -1.017   3.088  0.00  0.00    +0.000 A 
ATOM      5  C   LIG    1        0.116  -2.375   3.263  0.00  0.00    +0.000 A 
ATOM      6  C   LIG    1       -0.058  -3.208   2.165  0.00  0.00    +0.000 A 
ATOM      7  C   LIG    1       -0.362  -2.624   0.947  0.00  0.00    +0.006 A 
ENDBRANCH   1   2
BRANCH   1   9
ATOM      8  N   LIG    1        1.429  -0.165  -1.498  0.00  0.00    -0.300 N 
ATOM      9  C   LIG    1        0.108   0.167  -1.113  0.00  0.00    +0.239 C 
ATOM     10  O   LIG    1       -0.227   1.405  -1.256  0.00  0.00    -0.273 OA
ATOM     11  H   LIG    1        1.829  -1.134  -1.447  0.00  0.00    +0.150 HD
BRANCH   8  12
ATOM     12  CA  LIG    1        2.294   0.879  -2.007  0.00  0.00    +0.190 C 
ATOM     13  C   LIG    1        3.547   1.097  -1.185  0.00  0.00    +0.165 C 
ATOM     14  S   LIG    1        3.831  -0.099   0.158  0.00  0.00    -0.127 S 
ATOM     15  C   LIG    1        5.430  -0.773  -0.463  0.00  0.00    +0.042 C 
ATOM     16  C   LIG    1        6.474  -0.535   0.610  0.00  0.00    +0.025 C 
ATOM     17  C   LIG    1        5.321  -2.229  -0.823  0.00  0.00    +0.025 C 
ATOM     18  CA  LIG    1        5.639   0.100  -1.687  0.00  0.00    +0.201 C 
ATOM     19  N   LIG    1        4.348   0.437  -2.206  0.00  0.00    -0.271 N 
ATOM     20  C   LIG    1        3.232   0.576  -3.074  0.00  0.00    +0.240 C 
ATOM     21  O   LIG    1        3.090   0.475  -4.355  0.00  0.00    -0.273 OA
BRANCH  18  22
ATOM     22  C   LIG    1        6.397   1.323  -1.411  0.00  0.00    +0.327 C 
ATOM     23  O   LIG    1        5.908   2.445  -1.756  0.00  0.00    -0.249 OA
BRANCH  22  24
ATOM     24  OXT LIG    1        7.637   1.329  -0.774  0.00  0.00    -0.479 OA
ATOM     25  HXT LIG    1        7.993   2.204  -0.403  0.00  0.00    +0.295 HD
ENDBRANCH  22  24
ENDBRANCH  18  22
ENDBRANCH   8  12
ENDBRANCH   1   9
BRANCH   1  26
ATOM     26  N   LIG    1       -2.180   0.004  -0.340  0.00  0.00    -0.296 N 
ATOM     27  H   LIG    1       -2.129   1.020  -0.238  0.00  0.00    +0.150 HD
ATOM     28  C   LIG    1       -3.388  -0.730  -0.278  0.00  0.00    +0.250 C 
ATOM     29  O   LIG    1       -3.343  -1.991  -0.428  0.00  0.00    -0.270 OA
BRANCH  28  30
ATOM     30  C   LIG    1       -4.684  -0.155  -0.044  0.00  0.00    +0.098 A 
ATOM     31  C   LIG    1       -5.809  -0.952   0.145  0.00  0.00    +0.128 A 
ATOM     32  N   LIG    1       -7.032  -0.530   0.447  0.00  0.00    -0.252 NA
ATOM     33  C   LIG    1       -7.276   0.787   0.601  0.00  0.00    +0.093 A 
ATOM     34  C   LIG    1       -8.511   1.236   0.933  0.00  0.00    +0.031 A 
ATOM     35  C   LIG    1       -8.732   2.608   1.110  0.00  0.00    +0.022 A 
ATOM     36  C   LIG    1       -7.647   3.471   0.931  0.00  0.00    +0.111 A 
ATOM     37  N   LIG    1       -6.471   2.962   0.605  0.00  0.00    -0.250 NA
ATOM     38  C   LIG    1       -6.190   1.654   0.420  0.00  0.00    +0.131 A 
ATOM     39  C   LIG    1       -4.923   1.215   0.103  0.00  0.00    +0.158 A 
BRANCH  39  40
ATOM     40  O   LIG    1       -3.915   2.129  -0.066  0.00  0.00    -0.504 OA
ATOM     41  H   LIG    1       -3.983   3.119   0.017  0.00  0.00    +0.292 HD
ENDBRANCH  39  40
ENDBRANCH  28  30
ENDBRANCH   1  26
TORSDOF 8
