REMARK  Name = molecules/XNEFYCZVKIDDMS-UHFFFAOYSA-N.pdb
REMARK                            x       y       z     vdW  Elec       q    Type
REMARK                         _______ _______ _______ _____ _____    ______ ____
ROOT
ATOM      1  C   LIG    1        0.202   0.020  -1.287  0.00  0.00    +0.171 C 
ATOM      2  O   LIG    1        0.498  -0.268  -2.480  0.00  0.00    -0.292 OA
ENDROOT
BRANCH   1   3
ATOM      3  C   LIG    1       -1.210  -0.094  -0.901  0.00  0.00    +0.018 A 
ATOM      4  C   LIG    1       -1.583  -0.054   0.430  0.00  0.00    +0.011 A 
ATOM      5  C   LIG    1       -2.916  -0.044   0.766  0.00  0.00    +0.005 A 
ATOM      6  C   LIG    1       -3.931  -0.075  -0.198  0.00  0.00    -0.042 A 
ATOM      7  C   LIG    1       -3.514  -0.123  -1.522  0.00  0.00    +0.005 A 
ATOM      8  C   LIG    1       -2.174  -0.131  -1.861  0.00  0.00    +0.011 A 
BRANCH   6   9
ATOM      9  C   LIG    1       -5.338  -0.013   0.123  0.00  0.00    -0.013 C 
ATOM     10  C   LIG    1       -5.607  -0.004   1.612  0.00  0.00    +0.015 C 
ATOM     11  C   LIG    1       -5.840   1.367  -0.365  0.00  0.00    +0.015 C 
ATOM     12  C   LIG    1       -6.134  -1.078  -0.542  0.00  0.00    +0.015 C 
ENDBRANCH   6   9
ENDBRANCH   1   3
BRANCH   1  13
ATOM     13  C   LIG    1        1.259   0.446  -0.417  0.00  0.00    +0.159 C 
BRANCH  13  14
ATOM     14  C   LIG    1        2.281  -0.550  -0.093  0.00  0.00    +0.171 C 
ATOM     15  O   LIG    1        1.901  -1.675   0.370  0.00  0.00    -0.292 OA
BRANCH  14  16
ATOM     16  C   LIG    1        3.715  -0.337  -0.246  0.00  0.00    +0.018 A 
ATOM     17  C   LIG    1        4.564  -1.105   0.571  0.00  0.00    +0.015 A 
ATOM     18  C   LIG    1        5.916  -0.745   0.529  0.00  0.00    +0.046 A 
ATOM     19  C   LIG    1        6.433   0.249  -0.215  0.00  0.00    +0.120 A 
ATOM     20  C   LIG    1        5.557   0.993  -1.026  0.00  0.00    +0.046 A 
ATOM     21  C   LIG    1        4.228   0.664  -1.003  0.00  0.00    +0.015 A 
BRANCH  19  22
ATOM     22  O   LIG    1        7.780   0.585  -0.232  0.00  0.00    -0.495 OA
ATOM     23  C   LIG    1        8.636  -0.126   0.659  0.00  0.00    +0.277 C 
ENDBRANCH  19  22
ENDBRANCH  14  16
ENDBRANCH  13  14
ENDBRANCH   1  13
TORSDOF 6
