REMARK  Name = molecules/XNKCCCKFOQNXKV-ZRSCBOBOSA-N.pdb
REMARK                            x       y       z     vdW  Elec       q    Type
REMARK                         _______ _______ _______ _____ _____    ______ ____
ROOT
ATOM      1  C   LIG    1       -5.479   1.105   0.615  0.00  0.00    +0.095 C 
ATOM      2  C   LIG    1       -5.658   0.002   1.581  0.00  0.00    +0.070 C 
ATOM      3  C   LIG    1       -6.465   0.500   2.756  0.00  0.00    +0.033 C 
ATOM      4  C   LIG    1       -7.037   1.866   2.573  0.00  0.00    +0.086 C 
ATOM      5  N   LIG    1       -7.600   2.063   1.280  0.00  0.00    -0.293 NA
ATOM      6  C   LIG    1       -4.457  -0.774   2.002  0.00  0.00    +0.216 C 
ATOM      7  O   LIG    1       -5.000  -2.124   2.232  0.00  0.00    -0.481 OA
ATOM      8  C   LIG    1       -5.987  -2.293   1.255  0.00  0.00    +0.166 A 
ATOM      9  C   LIG    1       -6.553  -3.419   0.702  0.00  0.00    +0.159 A 
ATOM     10  C   LIG    1       -7.531  -3.220  -0.282  0.00  0.00    +0.049 A 
ATOM     11  C   LIG    1       -7.921  -1.945  -0.690  0.00  0.00    +0.008 A 
ATOM     12  C   LIG    1       -7.343  -0.834  -0.124  0.00  0.00    -0.038 A 
ATOM     13  C   LIG    1       -7.685   0.538  -0.551  0.00  0.00    +0.057 C 
ATOM     14  C   LIG    1       -3.367  -0.898   0.992  0.00  0.00    +0.160 C 
ATOM     15  C   LIG    1       -3.272   0.296   0.059  0.00  0.00    +0.038 C 
ATOM     16  C   LIG    1       -6.399  -1.060   0.829  0.00  0.00    +0.014 A 
ATOM     17  C   LIG    1       -6.850   1.572   0.177  0.00  0.00    +0.094 C 
ATOM     18  C   LIG    1       -4.638   0.625  -0.530  0.00  0.00    +0.040 C 
ENDROOT
BRANCH   1  19
ATOM     19  O   LIG    1       -4.843   2.228   1.147  0.00  0.00    -0.386 OA
ATOM     20  H   LIG    1       -4.367   2.710   0.447  0.00  0.00    +0.210 HD
ENDBRANCH   1  19
BRANCH   9  21
ATOM     21  O   LIG    1       -6.199  -4.700   1.072  0.00  0.00    -0.503 OA
ATOM     22  H   LIG    1       -6.647  -5.487   0.632  0.00  0.00    +0.292 HD
ENDBRANCH   9  21
BRANCH   5  23
ATOM     23  C   LIG    1       -8.203   3.346   1.116  0.00  0.00    +0.111 C 
BRANCH  23  24
ATOM     24  C   LIG    1       -9.284   3.241   0.100  0.00  0.00    -0.019 C 
ATOM     25  C   LIG    1       -9.262   3.953  -1.022  0.00  0.00    +0.005 C 
ENDBRANCH  23  24
ENDBRANCH   5  23
BRANCH  14  26
ATOM     26  O   LIG    1       -3.652  -1.990   0.199  0.00  0.00    -0.371 OA
BRANCH  26  27
ATOM     27  C   LIG    1       -2.738  -2.995   0.159  0.00  0.00    +0.188 C 
BRANCH  27  28
ATOM     28  C   LIG    1       -1.393  -2.683  -0.408  0.00  0.00    +0.188 C 
BRANCH  28  29
ATOM     29  O   LIG    1       -0.667  -1.719   0.202  0.00  0.00    -0.375 OA
BRANCH  29  30
ATOM     30  C   LIG    1        0.580  -1.429  -0.348  0.00  0.00    +0.188 C 
BRANCH  30  31
ATOM     31  C   LIG    1        1.545  -2.555  -0.354  0.00  0.00    +0.188 C 
BRANCH  31  32
ATOM     32  O   LIG    1        2.738  -2.314  -0.857  0.00  0.00    -0.375 OA
BRANCH  32  33
ATOM     33  C   LIG    1        3.163  -2.045  -2.056  0.00  0.00    +0.188 C 
BRANCH  33  34
ATOM     34  C   LIG    1        2.674  -0.850  -2.793  0.00  0.00    +0.188 C 
BRANCH  34  35
ATOM     35  O   LIG    1        2.911   0.328  -2.152  0.00  0.00    -0.375 OA
BRANCH  35  36
ATOM     36  C   LIG    1        4.222   0.599  -1.859  0.00  0.00    +0.188 C 
BRANCH  36  37
ATOM     37  C   LIG    1        5.089   0.667  -3.073  0.00  0.00    +0.188 C 
BRANCH  37  38
ATOM     38  O   LIG    1        6.422   0.950  -2.821  0.00  0.00    -0.375 OA
BRANCH  38  39
ATOM     39  C   LIG    1        7.027   0.017  -2.026  0.00  0.00    +0.188 C 
BRANCH  39  40
ATOM     40  C   LIG    1        8.506   0.380  -1.817  0.00  0.00    +0.188 C 
BRANCH  40  41
ATOM     41  O   LIG    1        8.641   1.608  -1.216  0.00  0.00    -0.375 OA
BRANCH  41  42
ATOM     42  C   LIG    1        8.066   1.743   0.013  0.00  0.00    +0.188 C 
BRANCH  42  43
ATOM     43  C   LIG    1        8.607   0.881   1.095  0.00  0.00    +0.188 C 
BRANCH  43  44
ATOM     44  O   LIG    1        9.912   1.045   1.423  0.00  0.00    -0.375 OA
BRANCH  44  45
ATOM     45  C   LIG    1       10.831   0.818   0.477  0.00  0.00    +0.188 C 
BRANCH  45  46
ATOM     46  C   LIG    1       12.248   1.011   0.998  0.00  0.00    +0.187 C 
BRANCH  46  47
ATOM     47  O   LIG    1       12.605   0.202   2.019  0.00  0.00    -0.381 OA
ATOM     48  C   LIG    1       11.865   0.306   3.160  0.00  0.00    +0.194 C 
ENDBRANCH  46  47
ENDBRANCH  45  46
ENDBRANCH  44  45
ENDBRANCH  43  44
ENDBRANCH  42  43
ENDBRANCH  41  42
ENDBRANCH  40  41
ENDBRANCH  39  40
ENDBRANCH  38  39
ENDBRANCH  37  38
ENDBRANCH  36  37
ENDBRANCH  35  36
ENDBRANCH  34  35
ENDBRANCH  33  34
ENDBRANCH  32  33
ENDBRANCH  31  32
ENDBRANCH  30  31
ENDBRANCH  29  30
ENDBRANCH  28  29
ENDBRANCH  27  28
ENDBRANCH  26  27
ENDBRANCH  14  26
TORSDOF 26
