REMARK  Name = molecules/XNMYNYSCEJBRPZ-UHFFFAOYSA-N.pdb
REMARK                            x       y       z     vdW  Elec       q    Type
REMARK                         _______ _______ _______ _____ _____    ______ ____
ROOT
ATOM      1  C   LIG    1        0.393   0.625  -0.438  0.00  0.00    +0.223 A 
ATOM      2  C   LIG    1        0.181   1.946  -0.105  0.00  0.00    +0.044 A 
ATOM      3  C   LIG    1        1.216   2.842   0.069  0.00  0.00    +0.014 A 
ATOM      4  C   LIG    1        0.985   4.167   0.403  0.00  0.00    +0.001 A 
ATOM      5  C   LIG    1       -0.321   4.596   0.565  0.00  0.00    +0.001 A 
ATOM      6  C   LIG    1       -1.338   3.683   0.385  0.00  0.00    +0.009 A 
ATOM      7  C   LIG    1       -1.110   2.359   0.052  0.00  0.00    -0.011 A 
ATOM      8  C   LIG    1       -2.127   1.447  -0.128  0.00  0.00    +0.032 A 
ATOM      9  C   LIG    1       -1.889   0.130  -0.461  0.00  0.00    +0.046 A 
ATOM     10  N   LIG    1       -0.608  -0.253  -0.610  0.00  0.00    -0.217 NA
ENDROOT
BRANCH   1  11
ATOM     11  O   LIG    1        1.691   0.199  -0.598  0.00  0.00    -0.475 OA
BRANCH  11  12
ATOM     12  C   LIG    1        2.069  -1.118  -0.936  0.00  0.00    +0.246 C 
BRANCH  12  13
ATOM     13  C   LIG    1        3.564  -1.217  -1.031  0.00  0.00    +0.125 C 
BRANCH  13  14
ATOM     14  N   LIG    1        4.267  -0.890   0.169  0.00  0.00    -0.305 NA
ATOM     15  C   LIG    1        4.083  -1.823   1.240  0.00  0.00    +0.104 C 
ATOM     16  C   LIG    1        5.661  -0.725  -0.101  0.00  0.00    +0.104 C 
ENDBRANCH  13  14
ENDBRANCH  12  13
ENDBRANCH  11  12
ENDBRANCH   1  11
BRANCH   9  17
ATOM     17  C   LIG    1       -3.034  -0.796  -0.644  0.00  0.00    +0.055 C 
BRANCH  17  18
ATOM     18  C   LIG    1       -3.332  -1.434   0.690  0.00  0.00    +0.006 C 
BRANCH  18  19
ATOM     19  C   LIG    1       -4.511  -2.382   0.477  0.00  0.00    -0.003 C 
ATOM     20  C   LIG    1       -5.674  -1.566  -0.013  0.00  0.00    +0.004 C 
ENDBRANCH  18  19
ENDBRANCH  17  18
ENDBRANCH   9  17
TORSDOF 7
