REMARK  Name = molecules/XOVJAYNMQDTIJD-MRVPVSSYSA-N.pdb
REMARK                            x       y       z     vdW  Elec       q    Type
REMARK                         _______ _______ _______ _____ _____    ______ ____
ROOT
ATOM      1  C   LIG    1        0.082   0.118  -0.318  0.00  0.00    +0.133 C 
ATOM      2  C   LIG    1        0.409  -0.074   1.082  0.00  0.00    +0.236 C 
ATOM      3  O   LIG    1       -0.418  -0.181   2.029  0.00  0.00    -0.274 OA
ATOM      4  N   LIG    1        1.769  -0.157   1.481  0.00  0.00    -0.239 N 
ATOM      5  H   LIG    1        2.053  -0.132   2.505  0.00  0.00    +0.159 HD
ATOM      6  C   LIG    1        2.851  -0.278   0.582  0.00  0.00    +0.312 C 
ATOM      7  O   LIG    1        4.057  -0.351   0.951  0.00  0.00    -0.252 OA
ATOM      8  N   LIG    1        2.565  -0.319  -0.796  0.00  0.00    -0.239 N 
ATOM      9  H   LIG    1        3.336  -0.409  -1.510  0.00  0.00    +0.159 HD
ATOM     10  C   LIG    1        1.225  -0.238  -1.190  0.00  0.00    +0.236 C 
ATOM     11  O   LIG    1        0.979  -0.498  -2.418  0.00  0.00    -0.274 OA
ENDROOT
BRANCH   1  12
ATOM     12  C   LIG    1       -1.126  -0.581  -0.832  0.00  0.00    +0.036 C 
ATOM     13  C   LIG    1       -2.395  -0.216  -0.147  0.00  0.00    -0.026 C 
ATOM     14  C   LIG    1       -2.919  -1.233   0.505  0.00  0.00    -0.031 C 
ATOM     15  C   LIG    1       -2.047  -2.409   0.328  0.00  0.00    +0.027 C 
ATOM     16  C   LIG    1       -1.157  -2.046  -0.800  0.00  0.00    +0.013 C 
ENDBRANCH   1  12
BRANCH   1  17
ATOM     17  C   LIG    1       -0.131   1.631  -0.487  0.00  0.00    +0.052 C 
BRANCH  17  18
ATOM     18  C   LIG    1        1.083   2.385  -0.131  0.00  0.00    -0.033 C 
ATOM     19  C   LIG    1        1.056   3.266   0.834  0.00  0.00    +0.004 C 
ENDBRANCH  17  18
ENDBRANCH   1  17
TORSDOF 3
