REMARK  Name = molecules/XPOQHMRABVBWPR-ZDUSSCGKSA-N.pdb
REMARK                            x       y       z     vdW  Elec       q    Type
REMARK                         _______ _______ _______ _____ _____    ______ ____
ROOT
ATOM      1  C   LIG    1        0.305  -1.061  -0.463  0.00  0.00    +0.296 C 
ATOM      2  O   LIG    1        0.241  -2.155   0.403  0.00  0.00    -0.417 OA
ATOM      3  C   LIG    1        1.132  -2.396   1.427  0.00  0.00    +0.407 C 
ATOM      4  O   LIG    1        1.023  -3.420   2.158  0.00  0.00    -0.226 OA
ATOM      5  N   LIG    1        2.180  -1.480   1.658  0.00  0.00    -0.251 N 
ATOM      6  H   LIG    1        2.876  -1.624   2.423  0.00  0.00    +0.158 HD
ATOM      7  C   LIG    1        2.299  -0.335   0.838  0.00  0.00    +0.045 A 
ATOM      8  C   LIG    1        3.341   0.572   1.089  0.00  0.00    +0.025 A 
ATOM      9  C   LIG    1        3.437   1.687   0.288  0.00  0.00    +0.022 A 
ATOM     10  C   LIG    1        2.550   1.923  -0.730  0.00  0.00    +0.042 A 
ATOM     11  C   LIG    1        1.538   1.014  -0.952  0.00  0.00    +0.030 A 
ATOM     12 CL   LIG    1        2.731   3.367  -1.713  0.00  0.00    -0.084 Cl
ATOM     13  C   LIG    1        1.408  -0.121  -0.168  0.00  0.00    +0.040 A 
ENDROOT
BRANCH   1  14
ATOM     14  C   LIG    1        0.438  -1.627  -1.870  0.00  0.00    +0.446 C 
ATOM     15  F   LIG    1        1.639  -2.284  -1.941  0.00  0.00    -0.165 F 
ATOM     16  F   LIG    1       -0.549  -2.607  -2.035  0.00  0.00    -0.165 F 
ATOM     17  F   LIG    1        0.307  -0.696  -2.853  0.00  0.00    -0.165 F 
ENDBRANCH   1  14
BRANCH   1  18
ATOM     18  C   LIG    1       -0.944  -0.266  -0.354  0.00  0.00    -0.041 C 
ATOM     19  C   LIG    1       -1.953   0.386  -0.247  0.00  0.00    -0.094 C 
BRANCH  19  20
ATOM     20  C   LIG    1       -3.166   1.196  -0.106  0.00  0.00    +0.064 C 
ATOM     21  C   LIG    1       -4.142   0.877   0.961  0.00  0.00    +0.017 C 
ATOM     22  C   LIG    1       -4.510   0.495  -0.405  0.00  0.00    +0.017 C 
ENDBRANCH  19  20
ENDBRANCH   1  18
TORSDOF 3
