REMARK  Name = molecules/XPYGGHVSFMUHLH-WSRTYSJNSA-N.pdb
REMARK                            x       y       z     vdW  Elec       q    Type
REMARK                         _______ _______ _______ _____ _____    ______ ____
ROOT
ATOM      1  C   LIG    1       -2.769   0.122   0.298  0.00  0.00    -0.000 C 
ATOM      2  C   LIG    1       -1.834  -0.813   0.403  0.00  0.00    -0.066 C 
ATOM      3  C   LIG    1       -0.720  -0.636   1.313  0.00  0.00    +0.021 C 
ATOM      4  C   LIG    1       -0.281   0.789   1.553  0.00  0.00    +0.009 C 
ATOM      5  C   LIG    1        1.235   0.725   1.803  0.00  0.00    +0.005 C 
ATOM      6  C   LIG    1        1.530  -0.738   1.677  0.00  0.00    -0.002 C 
ATOM      7  C   LIG    1        0.562  -1.170   0.630  0.00  0.00    -0.022 C 
ATOM      8  C   LIG    1        0.392  -2.632   0.467  0.00  0.00    +0.008 C 
ATOM      9  C   LIG    1       -0.967  -3.107   0.089  0.00  0.00    +0.005 C 
ATOM     10  C   LIG    1        0.645  -0.417  -0.671  0.00  0.00    +0.012 C 
ATOM     11  C   LIG    1       -1.910  -2.045  -0.403  0.00  0.00    +0.031 C 
ENDROOT
BRANCH   1  17
ATOM     12  C   LIG    1       -4.823   0.836  -0.750  0.00  0.00    -0.040 C 
ATOM     13  C   LIG    1       -4.860   2.106  -0.001  0.00  0.00    +0.067 C 
ATOM     14  C   LIG    1       -6.134   2.029   0.854  0.00  0.00    +0.122 C 
ATOM     15  C   LIG    1       -7.362   1.740   0.067  0.00  0.00    +0.067 C 
ATOM     16  C   LIG    1       -7.164   1.437  -1.381  0.00  0.00    +0.147 C 
ATOM     17  C   LIG    1       -3.884  -0.037  -0.604  0.00  0.00    +0.004 C 
ATOM     18  C   LIG    1       -5.952   0.636  -1.677  0.00  0.00    -0.023 C 
ATOM     19  C   LIG    1       -5.841  -0.188  -2.668  0.00  0.00    +0.015 C 
BRANCH  14  20
ATOM     20  O   LIG    1       -6.269   3.184   1.624  0.00  0.00    -0.391 OA
ATOM     21  H   LIG    1       -6.838   2.920   2.410  0.00  0.00    +0.210 HD
ENDBRANCH  14  20
BRANCH  16  22
ATOM     22  O   LIG    1       -8.295   0.843  -1.954  0.00  0.00    -0.387 OA
ATOM     23  H   LIG    1       -9.127   1.132  -1.505  0.00  0.00    +0.210 HD
ENDBRANCH  16  22
ENDBRANCH   1  17
BRANCH   6  24
ATOM     24  C   LIG    1        2.927  -1.124   1.558  0.00  0.00    -0.010 C 
ATOM     25  C   LIG    1        3.704  -0.571   2.733  0.00  0.00    +0.008 C 
BRANCH  24  26
ATOM     26  C   LIG    1        3.608  -0.682   0.257  0.00  0.00    +0.003 C 
BRANCH  26  27
ATOM     27  C   LIG    1        5.031  -1.145   0.272  0.00  0.00    +0.004 C 
BRANCH  27  28
ATOM     28  C   LIG    1        5.886  -0.917  -0.868  0.00  0.00    +0.053 C 
BRANCH  28  29
ATOM     29  C   LIG    1        6.336   0.332  -1.445  0.00  0.00    +0.256 C 
BRANCH  29  30
ATOM     30  C   LIG    1        7.330   1.056  -0.496  0.00  0.00    +0.427 C 
ATOM     31  F   LIG    1        6.722   1.331   0.707  0.00  0.00    -0.167 F 
ATOM     32  F   LIG    1        8.472   0.302  -0.359  0.00  0.00    -0.167 F 
ATOM     33  F   LIG    1        7.676   2.239  -1.090  0.00  0.00    -0.167 F 
ENDBRANCH  29  30
BRANCH  29  34
ATOM     34  C   LIG    1        5.458   1.358  -2.011  0.00  0.00    +0.427 C 
ATOM     35  F   LIG    1        4.555   1.996  -1.255  0.00  0.00    -0.167 F 
ATOM     36  F   LIG    1        6.286   2.363  -2.561  0.00  0.00    -0.167 F 
ATOM     37  F   LIG    1        4.836   0.841  -3.188  0.00  0.00    -0.167 F 
ENDBRANCH  29  34
BRANCH  29  38
ATOM     38  O   LIG    1        7.219  -0.037  -2.531  0.00  0.00    -0.373 OA
ATOM     39  H   LIG    1        7.708   0.775  -2.817  0.00  0.00    +0.211 HD
ENDBRANCH  29  38
ENDBRANCH  28  29
ENDBRANCH  27  28
ENDBRANCH  26  27
ENDBRANCH  24  26
ENDBRANCH   6  24
TORSDOF 11
