REMARK  Name = molecules/XPYLKZZOBVLVHB-HQRMLTQVSA-N.pdb
REMARK                            x       y       z     vdW  Elec       q    Type
REMARK                         _______ _______ _______ _____ _____    ______ ____
ROOT
ATOM      1  C   LIG    1       -1.875  -0.292  -0.231  0.00  0.00    +0.082 C 
ATOM      2  C   LIG    1       -0.972   0.157   0.881  0.00  0.00    +0.130 C 
ATOM      3  C   LIG    1       -0.548   1.577   0.862  0.00  0.00    +0.017 C 
ATOM      4  C   LIG    1       -0.054   1.958  -0.488  0.00  0.00    +0.001 C 
ATOM      5  C   LIG    1       -1.116   1.725  -1.533  0.00  0.00    +0.003 C 
ATOM      6  C   LIG    1       -1.593   0.304  -1.565  0.00  0.00    +0.036 C 
ENDROOT
BRANCH   1   7
ATOM      7  C   LIG    1       -3.328  -0.312   0.148  0.00  0.00    +0.022 C 
ATOM      8  C   LIG    1       -3.965   0.990   0.436  0.00  0.00    +0.006 C 
ATOM      9  C   LIG    1       -5.391   0.686   0.925  0.00  0.00    +0.000 C 
ATOM     10  C   LIG    1       -6.195  -0.026  -0.115  0.00  0.00    +0.000 C 
ATOM     11  C   LIG    1       -5.497  -1.360  -0.384  0.00  0.00    +0.000 C 
ATOM     12  C   LIG    1       -4.134  -0.977  -0.964  0.00  0.00    +0.006 C 
ENDBRANCH   1   7
BRANCH   1  13
ATOM     13  O   LIG    1       -1.561  -1.681  -0.390  0.00  0.00    -0.387 OA
ATOM     14  H   LIG    1       -1.716  -2.048   0.535  0.00  0.00    +0.210 HD
ENDBRANCH   1  13
BRANCH   2  15
ATOM     15  C   LIG    1        0.276  -0.695   0.858  0.00  0.00    +0.313 C 
ATOM     16  O   LIG    1        0.681  -1.322   1.870  0.00  0.00    -0.250 OA
BRANCH  15  17
ATOM     17  O   LIG    1        1.047  -0.828  -0.291  0.00  0.00    -0.460 OA
BRANCH  17  18
ATOM     18  C   LIG    1        2.215  -1.611  -0.341  0.00  0.00    +0.187 C 
ATOM     19  C   LIG    1        2.061  -2.791  -1.283  0.00  0.00    +0.053 C 
BRANCH  18  20
ATOM     20  C   LIG    1        3.438  -0.867  -0.748  0.00  0.00    +0.128 C 
BRANCH  20  21
ATOM     21  N   LIG    1        3.802   0.222   0.102  0.00  0.00    -0.299 NA
BRANCH  21  22
ATOM     22  C   LIG    1        4.249  -0.141   1.406  0.00  0.00    +0.081 C 
ATOM     23  C   LIG    1        5.579  -0.859   1.401  0.00  0.00    +0.020 C 
ENDBRANCH  21  22
BRANCH  21  24
ATOM     24  C   LIG    1        4.671   1.135  -0.599  0.00  0.00    +0.081 C 
ATOM     25  C   LIG    1        5.112   2.313   0.205  0.00  0.00    +0.020 C 
ENDBRANCH  21  24
ENDBRANCH  20  21
ENDBRANCH  18  20
ENDBRANCH  17  18
ENDBRANCH  15  17
ENDBRANCH   2  15
TORSDOF 9
