REMARK  Name = molecules/XQFRJNBWHJMXHO-RRKCRQDMSA-N.pdb
REMARK                            x       y       z     vdW  Elec       q    Type
REMARK                         _______ _______ _______ _____ _____    ______ ____
ROOT
ATOM      1  O   LIG    1        0.999   1.803  -1.671  0.00  0.00    -0.246 OA
ATOM      2  C   LIG    1        1.736   1.217  -0.834  0.00  0.00    +0.331 A 
ATOM      3  N   LIG    1        1.347   0.092  -0.205  0.00  0.00    -0.273 N 
ATOM      4  C   LIG    1        2.183  -0.462   0.662  0.00  0.00    +0.113 A 
ATOM      5  C   LIG    1        3.430   0.071   0.942  0.00  0.00    +0.094 A 
ATOM      6  I   LIG    1        4.713  -0.855   2.330  0.00  0.00    -0.037 I 
ATOM      7  C   LIG    1        3.787   1.226   0.273  0.00  0.00    +0.267 A 
ATOM      8  O   LIG    1        4.926   1.718   0.525  0.00  0.00    -0.267 OA
ATOM      9  N   LIG    1        2.942   1.792  -0.608  0.00  0.00    -0.274 N 
ATOM     10  H   LIG    1        3.239   2.666  -1.099  0.00  0.00    +0.173 HD
ENDROOT
BRANCH   3  11
ATOM     11  C1* LIG    1        0.068  -0.443  -0.499  0.00  0.00    +0.226 C 
ATOM     12  C2* LIG    1       -0.433  -1.486   0.441  0.00  0.00    +0.088 C 
ATOM     13  C3* LIG    1       -1.953  -1.314   0.312  0.00  0.00    +0.150 C 
ATOM     14  C4* LIG    1       -2.124  -0.016  -0.433  0.00  0.00    +0.175 C 
ATOM     15  O4* LIG    1       -0.877   0.577  -0.530  0.00  0.00    -0.348 OA
BRANCH  13  16
ATOM     16  O3* LIG    1       -2.512  -2.399  -0.382  0.00  0.00    -0.389 OA
ATOM     17  H3* LIG    1       -2.061  -3.224  -0.030  0.00  0.00    +0.210 HD
ENDBRANCH  13  16
BRANCH  14  18
ATOM     18  C5* LIG    1       -3.011   0.900   0.384  0.00  0.00    +0.190 C 
BRANCH  18  19
ATOM     19  O5* LIG    1       -3.147   2.150  -0.203  0.00  0.00    -0.392 OA
ATOM     20  H5* LIG    1       -3.244   2.009  -1.194  0.00  0.00    +0.210 HD
ENDBRANCH  18  19
ENDBRANCH  14  18
ENDBRANCH   3  11
TORSDOF 4
