REMARK  Name = molecules/XQLWNAFCTODIRK-MUUNZHRXSA-N.pdb
REMARK                            x       y       z     vdW  Elec       q    Type
REMARK                         _______ _______ _______ _____ _____    ______ ____
ROOT
ATOM      1  C   LIG    1       -2.176  -0.648  -0.417  0.00  0.00    +0.085 C 
ENDROOT
BRANCH   1   2
ATOM      2  C   LIG    1       -3.527   0.055  -0.331  0.00  0.00    -0.020 A 
ATOM      3  C   LIG    1       -4.319  -0.147   0.780  0.00  0.00    +0.054 A 
ATOM      4  C   LIG    1       -5.590   0.369   0.857  0.00  0.00    +0.165 A 
ATOM      5  C   LIG    1       -6.091   1.107  -0.192  0.00  0.00    +0.204 A 
ATOM      6  C   LIG    1       -5.317   1.344  -1.347  0.00  0.00    +0.165 A 
ATOM      7  C   LIG    1       -4.039   0.791  -1.357  0.00  0.00    +0.054 A 
BRANCH   4   8
ATOM      8  O   LIG    1       -6.368   0.162   1.960  0.00  0.00    -0.491 OA
ATOM      9  C   LIG    1       -5.931  -0.569   3.081  0.00  0.00    +0.277 C 
ENDBRANCH   4   8
BRANCH   5  10
ATOM     10  O   LIG    1       -7.362   1.648  -0.184  0.00  0.00    -0.488 OA
ATOM     11  C   LIG    1       -7.796   2.848   0.316  0.00  0.00    +0.277 C 
ENDBRANCH   5  10
BRANCH   6  12
ATOM     12  O   LIG    1       -5.842   2.091  -2.379  0.00  0.00    -0.491 OA
ATOM     13  C   LIG    1       -5.183   2.404  -3.582  0.00  0.00    +0.277 C 
ENDBRANCH   6  12
ENDBRANCH   1   2
BRANCH   1  14
ATOM     14  C   LIG    1       -2.704  -2.128  -0.426  0.00  0.00    +0.007 C 
ATOM     15  C   LIG    1       -1.573  -3.092  -0.421  0.00  0.00    +0.009 C 
ATOM     16  C   LIG    1       -3.576  -2.329  -1.623  0.00  0.00    +0.009 C 
ENDBRANCH   1  14
BRANCH   1  17
ATOM     17  C   LIG    1       -1.584  -0.359  -1.682  0.00  0.00    +0.074 C 
ATOM     18  N   LIG    1       -1.121  -0.128  -2.732  0.00  0.00    -0.196 NA
ENDBRANCH   1  17
BRANCH   1  19
ATOM     19  C   LIG    1       -1.332  -0.483   0.765  0.00  0.00    +0.028 C 
BRANCH  19  20
ATOM     20  C   LIG    1       -0.590   0.741   1.058  0.00  0.00    +0.017 C 
BRANCH  20  21
ATOM     21  C   LIG    1        0.601   1.115   0.263  0.00  0.00    +0.084 C 
BRANCH  21  22
ATOM     22  N   LIG    1        1.731   0.258   0.299  0.00  0.00    -0.305 NA
ATOM     23  C   LIG    1        1.809  -0.874  -0.505  0.00  0.00    +0.104 C 
BRANCH  22  24
ATOM     24  C   LIG    1        2.383   0.148   1.578  0.00  0.00    +0.088 C 
BRANCH  24  25
ATOM     25  C   LIG    1        3.599  -0.714   1.491  0.00  0.00    +0.050 C 
BRANCH  25  26
ATOM     26  C   LIG    1        4.736  -0.201   0.747  0.00  0.00    -0.042 A 
ATOM     27  C   LIG    1        5.999  -0.711   1.094  0.00  0.00    +0.053 A 
ATOM     28  C   LIG    1        7.157  -0.291   0.552  0.00  0.00    +0.162 A 
ATOM     29  C   LIG    1        7.144   0.730  -0.429  0.00  0.00    +0.161 A 
ATOM     30  C   LIG    1        5.883   1.240  -0.774  0.00  0.00    +0.049 A 
ATOM     31  C   LIG    1        4.722   0.791  -0.206  0.00  0.00    +0.007 A 
BRANCH  28  32
ATOM     32  O   LIG    1        8.416  -0.814   0.904  0.00  0.00    -0.491 OA
ATOM     33  C   LIG    1        8.436  -1.832   1.883  0.00  0.00    +0.277 C 
ENDBRANCH  28  32
BRANCH  29  34
ATOM     34  O   LIG    1        8.245   1.163  -0.965  0.00  0.00    -0.491 OA
ATOM     35  C   LIG    1        9.267   1.676  -1.564  0.00  0.00    +0.277 C 
ENDBRANCH  29  34
ENDBRANCH  25  26
ENDBRANCH  24  25
ENDBRANCH  22  24
ENDBRANCH  21  22
ENDBRANCH  20  21
ENDBRANCH  19  20
ENDBRANCH   1  19
TORSDOF 15
