REMARK  Name = molecules/XQSPYNMVSIKCOC-NTSWFWBYSA-N.pdb
REMARK                            x       y       z     vdW  Elec       q    Type
REMARK                         _______ _______ _______ _____ _____    ______ ____
ROOT
ATOM      1  C   LIG    1       -3.343   0.683   0.215  0.00  0.00    +0.159 A 
ATOM      2  N   LIG    1       -2.813  -0.083   1.193  0.00  0.00    -0.175 NA
ATOM      3  C   LIG    1       -1.563  -0.619   1.067  0.00  0.00    +0.352 A 
ATOM      4  O   LIG    1       -1.063  -1.330   1.969  0.00  0.00    -0.244 OA
ATOM      5  N   LIG    1       -0.820  -0.409  -0.020  0.00  0.00    -0.269 N 
ATOM      6  C   LIG    1       -1.307   0.349  -1.023  0.00  0.00    +0.135 A 
ATOM      7  C   LIG    1       -2.577   0.902  -0.912  0.00  0.00    +0.179 A 
ATOM      8  F   LIG    1       -3.119   1.673  -1.887  0.00  0.00    -0.200 F 
ENDROOT
BRANCH   5   9
ATOM      9  C   LIG    1        0.476  -0.956  -0.168  0.00  0.00    +0.235 C 
ATOM     10  C   LIG    1        1.038  -1.753   0.940  0.00  0.00    +0.126 C 
ATOM     11  S   LIG    1        2.718  -2.000   0.197  0.00  0.00    -0.123 S 
ATOM     12  C   LIG    1        2.598  -0.428  -0.733  0.00  0.00    +0.203 C 
ATOM     13  O   LIG    1        1.340   0.043  -0.524  0.00  0.00    -0.340 OA
BRANCH  12  14
ATOM     14  C   LIG    1        3.531   0.540   0.013  0.00  0.00    +0.198 C 
BRANCH  14  15
ATOM     15  O   LIG    1        3.420   1.827  -0.459  0.00  0.00    -0.392 OA
ATOM     16  H   LIG    1        4.295   2.293  -0.385  0.00  0.00    +0.210 HD
ENDBRANCH  14  15
ENDBRANCH  12  14
ENDBRANCH   5   9
BRANCH   1  17
ATOM     17  N   LIG    1       -4.658   1.236   0.369  0.00  0.00    -0.341 N 
ATOM     18  H   LIG    1       -4.729   2.248   0.664  0.00  0.00    +0.144 HD
ATOM     19  H   LIG    1       -5.507   0.688   0.203  0.00  0.00    +0.144 HD
ENDBRANCH   1  17
TORSDOF 4
