REMARK  Name = molecules/XRASPMIURGNCCH-UHFFFAOYSA-N.pdb
REMARK                            x       y       z     vdW  Elec       q    Type
REMARK                         _______ _______ _______ _____ _____    ______ ____
ROOT
ATOM      1  C   LIG    1       -0.793  -0.493  -0.171  0.00  0.00    +0.285 C 
ENDROOT
BRANCH   1   2
ATOM      2  P   LIG    1       -2.421  -0.820   0.561  0.00  0.00    +0.373 P 
ATOM      3  O   LIG    1       -2.329  -1.780   1.714  0.00  0.00    -0.255 OA
BRANCH   2   4
ATOM      4  O   LIG    1       -3.149   0.614   1.089  0.00  0.00    -0.322 OA
ATOM      5  H   LIG    1       -3.068   0.659   2.073  0.00  0.00    +0.220 HD
ENDBRANCH   2   4
BRANCH   2   6
ATOM      6  O   LIG    1       -3.458  -1.475  -0.628  0.00  0.00    -0.322 OA
ATOM      7  H   LIG    1       -2.932  -1.629  -1.450  0.00  0.00    +0.220 HD
ENDBRANCH   2   6
ENDBRANCH   1   2
BRANCH   1   8
ATOM      8  P   LIG    1       -0.791   1.227  -0.725  0.00  0.00    +0.373 P 
ATOM      9  O   LIG    1       -2.017   1.398  -1.628  0.00  0.00    -0.255 OA
BRANCH   8  10
ATOM     10  O   LIG    1       -0.905   2.319   0.530  0.00  0.00    -0.322 OA
ATOM     11  H   LIG    1       -1.161   1.944   1.388  0.00  0.00    +0.220 HD
ENDBRANCH   8  10
BRANCH   8  12
ATOM     12  O   LIG    1        0.554   1.588  -1.676  0.00  0.00    -0.322 OA
ATOM     13  H   LIG    1        0.961   2.461  -1.441  0.00  0.00    +0.220 HD
ENDBRANCH   8  12
ENDBRANCH   1   8
BRANCH   1  14
ATOM     14  O   LIG    1       -0.689  -1.296  -1.306  0.00  0.00    -0.366 OA
ATOM     15  H   LIG    1       -0.048  -0.905  -1.926  0.00  0.00    +0.212 HD
ENDBRANCH   1  14
BRANCH   1  16
ATOM     16  C   LIG    1        0.283  -0.774   0.834  0.00  0.00    +0.183 C 
BRANCH  16  17
ATOM     17  N   LIG    1        1.606  -0.526   0.340  0.00  0.00    -0.333 N 
ATOM     18  C   LIG    1        2.235   0.657   0.442  0.00  0.00    +0.107 A 
ATOM     19  C   LIG    1        3.479   0.531  -0.137  0.00  0.00    +0.130 A 
ATOM     20  N   LIG    1        3.575  -0.736  -0.580  0.00  0.00    -0.244 NA
ATOM     21  C   LIG    1        2.432  -1.380  -0.288  0.00  0.00    +0.199 A 
ENDBRANCH  16  17
ENDBRANCH   1  16
TORSDOF 9
