REMARK  Name = molecules/XRECTZIEBJDKEO-UHFFFAOYSA-N.pdb
REMARK                            x       y       z     vdW  Elec       q    Type
REMARK                         _______ _______ _______ _____ _____    ______ ____
ROOT
ATOM      1  C   LIG    1        0.885  -0.355  -0.083  0.00  0.00    +0.159 A 
ATOM      2  C   LIG    1        0.393   0.928   0.042  0.00  0.00    +0.179 A 
ATOM      3  C   LIG    1       -0.966   1.196   0.142  0.00  0.00    +0.129 A 
ATOM      4  N   LIG    1       -1.829   0.163   0.117  0.00  0.00    -0.310 N 
ATOM      5  H   LIG    1       -2.874   0.304   0.189  0.00  0.00    +0.170 HD
ATOM      6  C   LIG    1       -1.350  -1.089  -0.005  0.00  0.00    +0.348 A 
ATOM      7  O   LIG    1       -2.181  -2.040  -0.027  0.00  0.00    -0.245 OA
ATOM      8  F   LIG    1        1.299   1.946   0.064  0.00  0.00    -0.200 F 
ATOM      9  N   LIG    1       -0.019  -1.352  -0.104  0.00  0.00    -0.176 NA
ENDROOT
BRANCH   1  10
ATOM     10  N   LIG    1        2.287  -0.580  -0.183  0.00  0.00    -0.341 N 
ATOM     11  H   LIG    1        2.885  -0.631   0.690  0.00  0.00    +0.144 HD
ATOM     12  H   LIG    1        2.796  -0.704  -1.081  0.00  0.00    +0.144 HD
ENDBRANCH   1  10
TORSDOF 1
