REMARK  Name = molecules/XRVJPLDTMUSSDE-UHFFFAOYSA-N.pdb
REMARK                            x       y       z     vdW  Elec       q    Type
REMARK                         _______ _______ _______ _____ _____    ______ ____
ROOT
ATOM      1  S   LIG    1       -0.576   0.849   1.413  0.00  0.00    +0.075 S 
ATOM      2  O   LIG    1       -0.721   0.903   2.911  0.00  0.00    -0.150 OA
ATOM      3  O   LIG    1       -0.227   2.221   0.912  0.00  0.00    -0.150 OA
ENDROOT
BRANCH   1   4
ATOM      4  C   LIG    1       -2.100   0.373   0.762  0.00  0.00    +0.109 A 
ATOM      5  C   LIG    1       -2.937  -0.488   1.436  0.00  0.00    +0.030 A 
ATOM      6  C   LIG    1       -4.164  -0.842   0.889  0.00  0.00    +0.024 A 
ATOM      7  C   LIG    1       -4.600  -0.364  -0.326  0.00  0.00    +0.025 A 
ATOM      8  C   LIG    1       -3.730   0.503  -0.980  0.00  0.00    +0.024 A 
ATOM      9  C   LIG    1       -2.509   0.867  -0.455  0.00  0.00    +0.030 A 
BRANCH   7  10
ATOM     10  N   LIG    1       -5.855  -0.707  -0.906  0.00  0.00    -0.358 N 
ATOM     11  H   LIG    1       -6.737  -0.172  -0.687  0.00  0.00    +0.142 HD
ATOM     12  H   LIG    1       -5.844  -1.528  -1.565  0.00  0.00    +0.142 HD
ENDBRANCH   7  10
ENDBRANCH   1   4
BRANCH   1  13
ATOM     13  N   LIG    1        0.675  -0.240   0.955  0.00  0.00    -0.182 N 
ATOM     14  H   LIG    1        0.527  -1.282   1.089  0.00  0.00    +0.177 HD
ATOM     15  C   LIG    1        1.872   0.282   0.409  0.00  0.00    +0.256 C 
ATOM     16  O   LIG    1        1.996   1.509   0.266  0.00  0.00    -0.269 OA
BRANCH  15  17
ATOM     17  C   LIG    1        2.930  -0.622   0.027  0.00  0.00    +0.067 C 
ATOM     18  C   LIG    1        4.052  -0.194  -0.485  0.00  0.00    -0.071 C 
ATOM     19  C   LIG    1        4.272   1.251  -0.691  0.00  0.00    +0.039 C 
ATOM     20  C   LIG    1        5.107  -1.191  -0.848  0.00  0.00    +0.039 C 
ENDBRANCH  15  17
ENDBRANCH   1  13
TORSDOF 4
