REMARK  Name = molecules/XRYLGRGAWQSVQW-KRWDZBQOSA-N.pdb
REMARK                            x       y       z     vdW  Elec       q    Type
REMARK                         _______ _______ _______ _____ _____    ______ ____
ROOT
ATOM      1  C   LIG    1       -0.340  -0.052  -0.476  0.00  0.00    +0.092 C 
ATOM      2  C   LIG    1       -0.948  -1.273   0.076  0.00  0.00    +0.060 C 
ATOM      3  C   LIG    1       -2.395  -1.446  -0.176  0.00  0.00    -0.032 A 
ATOM      4  C   LIG    1       -3.434  -0.690   0.312  0.00  0.00    +0.016 A 
ATOM      5  S   LIG    1       -3.222   0.739   1.401  0.00  0.00    -0.089 S 
ATOM      6  C   LIG    1       -1.905   1.708   0.707  0.00  0.00    +0.018 A 
ATOM      7  C   LIG    1       -2.081   3.059   0.979  0.00  0.00    +0.017 A 
ATOM      8  C   LIG    1       -1.181   4.004   0.537  0.00  0.00    +0.021 A 
ATOM      9  C   LIG    1       -0.097   3.555  -0.187  0.00  0.00    +0.041 A 
ATOM     10  C   LIG    1        0.070   2.216  -0.453  0.00  0.00    +0.026 A 
ATOM     11 CL   LIG    1        1.055   4.758  -0.753  0.00  0.00    -0.084 Cl
ATOM     12  C   LIG    1       -4.756  -0.934   0.024  0.00  0.00    +0.015 A 
ATOM     13  C   LIG    1       -5.077  -1.989  -0.799  0.00  0.00    +0.001 A 
ATOM     14  C   LIG    1       -4.056  -2.760  -1.300  0.00  0.00    +0.000 A 
ATOM     15  C   LIG    1       -2.740  -2.492  -0.993  0.00  0.00    +0.005 A 
ATOM     16  C   LIG    1       -0.832   1.245  -0.013  0.00  0.00    -0.015 A 
ENDROOT
BRANCH   1  21
ATOM     17  C   LIG    1        5.098  -0.086  -0.025  0.00  0.00    +0.105 C 
ATOM     18  N   LIG    1        3.664   0.162  -0.233  0.00  0.00    -0.303 NA
ATOM     19  C   LIG    1        3.046   0.076   1.055  0.00  0.00    +0.099 C 
ATOM     20  C   LIG    1        1.537   0.106   1.027  0.00  0.00    +0.100 C 
ATOM     21  N   LIG    1        1.076  -0.051  -0.321  0.00  0.00    -0.293 NA
ATOM     22  C   LIG    1        1.723  -1.107  -1.034  0.00  0.00    +0.100 C 
ATOM     23  C   LIG    1        3.211  -0.843  -1.159  0.00  0.00    +0.099 C 
ENDBRANCH   1  21
TORSDOF 1
