REMARK  Name = molecules/XSBSKEQEUFOSDD-UHFFFAOYSA-N.pdb
REMARK                            x       y       z     vdW  Elec       q    Type
REMARK                         _______ _______ _______ _____ _____    ______ ____
ROOT
ATOM      1  C   LIG    1        0.587  -0.022   0.560  0.00  0.00    -0.004 C 
ENDROOT
BRANCH   1   2
ATOM      2  C   LIG    1        0.889   0.998  -0.506  0.00  0.00    -0.018 C 
BRANCH   2   3
ATOM      3  C   LIG    1        2.209   1.647  -0.362  0.00  0.00    -0.075 C 
BRANCH   3   4
ATOM      4  N   LIG    1        3.355   0.826  -0.402  0.00  0.00    +0.378 N 
ATOM      5  C   LIG    1        3.759   0.443   0.920  0.00  0.00    -0.076 C 
ATOM      6  C   LIG    1        4.214  -0.978   0.907  0.00  0.00    -0.020 C 
ATOM      7  C   LIG    1        3.915  -1.476  -0.465  0.00  0.00    -0.020 C 
ATOM      8  C   LIG    1        4.457   1.646  -0.944  0.00  0.00    -0.092 C 
ATOM      9  C   LIG    1        3.278  -0.338  -1.227  0.00  0.00    -0.076 C 
ENDBRANCH   3   4
ENDBRANCH   2   3
ENDBRANCH   1   2
BRANCH   1  10
ATOM     10  C   LIG    1       -0.756  -0.646   0.367  0.00  0.00    -0.018 C 
BRANCH  10  11
ATOM     11  C   LIG    1       -1.889   0.354   0.405  0.00  0.00    -0.075 C 
BRANCH  11  12
ATOM     12  N   LIG    1       -3.141  -0.321   0.212  0.00  0.00    +0.378 N 
ATOM     13  C   LIG    1       -3.185  -1.638   0.784  0.00  0.00    -0.092 C 
ATOM     14  C   LIG    1       -4.211   0.538   0.661  0.00  0.00    -0.076 C 
ATOM     15  C   LIG    1       -5.418   0.204  -0.168  0.00  0.00    -0.020 C 
ATOM     16  C   LIG    1       -4.891  -0.554  -1.373  0.00  0.00    -0.020 C 
ATOM     17  C   LIG    1       -3.401  -0.462  -1.221  0.00  0.00    -0.076 C 
ENDBRANCH  11  12
ENDBRANCH  10  11
ENDBRANCH   1  10
TORSDOF 6
