REMARK  Name = molecules/XSCGXQMFQXDFCW-UHFFFAOYSA-N.pdb
REMARK                            x       y       z     vdW  Elec       q    Type
REMARK                         _______ _______ _______ _____ _____    ______ ____
ROOT
ATOM      1  N   LIG    1       -0.808   0.484   0.170  0.00  0.00    -0.313 N 
ATOM      2  C   LIG    1       -0.770   1.898   0.202  0.00  0.00    +0.115 C 
ATOM      3  C   LIG    1        0.391   2.562   0.654  0.00  0.00    +0.007 C 
ATOM      4  C   LIG    1        0.406   3.946   0.767  0.00  0.00    -0.002 C 
ATOM      5  C   LIG    1       -0.690   4.689   0.450  0.00  0.00    +0.001 C 
ATOM      6  C   LIG    1       -1.812   4.035   0.014  0.00  0.00    +0.013 C 
ATOM      7  C   LIG    1       -1.841   2.691  -0.103  0.00  0.00    +0.020 C 
ATOM      8  S   LIG    1       -3.359   2.002  -0.702  0.00  0.00    -0.089 S 
ATOM      9  C   LIG    1       -3.193   0.227  -0.524  0.00  0.00    +0.034 A 
ATOM     10  C   LIG    1       -4.329  -0.530  -0.784  0.00  0.00    +0.017 A 
ATOM     11  C   LIG    1       -4.235  -1.895  -0.692  0.00  0.00    +0.013 A 
ATOM     12  C   LIG    1       -3.040  -2.481  -0.349  0.00  0.00    +0.057 A 
ATOM     13  C   LIG    1       -1.928  -1.679  -0.098  0.00  0.00    +0.036 A 
ATOM     14  C   LIG    1       -1.975  -0.291  -0.178  0.00  0.00    +0.045 A 
ENDROOT
BRANCH  12  15
ATOM     15  C   LIG    1       -2.913  -3.975  -0.246  0.00  0.00    +0.417 C 
ATOM     16  F   LIG    1       -2.248  -4.245   0.949  0.00  0.00    -0.166 F 
ATOM     17  F   LIG    1       -4.155  -4.512  -0.116  0.00  0.00    -0.166 F 
ATOM     18  F   LIG    1       -2.288  -4.535  -1.312  0.00  0.00    -0.166 F 
ENDBRANCH  12  15
BRANCH   1  19
ATOM     19  C   LIG    1        0.433  -0.251   0.426  0.00  0.00    +0.108 C 
BRANCH  19  20
ATOM     20  C   LIG    1        1.365  -0.180  -0.757  0.00  0.00    +0.034 C 
BRANCH  20  21
ATOM     21  C   LIG    1        2.579  -1.057  -0.583  0.00  0.00    +0.085 C 
BRANCH  21  23
ATOM     22  C   LIG    1        4.499  -1.742   0.666  0.00  0.00    +0.104 C 
ATOM     23  N   LIG    1        3.372  -0.820   0.578  0.00  0.00    -0.308 NA
ATOM     24  C   LIG    1        3.689   0.519   0.899  0.00  0.00    +0.104 C 
ENDBRANCH  21  23
ENDBRANCH  20  21
ENDBRANCH  19  20
ENDBRANCH   1  19
TORSDOF 5
