REMARK  Name = molecules/XSEUMFJMFFMCIU-UHFFFAOYSA-N.pdb
REMARK                            x       y       z     vdW  Elec       q    Type
REMARK                         _______ _______ _______ _____ _____    ______ ____
ROOT
ATOM      1  C   LIG    1        1.152  -0.229   0.642  0.00  0.00    +0.388 C 
ATOM      2  N   LIG    1        0.589   0.383   1.611  0.00  0.00    -0.129 NA
ATOM      3  H   LIG    1        1.097   0.817   2.406  0.00  0.00    +0.306 HD
ENDROOT
BRANCH   1   4
ATOM      4  N   LIG    1        0.386  -0.790  -0.398  0.00  0.00    -0.276 N 
ATOM      5  H   LIG    1        0.824  -1.517  -1.041  0.00  0.00    +0.258 HD
BRANCH   4   6
ATOM      6  C   LIG    1       -0.987  -0.431  -0.651  0.00  0.00    +0.196 C 
BRANCH   6   7
ATOM      7  C   LIG    1       -1.863  -0.933   0.487  0.00  0.00    +0.037 C 
BRANCH   7   9
ATOM      8  C   LIG    1       -3.363   0.951   0.128  0.00  0.00    +0.004 C 
ATOM      9  C   LIG    1       -3.312  -0.553   0.217  0.00  0.00    -0.000 C 
ENDBRANCH   7   9
ENDBRANCH   6   7
ENDBRANCH   4   6
ENDBRANCH   1   4
BRANCH   1  10
ATOM     10  N   LIG    1        2.563  -0.318   0.658  0.00  0.00    -0.186 N 
ATOM     11  H   LIG    1        2.941  -1.140   1.224  0.00  0.00    +0.271 HD
BRANCH  10  12
ATOM     12  C   LIG    1        3.430   0.577   0.001  0.00  0.00    +0.385 C 
ATOM     13  N   LIG    1        4.461   0.009  -0.793  0.00  0.00    -0.289 N 
ATOM     14  H   LIG    1        5.305  -0.440  -0.378  0.00  0.00    +0.255 HD
ATOM     15  H   LIG    1        4.359   0.049  -1.815  0.00  0.00    +0.255 HD
BRANCH  12  16
ATOM     16  N   LIG    1        3.357   1.856   0.069  0.00  0.00    -0.129 NA
ATOM     17  H   LIG    1        2.663   2.400   0.606  0.00  0.00    +0.306 HD
ENDBRANCH  12  16
ENDBRANCH  10  12
ENDBRANCH   1  10
TORSDOF 7
