REMARK  Name = molecules/XSTXAVWGXDQKEL-UHFFFAOYSA-N.pdb
REMARK                            x       y       z     vdW  Elec       q    Type
REMARK                         _______ _______ _______ _____ _____    ______ ____
ROOT
ATOM      1 CL   LIG    1        1.869   0.921  -0.268  0.00  0.00    -0.090 Cl
ATOM      2  C   LIG    1        0.640  -0.283   0.030  0.00  0.00    +0.111 C 
ATOM      3  C   LIG    1       -0.628   0.088   0.009  0.00  0.00    +0.118 C 
ATOM      4 CL   LIG    1       -1.817  -1.158   0.313  0.00  0.00    -0.070 Cl
ATOM      5 CL   LIG    1       -1.039   1.735  -0.307  0.00  0.00    -0.070 Cl
ENDROOT
TORSDOF 0
