REMARK  Name = molecules/XSVMFMHYUFZWBK-NSHDSACASA-N.pdb
REMARK                            x       y       z     vdW  Elec       q    Type
REMARK                         _______ _______ _______ _____ _____    ______ ____
ROOT
ATOM      1  C   LIG    1        0.461   1.455   0.668  0.00  0.00    +0.134 A 
ATOM      2  C   LIG    1        0.139   2.108   1.837  0.00  0.00    +0.046 A 
ATOM      3  C   LIG    1       -1.139   2.261   2.325  0.00  0.00    +0.004 A 
ATOM      4  C   LIG    1       -2.177   1.727   1.602  0.00  0.00    +0.005 A 
ATOM      5  C   LIG    1       -1.906   1.058   0.412  0.00  0.00    -0.027 A 
ATOM      6  C   LIG    1       -0.605   0.924  -0.048  0.00  0.00    +0.051 A 
ENDROOT
BRANCH   5   7
ATOM      7  C   LIG    1       -3.014   0.485  -0.366  0.00  0.00    +0.083 C 
ATOM      8  C   LIG    1       -4.321   0.613   0.360  0.00  0.00    +0.029 C 
BRANCH   7   9
ATOM      9  N   LIG    1       -2.707  -0.844  -0.801  0.00  0.00    -0.302 NA
ATOM     10  C   LIG    1       -2.559  -1.796   0.248  0.00  0.00    +0.105 C 
ATOM     11  C   LIG    1       -3.550  -1.315  -1.883  0.00  0.00    +0.105 C 
ENDBRANCH   7   9
ENDBRANCH   5   7
BRANCH   1  12
ATOM     12  O   LIG    1        1.766   1.322   0.208  0.00  0.00    -0.411 OA
BRANCH  12  14
ATOM     13  N   LIG    1        3.899   0.090   0.071  0.00  0.00    -0.270 N 
ATOM     14  C   LIG    1        2.576   0.244   0.525  0.00  0.00    +0.408 C 
ATOM     15  O   LIG    1        2.048  -0.636   1.276  0.00  0.00    -0.226 OA
ATOM     16  C   LIG    1        4.519   1.075  -0.777  0.00  0.00    +0.135 C 
BRANCH  13  18
ATOM     17  C   LIG    1        4.482  -2.207  -0.549  0.00  0.00    +0.024 C 
ATOM     18  C   LIG    1        4.667  -1.075   0.455  0.00  0.00    +0.107 C 
ENDBRANCH  13  18
ENDBRANCH  12  14
ENDBRANCH   1  12
TORSDOF 5
