REMARK  Name = molecules/XSWHNYGMWWVAIE-QGZVFWFLSA-N.pdb
REMARK                            x       y       z     vdW  Elec       q    Type
REMARK                         _______ _______ _______ _____ _____    ______ ____
ROOT
ATOM      1  C   LIG    1       -0.080   0.191  -0.744  0.00  0.00    +0.131 C 
ENDROOT
BRANCH   1   2
ATOM      2  C   LIG    1        1.265   0.055  -0.135  0.00  0.00    +0.094 C 
ATOM      3  C   LIG    1        1.329  -0.094   1.342  0.00  0.00    +0.022 C 
ATOM      4  C   LIG    1        2.779   0.224   1.742  0.00  0.00    +0.003 C 
ATOM      5  C   LIG    1        3.704  -0.261   0.647  0.00  0.00    +0.015 C 
ATOM      6  C   LIG    1        3.144  -1.413  -0.114  0.00  0.00    +0.081 C 
ATOM      7  N   LIG    1        1.846  -1.183  -0.690  0.00  0.00    -0.310 NA
ATOM      8  H   LIG    1        1.839  -1.135  -1.715  0.00  0.00    +0.122 HD
ENDBRANCH   1   2
BRANCH   1   9
ATOM      9  C   LIG    1       -0.813   1.427  -0.417  0.00  0.00    -0.010 A 
ATOM     10  C   LIG    1       -0.303   2.493   0.279  0.00  0.00    +0.007 A 
ATOM     11  C   LIG    1       -1.070   3.598   0.537  0.00  0.00    +0.000 A 
ATOM     12  C   LIG    1       -2.366   3.651   0.099  0.00  0.00    +0.000 A 
ATOM     13  C   LIG    1       -2.914   2.602  -0.603  0.00  0.00    +0.000 A 
ATOM     14  C   LIG    1       -2.128   1.501  -0.852  0.00  0.00    +0.007 A 
ENDBRANCH   1   9
BRANCH   1  15
ATOM     15  C   LIG    1       -0.972  -0.950  -0.463  0.00  0.00    -0.010 A 
ATOM     16  C   LIG    1       -1.657  -1.136   0.717  0.00  0.00    +0.007 A 
ATOM     17  C   LIG    1       -2.486  -2.224   0.921  0.00  0.00    +0.000 A 
ATOM     18  C   LIG    1       -2.650  -3.164  -0.066  0.00  0.00    +0.000 A 
ATOM     19  C   LIG    1       -1.987  -3.020  -1.257  0.00  0.00    +0.000 A 
ATOM     20  C   LIG    1       -1.169  -1.931  -1.436  0.00  0.00    +0.007 A 
ENDBRANCH   1  15
BRANCH   1  21
ATOM     21  O   LIG    1        0.126   0.255  -2.148  0.00  0.00    -0.378 OA
ATOM     22  H   LIG    1       -0.645   0.699  -2.599  0.00  0.00    +0.211 HD
ENDBRANCH   1  21
TORSDOF 4
