REMARK  Name = molecules/XTTZERNUQAFMOF-QMMMGPOBSA-N.pdb
REMARK                            x       y       z     vdW  Elec       q    Type
REMARK                         _______ _______ _______ _____ _____    ______ ____
ROOT
ATOM      1  C   LIG    1       -0.534   2.056  -1.354  0.00  0.00    +0.014 C 
ATOM      2  C   LIG    1       -0.199   1.543   0.023  0.00  0.00    +0.030 C 
ATOM      3  C   LIG    1       -1.457   1.279   0.837  0.00  0.00    +0.088 C 
ATOM      4  N   LIG    1       -1.405  -0.053   1.408  0.00  0.00    -0.315 NA
ATOM      5  H   LIG    1       -1.776  -0.089   2.379  0.00  0.00    +0.122 HD
ATOM      6  C   LIG    1       -1.978  -1.059   0.568  0.00  0.00    +0.085 C 
ATOM      7  C   LIG    1       -1.000  -1.564  -0.469  0.00  0.00    +0.050 C 
ATOM      8  C   LIG    1        0.351  -1.006  -0.238  0.00  0.00    -0.043 A 
ATOM      9  C   LIG    1        1.330  -1.990  -0.249  0.00  0.00    +0.005 A 
ATOM     10  C   LIG    1        2.654  -1.671  -0.052  0.00  0.00    +0.020 A 
ATOM     11  C   LIG    1        2.974  -0.350   0.155  0.00  0.00    +0.041 A 
ATOM     12 CL   LIG    1        4.657   0.060   0.405  0.00  0.00    -0.084 Cl
ATOM     13  C   LIG    1        2.008   0.620   0.165  0.00  0.00    +0.024 A 
ATOM     14  C   LIG    1        0.663   0.333  -0.030  0.00  0.00    -0.039 A 
ENDROOT
TORSDOF 0
