REMARK  Name = molecules/XTULMSXFIHGYFS-VLSRWLAYSA-N.pdb
REMARK                            x       y       z     vdW  Elec       q    Type
REMARK                         _______ _______ _______ _____ _____    ______ ____
ROOT
ATOM      1  C   LIG    1       -4.966   0.000  -2.607  0.00  0.00    +0.047 C 
ATOM      2  C   LIG    1       -4.043   0.621  -1.931  0.00  0.00    -0.009 C 
ATOM      3  C   LIG    1       -3.601   0.214  -0.608  0.00  0.00    +0.047 C 
ATOM      4  C   LIG    1       -3.990   1.323   0.386  0.00  0.00    +0.023 C 
ATOM      5  C   LIG    1       -4.313  -0.993  -0.100  0.00  0.00    -0.020 C 
ATOM      6  C   LIG    1       -3.931  -1.520   1.256  0.00  0.00    +0.194 C 
ATOM      7  C   LIG    1       -2.438  -1.553   1.413  0.00  0.00    +0.048 C 
ATOM      8  C   LIG    1       -1.763  -0.298   0.905  0.00  0.00    +0.037 C 
ATOM      9  C   LIG    1       -0.275  -0.459   1.058  0.00  0.00    +0.006 C 
ATOM     10  C   LIG    1        0.264  -0.483   2.428  0.00  0.00    +0.012 C 
ATOM     11  C   LIG    1        1.776  -0.390   2.095  0.00  0.00    +0.039 C 
ATOM     12  C   LIG    1        2.137  -1.840   1.752  0.00  0.00    +0.012 C 
ATOM     13  C   LIG    1        1.860   0.468   0.858  0.00  0.00    +0.189 C 
ATOM     14  C   LIG    1        0.421   0.745   0.470  0.00  0.00    +0.022 C 
ATOM     15  C   LIG    1        0.005   2.049   1.042  0.00  0.00    +0.016 C 
ATOM     16  C   LIG    1        0.202   0.654  -1.019  0.00  0.00    +0.046 C 
ATOM     17  C   LIG    1       -1.249   0.756  -1.321  0.00  0.00    +0.154 C 
ATOM     18  F   LIG    1       -4.375  -2.837   1.408  0.00  0.00    -0.241 F 
ATOM     19  C   LIG    1       -5.246  -1.647  -0.745  0.00  0.00    +0.054 C 
ATOM     20  C   LIG    1       -2.142  -0.131  -0.534  0.00  0.00    +0.153 C 
ATOM     21  F   LIG    1       -2.038  -1.413  -1.105  0.00  0.00    -0.238 F 
ATOM     22  C   LIG    1       -5.626  -1.167  -2.064  0.00  0.00    +0.179 C 
ATOM     23  O   LIG    1       -6.534  -1.780  -2.723  0.00  0.00    -0.288 OA
ENDROOT
BRANCH  13  24
ATOM     24  C   LIG    1        2.595   1.729   1.084  0.00  0.00    +0.236 C 
ATOM     25  O   LIG    1        2.332   2.463   2.016  0.00  0.00    -0.281 OA
BRANCH  24  26
ATOM     26  S   LIG    1        3.927   2.266  -0.005  0.00  0.00    -0.051 S 
BRANCH  26  27
ATOM     27  C   LIG    1        4.614   3.828   0.539  0.00  0.00    +0.290 C 
ATOM     28  F   LIG    1        3.722   4.879   0.435  0.00  0.00    -0.237 F 
ENDBRANCH  26  27
ENDBRANCH  24  26
ENDBRANCH  13  24
BRANCH  17  29
ATOM     29  O   LIG    1       -1.624   2.096  -1.355  0.00  0.00    -0.389 OA
ATOM     30  H   LIG    1       -1.101   2.515  -2.099  0.00  0.00    +0.210 HD
ENDBRANCH  17  29
BRANCH  13  31
ATOM     31  O   LIG    1        2.532  -0.204  -0.201  0.00  0.00    -0.443 OA
BRANCH  31  32
ATOM     32  C   LIG    1        3.845  -0.580  -0.168  0.00  0.00    +0.376 C 
ATOM     33  O   LIG    1        4.526  -0.320   0.867  0.00  0.00    -0.241 OA
BRANCH  32  34
ATOM     34  C   LIG    1        4.527  -1.267  -1.252  0.00  0.00    +0.211 A 
ATOM     35  C   LIG    1        5.836  -1.677  -1.296  0.00  0.00    +0.056 A 
ATOM     36  C   LIG    1        6.030  -2.291  -2.541  0.00  0.00    +0.042 A 
ATOM     37  C   LIG    1        4.806  -2.205  -3.167  0.00  0.00    +0.196 A 
ATOM     38  O   LIG    1        3.960  -1.603  -2.383  0.00  0.00    -0.456 OA
ENDBRANCH  32  34
ENDBRANCH  31  32
ENDBRANCH  13  31
TORSDOF 7
