REMARK  Name = molecules/XUBOMFCQGDBHNK-JTQLQIEISA-N.pdb
REMARK                            x       y       z     vdW  Elec       q    Type
REMARK                         _______ _______ _______ _____ _____    ______ ____
ROOT
ATOM      1  C   LIG    1       -0.208  -0.208  -0.228  0.00  0.00    +0.168 A 
ATOM      2  C   LIG    1       -1.445   0.376  -0.089  0.00  0.00    +0.097 A 
ATOM      3  C   LIG    1       -1.548   1.735   0.150  0.00  0.00    +0.052 A 
ATOM      4  C   LIG    1       -2.769   2.372   0.306  0.00  0.00    +0.204 A 
ATOM      5  O   LIG    1       -2.772   3.618   0.520  0.00  0.00    -0.286 OA
ATOM      6  C   LIG    1       -3.947   1.681   0.233  0.00  0.00    +0.122 A 
ATOM      7  C   LIG    1       -3.817   0.307  -0.006  0.00  0.00    +0.105 A 
ATOM      8  C   LIG    1       -0.403   2.509   0.253  0.00  0.00    +0.054 A 
ATOM      9  C   LIG    1        0.830   1.909   0.116  0.00  0.00    +0.149 A 
ATOM     10  F   LIG    1        1.867   2.774   0.255  0.00  0.00    -0.203 F 
ATOM     11  N   LIG    1       -2.632  -0.309  -0.156  0.00  0.00    -0.340 N 
ATOM     12  C   LIG    1        0.973   0.543  -0.126  0.00  0.00    +0.110 A 
ENDROOT
BRANCH  12  13
ATOM     13  N   LIG    1        2.234  -0.001  -0.156  0.00  0.00    -0.322 N 
ATOM     14  C   LIG    1        2.672  -1.380  -0.112  0.00  0.00    +0.120 C 
ATOM     15  C   LIG    1        4.006  -1.473   0.655  0.00  0.00    +0.100 C 
ATOM     16  N   LIG    1        4.132  -0.524   1.687  0.00  0.00    -0.311 NA
ATOM     17  H   LIG    1        5.066  -0.572   2.100  0.00  0.00    +0.122 HD
ATOM     18  C   LIG    1        3.919   0.860   1.259  0.00  0.00    +0.068 C 
ATOM     19  C   LIG    1        5.218   1.643   1.342  0.00  0.00    +0.025 C 
ATOM     20  C   LIG    1        3.442   0.803  -0.166  0.00  0.00    +0.123 C 
ENDBRANCH  12  13
BRANCH  11  21
ATOM     21  C   LIG    1       -2.577  -1.728  -0.334  0.00  0.00    +0.088 C 
ATOM     22  C   LIG    1       -3.903  -2.524  -0.229  0.00  0.00    +0.027 C 
ATOM     23  C   LIG    1       -3.242  -2.292  -1.492  0.00  0.00    +0.027 C 
ENDBRANCH  11  21
BRANCH   1  24
ATOM     24  O   LIG    1       -0.072  -1.515  -0.479  0.00  0.00    -0.491 OA
ATOM     25  C   LIG    1        0.008  -2.228  -1.666  0.00  0.00    +0.277 C 
ENDBRANCH   1  24
BRANCH   6  26
ATOM     26  C   LIG    1       -5.230   2.309   0.388  0.00  0.00    +0.342 C 
ATOM     27  O   LIG    1       -5.277   3.546   0.601  0.00  0.00    -0.245 OA
BRANCH  26  28
ATOM     28  O   LIG    1       -6.384   1.576   0.307  0.00  0.00    -0.477 OA
ATOM     29  H   LIG    1       -6.910   1.614  -0.559  0.00  0.00    +0.295 HD
ENDBRANCH  26  28
ENDBRANCH   6  26
TORSDOF 5
