REMARK  Name = molecules/XUFXOAAUWZOOIT-SXARVLRPSA-N.pdb
REMARK                            x       y       z     vdW  Elec       q    Type
REMARK                         _______ _______ _______ _____ _____    ______ ____
ROOT
ATOM      1  O   LIG    1       -0.348  -0.739   0.001  0.00  0.00    -0.340 OA
ENDROOT
BRANCH   1   2
ATOM      2  C   LIG    1        0.924  -0.254  -0.030  0.00  0.00    +0.282 C 
ATOM      3  O   LIG    1        1.484  -0.325   1.245  0.00  0.00    -0.344 OA
ATOM      4  C   LIG    1        2.656   0.383   1.367  0.00  0.00    +0.138 C 
ATOM      5  C   LIG    1        2.272   1.808   1.736  0.00  0.00    +0.039 C 
ATOM      6  C   LIG    1        3.590   0.346   0.215  0.00  0.00    +0.114 C 
ATOM      7  C   LIG    1        3.054  -0.100  -1.100  0.00  0.00    +0.167 C 
ATOM      8  C   LIG    1        1.881  -1.006  -0.898  0.00  0.00    +0.200 C 
BRANCH   6   9
ATOM      9  N   LIG    1        4.791  -0.426   0.472  0.00  0.00    -0.300 NA
ATOM     10  H   LIG    1        5.186  -0.904  -0.339  0.00  0.00    +0.123 HD
BRANCH   9  11
ATOM     11  C   LIG    1        5.743   0.176   1.339  0.00  0.00    +0.109 C 
ATOM     12  C   LIG    1        6.826  -0.829   1.538  0.00  0.00    -0.002 C 
ATOM     13  C   LIG    1        7.837  -0.914   0.697  0.00  0.00    -0.016 C 
ATOM     14  C   LIG    1        7.997  -0.051  -0.495  0.00  0.00    +0.173 C 
ATOM     15  C   LIG    1        6.905   0.983  -0.635  0.00  0.00    +0.177 C 
ATOM     16  C   LIG    1        6.457   1.375   0.744  0.00  0.00    +0.166 C 
BRANCH  16  17
ATOM     17  O   LIG    1        5.785   2.556   0.838  0.00  0.00    -0.387 OA
ATOM     18  H   LIG    1        6.075   3.055   1.616  0.00  0.00    +0.210 HD
ENDBRANCH  16  17
BRANCH  14  19
ATOM     19  O   LIG    1        8.088  -0.794  -1.672  0.00  0.00    -0.385 OA
ATOM     20  H   LIG    1        8.955  -0.712  -2.111  0.00  0.00    +0.210 HD
ENDBRANCH  14  19
BRANCH  15  21
ATOM     21  O   LIG    1        7.521   2.131  -1.192  0.00  0.00    -0.386 OA
ATOM     22  H   LIG    1        6.985   2.940  -0.966  0.00  0.00    +0.210 HD
ENDBRANCH  15  21
BRANCH  13  23
ATOM     23  C   LIG    1        8.895  -1.933   0.939  0.00  0.00    +0.189 C 
BRANCH  23  24
ATOM     24  O   LIG    1        8.989  -2.829  -0.138  0.00  0.00    -0.391 OA
ATOM     25  H   LIG    1        8.089  -3.048  -0.498  0.00  0.00    +0.210 HD
ENDBRANCH  23  24
ENDBRANCH  13  23
ENDBRANCH   9  11
ENDBRANCH   6   9
BRANCH   8  26
ATOM     26  O   LIG    1        2.314  -2.132  -0.164  0.00  0.00    -0.384 OA
ATOM     27  H   LIG    1        1.839  -2.216   0.694  0.00  0.00    +0.210 HD
ENDBRANCH   8  26
BRANCH   7  28
ATOM     28  O   LIG    1        2.586   1.016  -1.821  0.00  0.00    -0.387 OA
ATOM     29  H   LIG    1        3.353   1.305  -2.409  0.00  0.00    +0.210 HD
ENDBRANCH   7  28
ENDBRANCH   1   2
BRANCH   1  30
ATOM     30  C   LIG    1       -1.333   0.230  -0.205  0.00  0.00    +0.183 C 
ATOM     31  C   LIG    1       -2.266   0.344   0.959  0.00  0.00    +0.178 C 
ATOM     32  O   LIG    1       -3.272  -0.610   0.982  0.00  0.00    -0.341 OA
ATOM     33  C   LIG    1       -4.005  -0.540  -0.202  0.00  0.00    +0.282 C 
ATOM     34  C   LIG    1       -3.106  -1.059  -1.301  0.00  0.00    +0.201 C 
ATOM     35  C   LIG    1       -1.998  -0.095  -1.520  0.00  0.00    +0.179 C 
BRANCH  35  36
ATOM     36  O   LIG    1       -2.365   1.044  -2.232  0.00  0.00    -0.386 OA
ATOM     37  H   LIG    1       -2.294   0.841  -3.200  0.00  0.00    +0.210 HD
ENDBRANCH  35  36
BRANCH  34  38
ATOM     38  O   LIG    1       -2.526  -2.254  -0.829  0.00  0.00    -0.384 OA
ATOM     39  H   LIG    1       -2.599  -2.303   0.140  0.00  0.00    +0.210 HD
ENDBRANCH  34  38
BRANCH  31  40
ATOM     40  C   LIG    1       -2.724   1.750   1.154  0.00  0.00    +0.190 C 
BRANCH  40  41
ATOM     41  O   LIG    1       -1.625   2.613   1.107  0.00  0.00    -0.392 OA
ATOM     42  H   LIG    1       -1.683   3.258   0.345  0.00  0.00    +0.210 HD
ENDBRANCH  40  41
ENDBRANCH  31  40
BRANCH  33  43
ATOM     43  O   LIG    1       -5.123  -1.352  -0.193  0.00  0.00    -0.340 OA
BRANCH  43  44
ATOM     44  C   LIG    1       -6.296  -0.722  -0.494  0.00  0.00    +0.183 C 
ATOM     45  C   LIG    1       -7.266  -0.912   0.649  0.00  0.00    +0.178 C 
ATOM     46  O   LIG    1       -8.234   0.073   0.560  0.00  0.00    -0.341 OA
ATOM     47  C   LIG    1       -8.564   0.464  -0.707  0.00  0.00    +0.279 C 
ATOM     48  C   LIG    1       -8.382  -0.584  -1.775  0.00  0.00    +0.201 C 
ATOM     49  C   LIG    1       -6.994  -1.202  -1.737  0.00  0.00    +0.179 C 
BRANCH  49  50
ATOM     50  O   LIG    1       -6.340  -0.817  -2.906  0.00  0.00    -0.386 OA
ATOM     51  H   LIG    1       -6.580   0.100  -3.183  0.00  0.00    +0.210 HD
ENDBRANCH  49  50
BRANCH  48  52
ATOM     52  O   LIG    1       -9.368  -1.560  -1.705  0.00  0.00    -0.384 OA
ATOM     53  H   LIG    1       -9.943  -1.570  -2.485  0.00  0.00    +0.210 HD
ENDBRANCH  48  52
BRANCH  47  54
ATOM     54  O   LIG    1       -7.940   1.649  -1.116  0.00  0.00    -0.365 OA
ATOM     55  H   LIG    1       -8.227   1.831  -2.043  0.00  0.00    +0.213 HD
ENDBRANCH  47  54
BRANCH  45  56
ATOM     56  C   LIG    1       -6.574  -0.806   1.974  0.00  0.00    +0.190 C 
BRANCH  56  57
ATOM     57  O   LIG    1       -5.955   0.412   2.178  0.00  0.00    -0.392 OA
ATOM     58  H   LIG    1       -5.745   0.435   3.168  0.00  0.00    +0.210 HD
ENDBRANCH  56  57
ENDBRANCH  45  56
ENDBRANCH  43  44
ENDBRANCH  33  43
ENDBRANCH   1  30
TORSDOF 22
