REMARK  Name = molecules/XUIIKFGFIJCVMT-LBPRGKRZSA-N.pdb
REMARK                            x       y       z     vdW  Elec       q    Type
REMARK                         _______ _______ _______ _____ _____    ______ ____
ROOT
ATOM      1  C   LIG    1        0.382   0.522   0.427  0.00  0.00    +0.155 A 
ATOM      2  C   LIG    1       -0.246  -0.538   1.042  0.00  0.00    +0.057 A 
ATOM      3  I   LIG    1        0.600  -1.341   2.776  0.00  0.00    -0.040 I 
ATOM      4  C   LIG    1       -1.417  -1.057   0.511  0.00  0.00    +0.021 A 
ATOM      5  C   LIG    1       -1.951  -0.509  -0.630  0.00  0.00    -0.043 A 
ATOM      6  C   LIG    1       -1.328   0.559  -1.258  0.00  0.00    +0.021 A 
ATOM      7  C   LIG    1       -0.172   1.055  -0.717  0.00  0.00    +0.057 A 
ATOM      8  I   LIG    1        0.774   2.684  -1.680  0.00  0.00    -0.040 I 
ENDROOT
BRANCH   1   9
ATOM      9  O   LIG    1        1.552   1.092   0.896  0.00  0.00    -0.454 OA
BRANCH   9  10
ATOM     10  C   LIG    1        2.815   0.676   0.519  0.00  0.00    +0.131 A 
ATOM     11  C   LIG    1        3.899   1.330   1.062  0.00  0.00    +0.064 A 
ATOM     12  C   LIG    1        5.197   0.960   0.724  0.00  0.00    +0.059 A 
ATOM     13  I   LIG    1        6.849   1.981   1.572  0.00  0.00    -0.040 I 
ATOM     14  C   LIG    1        5.358  -0.072  -0.163  0.00  0.00    +0.143 A 
ATOM     15  C   LIG    1        4.306  -0.755  -0.731  0.00  0.00    +0.059 A 
ATOM     16  I   LIG    1        4.648  -2.327  -2.084  0.00  0.00    -0.040 I 
ATOM     17  C   LIG    1        3.017  -0.355  -0.367  0.00  0.00    +0.064 A 
BRANCH  14  18
ATOM     18  O   LIG    1        6.656  -0.437  -0.497  0.00  0.00    -0.505 OA
ATOM     19  H   LIG    1        7.467   0.012  -0.126  0.00  0.00    +0.292 HD
ENDBRANCH  14  18
ENDBRANCH   9  10
ENDBRANCH   1   9
BRANCH   5  20
ATOM     20  C   LIG    1       -3.208  -1.009  -1.272  0.00  0.00    +0.065 C 
BRANCH  20  21
ATOM     21  CA  LIG    1       -4.377  -0.217  -0.687  0.00  0.00    +0.165 C 
BRANCH  21  22
ATOM     22  N   LIG    1       -4.187   1.199  -0.986  0.00  0.00    -0.318 NA
ATOM     23  H1  LIG    1       -3.906   1.722  -0.108  0.00  0.00    +0.119 HD
ATOM     24  H2  LIG    1       -5.061   1.613  -1.379  0.00  0.00    +0.119 HD
ENDBRANCH  21  22
BRANCH  21  25
ATOM     25  C   LIG    1       -4.402  -0.455   0.767  0.00  0.00    +0.322 C 
ATOM     26  OXT LIG    1       -4.223   0.444   1.622  0.00  0.00    -0.249 OA
BRANCH  25  27
ATOM     27  O   LIG    1       -4.639  -1.756   1.202  0.00  0.00    -0.480 OA
ATOM     28  H   LIG    1       -4.865  -1.968   2.173  0.00  0.00    +0.295 HD
ENDBRANCH  25  27
ENDBRANCH  21  25
ENDBRANCH  20  21
ENDBRANCH   5  20
TORSDOF 8
