REMARK  Name = molecules/XUIIKFGFIJCVMT-GFCCVEGCSA-N.pdb
REMARK                            x       y       z     vdW  Elec       q    Type
REMARK                         _______ _______ _______ _____ _____    ______ ____
ROOT
ATOM      1  C   LIG    1        0.604  -1.004  -0.265  0.00  0.00    +0.155 A 
ATOM      2  C   LIG    1       -0.058  -0.744   0.926  0.00  0.00    +0.057 A 
ATOM      3  I   LIG    1        0.721  -1.394   2.756  0.00  0.00    -0.040 I 
ATOM      4  C   LIG    1       -1.251  -0.048   0.921  0.00  0.00    +0.021 A 
ATOM      5  C   LIG    1       -1.761   0.379  -0.287  0.00  0.00    -0.043 A 
ATOM      6  C   LIG    1       -1.104   0.122  -1.470  0.00  0.00    +0.021 A 
ATOM      7  C   LIG    1        0.095  -0.578  -1.473  0.00  0.00    +0.057 A 
ATOM      8  I   LIG    1        1.141  -1.000  -3.232  0.00  0.00    -0.040 I 
ENDROOT
BRANCH   1   9
ATOM      9  O   LIG    1        1.800  -1.706  -0.223  0.00  0.00    -0.454 OA
BRANCH   9  10
ATOM     10  C   LIG    1        2.969  -0.968  -0.090  0.00  0.00    +0.131 A 
ATOM     11  C   LIG    1        2.972   0.417   0.000  0.00  0.00    +0.064 A 
ATOM     12  C   LIG    1        4.169   1.091   0.131  0.00  0.00    +0.059 A 
ATOM     13  I   LIG    1        4.146   3.196   0.264  0.00  0.00    -0.040 I 
ATOM     14  C   LIG    1        5.361   0.388   0.172  0.00  0.00    +0.143 A 
ATOM     15  C   LIG    1        5.372  -0.990   0.084  0.00  0.00    +0.059 A 
ATOM     16  I   LIG    1        7.206  -2.023   0.152  0.00  0.00    -0.040 I 
ATOM     17  C   LIG    1        4.163  -1.650  -0.047  0.00  0.00    +0.064 A 
BRANCH  14  18
ATOM     18  O   LIG    1        6.543   1.122   0.306  0.00  0.00    -0.505 OA
ATOM     19  H   LIG    1        7.447   0.671   0.343  0.00  0.00    +0.292 HD
ENDBRANCH  14  18
ENDBRANCH   9  10
ENDBRANCH   1   9
BRANCH   5  20
ATOM     20  C   LIG    1       -3.044   1.131  -0.319  0.00  0.00    +0.065 C 
BRANCH  20  21
ATOM     21  CA  LIG    1       -4.148   0.098  -0.462  0.00  0.00    +0.165 C 
BRANCH  21  22
ATOM     22  N   LIG    1       -4.158  -0.836   0.622  0.00  0.00    -0.318 NA
ATOM     23  H1  LIG    1       -4.352  -0.380   1.524  0.00  0.00    +0.119 HD
ATOM     24  H2  LIG    1       -3.342  -1.476   0.633  0.00  0.00    +0.119 HD
ENDBRANCH  21  22
BRANCH  21  25
ATOM     25  C   LIG    1       -5.426   0.829  -0.494  0.00  0.00    +0.322 C 
ATOM     26  O   LIG    1       -5.615   1.695  -1.374  0.00  0.00    -0.249 OA
BRANCH  25  27
ATOM     27  OXT LIG    1       -6.398   0.554   0.442  0.00  0.00    -0.480 OA
ATOM     28  HXT LIG    1       -6.794   1.231   1.082  0.00  0.00    +0.295 HD
ENDBRANCH  25  27
ENDBRANCH  21  25
ENDBRANCH  20  21
ENDBRANCH   5  20
TORSDOF 8
