REMARK  Name = molecules/XUKUURHRXDUEBC-KAYWLYCHSA-N.pdb
REMARK                            x       y       z     vdW  Elec       q    Type
REMARK                         _______ _______ _______ _____ _____    ______ ____
ROOT
ATOM      1  C   LIG    1        0.083   0.403  -0.025  0.00  0.00    +0.035 A 
ATOM      2  N   LIG    1        0.475  -0.799   0.490  0.00  0.00    -0.342 N 
ATOM      3  C   LIG    1       -0.657  -1.591   0.646  0.00  0.00    +0.058 A 
ATOM      4  C   LIG    1       -1.756  -0.926   0.252  0.00  0.00    +0.020 A 
ATOM      5  C   LIG    1       -1.308   0.331  -0.165  0.00  0.00    +0.066 A 
ENDROOT
BRANCH   3   6
ATOM      6  C   LIG    1       -0.714  -2.927   1.224  0.00  0.00    -0.001 A 
ATOM      7  C   LIG    1       -0.994  -2.934   2.603  0.00  0.00    +0.013 A 
ATOM      8  C   LIG    1       -1.123  -4.085   3.335  0.00  0.00    +0.039 A 
ATOM      9  C   LIG    1       -0.974  -5.294   2.694  0.00  0.00    +0.123 A 
ATOM     10  F   LIG    1       -1.116  -6.430   3.423  0.00  0.00    -0.205 F 
ATOM     11  C   LIG    1       -0.700  -5.290   1.346  0.00  0.00    +0.039 A 
ATOM     12  C   LIG    1       -0.568  -4.114   0.609  0.00  0.00    +0.013 A 
ENDBRANCH   3   6
BRANCH   4  13
ATOM     13  C   LIG    1       -3.122  -1.428   0.202  0.00  0.00    -0.015 A 
ATOM     14  C   LIG    1       -4.170  -0.910   0.954  0.00  0.00    +0.008 A 
ATOM     15  C   LIG    1       -5.430  -1.447   0.817  0.00  0.00    +0.001 A 
ATOM     16  C   LIG    1       -5.768  -2.484  -0.018  0.00  0.00    +0.000 A 
ATOM     17  C   LIG    1       -4.701  -2.998  -0.771  0.00  0.00    +0.001 A 
ATOM     18  C   LIG    1       -3.448  -2.483  -0.653  0.00  0.00    +0.008 A 
ENDBRANCH   4  13
BRANCH   5  19
ATOM     19  C   LIG    1       -2.339   1.321  -0.515  0.00  0.00    +0.251 C 
ATOM     20  N   LIG    1       -2.565   2.503   0.227  0.00  0.00    -0.281 N 
ATOM     21  H   LIG    1       -1.936   2.643   1.081  0.00  0.00    +0.155 HD
ATOM     22  O   LIG    1       -3.059   1.110  -1.501  0.00  0.00    -0.270 OA
BRANCH  20  23
ATOM     23  C   LIG    1       -3.545   3.472  -0.032  0.00  0.00    +0.034 A 
ATOM     24  C   LIG    1       -4.883   3.170  -0.111  0.00  0.00    +0.023 A 
ATOM     25  C   LIG    1       -5.824   4.150  -0.270  0.00  0.00    +0.002 A 
ATOM     26  C   LIG    1       -5.516   5.499  -0.364  0.00  0.00    +0.000 A 
ATOM     27  C   LIG    1       -4.155   5.818  -0.287  0.00  0.00    +0.002 A 
ATOM     28  C   LIG    1       -3.218   4.834  -0.128  0.00  0.00    +0.023 A 
ENDBRANCH  20  23
ENDBRANCH   5  19
BRANCH   1  29
ATOM     29  C   LIG    1        0.901   1.564  -0.265  0.00  0.00    +0.030 C 
ATOM     30  C   LIG    1        0.445   2.951  -0.180  0.00  0.00    +0.014 C 
ATOM     31  C   LIG    1        1.940   1.403  -1.393  0.00  0.00    +0.014 C 
ENDBRANCH   1  29
BRANCH   2  32
ATOM     32  C   LIG    1        1.703  -1.273   0.985  0.00  0.00    +0.124 C 
BRANCH  32  33
ATOM     33  C   LIG    1        2.722  -2.064   0.342  0.00  0.00    +0.053 C 
BRANCH  33  34
ATOM     34  C   LIG    1        3.617  -1.644  -0.740  0.00  0.00    +0.119 C 
BRANCH  34  35
ATOM     35  O   LIG    1        3.133  -1.717  -2.023  0.00  0.00    -0.392 OA
ATOM     36  H   LIG    1        2.442  -2.438  -2.100  0.00  0.00    +0.210 HD
ENDBRANCH  34  35
BRANCH  34  37
ATOM     37  C   LIG    1        4.499  -0.508  -0.392  0.00  0.00    +0.063 C 
BRANCH  37  38
ATOM     38  C   LIG    1        5.429  -0.003  -1.458  0.00  0.00    +0.128 C 
BRANCH  38  39
ATOM     39  O   LIG    1        4.836   0.462  -2.602  0.00  0.00    -0.391 OA
ATOM     40  H   LIG    1        4.857   1.450  -2.725  0.00  0.00    +0.210 HD
ENDBRANCH  38  39
BRANCH  38  41
ATOM     41  C   LIG    1        6.353   1.014  -0.793  0.00  0.00    +0.151 C 
BRANCH  41  42
ATOM     42  C   LIG    1        7.318   1.629  -1.700  0.00  0.00    +0.307 C 
ATOM     43  O   LIG    1        7.371   1.405  -2.942  0.00  0.00    -0.251 OA
BRANCH  42  44
ATOM     44  O   LIG    1        8.261   2.532  -1.190  0.00  0.00    -0.481 OA
ATOM     45  H   LIG    1        8.356   2.630  -0.166  0.00  0.00    +0.295 HD
ENDBRANCH  42  44
ENDBRANCH  41  42
ENDBRANCH  38  41
ENDBRANCH  37  38
ENDBRANCH  34  37
ENDBRANCH  33  34
ENDBRANCH  32  33
ENDBRANCH   2  32
TORSDOF 15
