REMARK  Name = molecules/XURCMZMFZXXQDJ-UKNJCJGYSA-N.pdb
REMARK                            x       y       z     vdW  Elec       q    Type
REMARK                         _______ _______ _______ _____ _____    ______ ____
ROOT
ATOM      1  C   LIG    1        1.195   0.179  -1.551  0.00  0.00    +0.176 C 
ATOM      2  C   LIG    1       -0.275  -0.213  -1.480  0.00  0.00    +0.018 C 
ATOM      3  C   LIG    1       -0.544  -1.397  -0.628  0.00  0.00    +0.011 C 
ATOM      4  C   LIG    1       -2.059  -1.567  -0.578  0.00  0.00    +0.005 C 
ATOM      5  C   LIG    1       -2.614  -0.359   0.111  0.00  0.00    -0.000 C 
ATOM      6  C   LIG    1       -4.113  -0.380   0.257  0.00  0.00    +0.019 C 
ATOM      7  C   LIG    1       -4.394   0.554   1.395  0.00  0.00    -0.063 C 
ATOM      8  C   LIG    1       -5.389   0.396   2.233  0.00  0.00    +0.045 C 
ATOM      9  C   LIG    1       -6.294  -0.763   2.064  0.00  0.00    +0.156 C 
ATOM     10  O   LIG    1       -7.125  -1.086   2.955  0.00  0.00    -0.293 OA
ATOM     11  C   LIG    1       -6.177  -1.522   0.800  0.00  0.00    +0.079 C 
ATOM     12  C   LIG    1       -3.469   1.696   1.546  0.00  0.00    +0.031 C 
ATOM     13  C   LIG    1       -2.755   2.079   0.292  0.00  0.00    +0.008 C 
ATOM     14  C   LIG    1       -4.690  -1.746   0.521  0.00  0.00    +0.016 C 
ATOM     15  C   LIG    1       -2.252   0.938  -0.544  0.00  0.00    -0.003 C 
ATOM     16  C   LIG    1       -0.775   1.017  -0.703  0.00  0.00    +0.003 C 
ATOM     17  C   LIG    1       -0.279   2.103  -1.619  0.00  0.00    +0.009 C 
ATOM     18  C   LIG    1       -0.854  -0.279  -2.845  0.00  0.00    +0.016 C 
ATOM     19  C   LIG    1        1.091   1.572  -2.077  0.00  0.00    +0.057 C 
ENDROOT
BRANCH   1  20
ATOM     20  C   LIG    1        2.039  -0.750  -2.276  0.00  0.00    +0.174 C 
ATOM     21  O   LIG    1        2.913  -1.342  -1.615  0.00  0.00    -0.293 OA
ATOM     22  C   LIG    1        2.018  -1.106  -3.700  0.00  0.00    +0.090 C 
ENDBRANCH   1  20
BRANCH   1  23
ATOM     23  O   LIG    1        1.589   0.291  -0.174  0.00  0.00    -0.450 OA
BRANCH  23  24
ATOM     24  C   LIG    1        2.861   0.738   0.125  0.00  0.00    +0.308 C 
ATOM     25  O   LIG    1        3.621   1.031  -0.828  0.00  0.00    -0.251 OA
BRANCH  24  26
ATOM     26  C   LIG    1        3.339   0.876   1.523  0.00  0.00    +0.120 C 
BRANCH  26  27
ATOM     27  C   LIG    1        4.744   1.360   1.639  0.00  0.00    +0.011 C 
BRANCH  27  28
ATOM     28  C   LIG    1        5.768   0.478   0.995  0.00  0.00    +0.000 C 
BRANCH  28  29
ATOM     29  C   LIG    1        5.764  -0.916   1.602  0.00  0.00    -0.003 C 
ATOM     30  C   LIG    1        6.820  -1.748   0.905  0.00  0.00    +0.004 C 
ENDBRANCH  28  29
ENDBRANCH  27  28
ENDBRANCH  26  27
ENDBRANCH  24  26
ENDBRANCH  23  24
ENDBRANCH   1  23
TORSDOF 7
