REMARK  Name = molecules/XUSPWDAHGXSTHS-UHFFFAOYSA-N.pdb
REMARK                            x       y       z     vdW  Elec       q    Type
REMARK                         _______ _______ _______ _____ _____    ______ ____
ROOT
ATOM      1  C   LIG    1        0.286   0.356  -0.609  0.00  0.00    -0.004 C 
ENDROOT
BRANCH   1   2
ATOM      2  C   LIG    1       -1.122  -0.195  -0.866  0.00  0.00    -0.018 C 
BRANCH   2   3
ATOM      3  C   LIG    1       -2.019   0.468   0.143  0.00  0.00    -0.076 C 
BRANCH   3   4
ATOM      4  N   LIG    1       -3.390   0.070   0.054  0.00  0.00    +0.374 N 
ATOM      5  C   LIG    1       -3.980   0.292   1.381  0.00  0.00    -0.093 C 
ATOM      6  C   LIG    1       -3.557  -1.340  -0.228  0.00  0.00    -0.093 C 
ATOM      7  C   LIG    1       -4.166   0.829  -0.880  0.00  0.00    -0.093 C 
ENDBRANCH   3   4
ENDBRANCH   2   3
ENDBRANCH   1   2
BRANCH   1   8
ATOM      8  C   LIG    1        1.284  -0.234  -1.561  0.00  0.00    -0.018 C 
BRANCH   8   9
ATOM      9  C   LIG    1        2.675   0.245  -1.381  0.00  0.00    -0.076 C 
BRANCH   9  10
ATOM     10  N   LIG    1        3.283  -0.005  -0.114  0.00  0.00    +0.374 N 
ATOM     11  C   LIG    1        2.936   0.926   0.924  0.00  0.00    -0.093 C 
ATOM     12  C   LIG    1        3.122  -1.379   0.329  0.00  0.00    -0.093 C 
ATOM     13  C   LIG    1        4.733   0.150  -0.337  0.00  0.00    -0.093 C 
ENDBRANCH   9  10
ENDBRANCH   8   9
ENDBRANCH   1   8
TORSDOF 6
