REMARK  Name = molecules/XVAMCHGMPYWHNL-MKPDMIMOSA-N.pdb
REMARK                            x       y       z     vdW  Elec       q    Type
REMARK                         _______ _______ _______ _____ _____    ______ ____
ROOT
ATOM      1  C   LIG    1        0.929   1.821   0.178  0.00  0.00    +0.168 A 
ATOM      2  N   LIG    1        0.986   3.111   0.534  0.00  0.00    -0.208 NA
ATOM      3  C   LIG    1       -0.097   3.906   0.657  0.00  0.00    +0.164 A 
ATOM      4  N   LIG    1       -1.273   3.329   0.398  0.00  0.00    -0.208 NA
ATOM      5  C   LIG    1       -1.401   2.016   0.030  0.00  0.00    +0.168 A 
ATOM      6  N   LIG    1       -0.277   1.285  -0.071  0.00  0.00    -0.208 NA
ENDROOT
BRANCH   1   8
ATOM      7  C   LIG    1        2.216  -0.239  -0.421  0.00  0.00    +0.131 A 
ATOM      8  C   LIG    1        2.143   1.055   0.051  0.00  0.00    +0.061 A 
ATOM      9  C   LIG    1        3.325   1.684   0.423  0.00  0.00    +0.019 A 
ATOM     10  C   LIG    1        4.522   1.059   0.330  0.00  0.00    +0.046 A 
ATOM     11  C   LIG    1        4.608  -0.234  -0.141  0.00  0.00    +0.124 A 
ATOM     12  C   LIG    1        3.441  -0.859  -0.508  0.00  0.00    +0.091 A 
BRANCH   7  13
ATOM     13  O   LIG    1        1.079  -0.888  -0.795  0.00  0.00    -0.506 OA
ATOM     14  H   LIG    1        1.105  -1.835  -1.143  0.00  0.00    +0.292 HD
ENDBRANCH   7  13
BRANCH  11  15
ATOM     15  O   LIG    1        5.847  -0.825  -0.217  0.00  0.00    -0.492 OA
BRANCH  15  16
ATOM     16  C   LIG    1        5.969  -2.167  -0.706  0.00  0.00    +0.232 C 
BRANCH  16  17
ATOM     17  C   LIG    1        7.433  -2.597  -0.695  0.00  0.00    +0.026 C 
BRANCH  17  18
ATOM     18  C   LIG    1        8.245  -1.728  -1.607  0.00  0.00    +0.003 C 
ATOM     19  C   LIG    1        7.673  -1.845  -3.029  0.00  0.00    +0.004 C 
ENDBRANCH  17  18
BRANCH  17  20
ATOM     20  C   LIG    1        7.989  -2.547   0.698  0.00  0.00    +0.007 C 
BRANCH  20  21
ATOM     21  C   LIG    1        9.423  -2.972   0.698  0.00  0.00    +0.000 C 
BRANCH  21  22
ATOM     22  C   LIG    1       10.004  -2.962   2.116  0.00  0.00    -0.003 C 
ATOM     23  C   LIG    1       11.444  -3.407   1.975  0.00  0.00    +0.004 C 
ENDBRANCH  21  22
ENDBRANCH  20  21
ENDBRANCH  17  20
ENDBRANCH  16  17
ENDBRANCH  15  16
ENDBRANCH  11  15
ENDBRANCH   1   8
BRANCH   5  24
ATOM     24  C   LIG    1       -2.697   1.462  -0.221  0.00  0.00    +0.061 A 
ATOM     25  C   LIG    1       -3.813   2.311  -0.174  0.00  0.00    +0.019 A 
ATOM     26  C   LIG    1       -5.099   1.870  -0.396  0.00  0.00    +0.046 A 
ATOM     27  C   LIG    1       -5.309   0.538  -0.678  0.00  0.00    +0.124 A 
ATOM     28  C   LIG    1       -4.232  -0.309  -0.729  0.00  0.00    +0.091 A 
ATOM     29  C   LIG    1       -2.926   0.148  -0.501  0.00  0.00    +0.131 A 
BRANCH  29  30
ATOM     30  O   LIG    1       -1.873  -0.748  -0.564  0.00  0.00    -0.506 OA
ATOM     31  H   LIG    1       -1.980  -1.725  -0.764  0.00  0.00    +0.292 HD
ENDBRANCH  29  30
BRANCH  27  32
ATOM     32  O   LIG    1       -6.594   0.102  -0.901  0.00  0.00    -0.492 OA
BRANCH  32  33
ATOM     33  C   LIG    1       -6.899  -1.256  -1.196  0.00  0.00    +0.232 C 
BRANCH  33  34
ATOM     34  C   LIG    1       -8.355  -1.479  -1.403  0.00  0.00    +0.026 C 
BRANCH  34  35
ATOM     35  C   LIG    1       -9.084  -1.103  -0.123  0.00  0.00    +0.003 C 
ATOM     36  C   LIG    1      -10.568  -1.298  -0.239  0.00  0.00    +0.004 C 
ENDBRANCH  34  35
BRANCH  34  37
ATOM     37  C   LIG    1       -8.686  -2.907  -1.721  0.00  0.00    +0.007 C 
BRANCH  37  38
ATOM     38  C   LIG    1       -8.266  -3.814  -0.612  0.00  0.00    +0.000 C 
BRANCH  38  39
ATOM     39  C   LIG    1       -8.621  -5.271  -0.936  0.00  0.00    -0.003 C 
ATOM     40  C   LIG    1       -8.145  -6.082   0.261  0.00  0.00    +0.004 C 
ENDBRANCH  38  39
ENDBRANCH  37  38
ENDBRANCH  34  37
ENDBRANCH  33  34
ENDBRANCH  32  33
ENDBRANCH  27  32
ENDBRANCH   5  24
BRANCH   3  41
ATOM     41  C   LIG    1        0.022   5.307   1.044  0.00  0.00    +0.019 A 
ATOM     42  C   LIG    1        1.230   5.882   1.300  0.00  0.00    +0.015 A 
ATOM     43  C   LIG    1        1.342   7.228   1.668  0.00  0.00    +0.046 A 
ATOM     44  C   LIG    1        0.206   7.994   1.777  0.00  0.00    +0.120 A 
ATOM     45  C   LIG    1       -1.024   7.429   1.522  0.00  0.00    +0.046 A 
ATOM     46  C   LIG    1       -1.105   6.092   1.159  0.00  0.00    +0.015 A 
BRANCH  44  47
ATOM     47  O   LIG    1        0.325   9.319   2.140  0.00  0.00    -0.495 OA
ATOM     48  C   LIG    1        1.603   9.865   2.392  0.00  0.00    +0.277 C 
ENDBRANCH  44  47
ENDBRANCH   3  41
TORSDOF 20
