REMARK  Name = molecules/XVGOZDAJGBALKS-UHFFFAOYSA-N.pdb
REMARK                            x       y       z     vdW  Elec       q    Type
REMARK                         _______ _______ _______ _____ _____    ______ ____
ROOT
ATOM      1  C   LIG    1       -1.312   0.752  -0.385  0.00  0.00    -0.010 A 
ATOM      2  C   LIG    1       -1.901  -0.419   0.014  0.00  0.00    -0.018 A 
ATOM      3  C   LIG    1       -1.143  -1.524   0.354  0.00  0.00    +0.047 A 
ATOM      4  C   LIG    1       -1.278  -2.909   0.814  0.00  0.00    +0.056 C 
ATOM      5  C   LIG    1       -2.643  -3.491   0.776  0.00  0.00    +0.006 C 
ATOM      6  C   LIG    1       -3.674  -2.712   1.527  0.00  0.00    +0.000 C 
ATOM      7  C   LIG    1       -4.724  -2.112   0.622  0.00  0.00    +0.000 C 
ATOM      8  C   LIG    1       -4.098  -1.410  -0.566  0.00  0.00    +0.005 C 
ATOM      9  N   LIG    1        0.191  -1.383   0.269  0.00  0.00    -0.237 NA
ATOM     10  C   LIG    1        0.816  -0.252  -0.120  0.00  0.00    +0.122 A 
ATOM     11  C   LIG    1       -3.342  -0.188  -0.063  0.00  0.00    +0.037 C 
ATOM     12  C   LIG    1        0.081   0.855  -0.461  0.00  0.00    +0.052 A 
ENDROOT
BRANCH   1  17
ATOM     13  F   LIG    1       -4.143   5.444  -1.582  0.00  0.00    -0.205 F 
ATOM     14  C   LIG    1       -3.452   4.307  -1.291  0.00  0.00    +0.123 A 
ATOM     15  C   LIG    1       -3.480   3.729  -0.042  0.00  0.00    +0.039 A 
ATOM     16  C   LIG    1       -2.788   2.582   0.270  0.00  0.00    +0.011 A 
ATOM     17  C   LIG    1       -2.037   1.987  -0.713  0.00  0.00    -0.017 A 
ATOM     18  C   LIG    1       -1.977   2.528  -1.980  0.00  0.00    +0.011 A 
ATOM     19  C   LIG    1       -2.679   3.671  -2.250  0.00  0.00    +0.039 A 
ENDBRANCH   1  17
BRANCH  10  20
ATOM     20  N   LIG    1        2.226  -0.204  -0.170  0.00  0.00    -0.313 N 
ATOM     21  C   LIG    1        3.036  -1.422  -0.092  0.00  0.00    +0.122 C 
ATOM     22  C   LIG    1        4.129  -1.282   0.914  0.00  0.00    +0.103 C 
ATOM     23  N   LIG    1        4.861  -0.056   0.805  0.00  0.00    -0.300 NA
ATOM     24  C   LIG    1        4.011   1.083   0.771  0.00  0.00    +0.103 C 
ATOM     25  C   LIG    1        2.931   1.041  -0.292  0.00  0.00    +0.122 C 
BRANCH  23  26
ATOM     26  C   LIG    1        5.932  -0.073  -0.130  0.00  0.00    +0.081 C 
ATOM     27  C   LIG    1        6.636   1.246  -0.180  0.00  0.00    +0.020 C 
ENDBRANCH  23  26
ENDBRANCH  10  20
TORSDOF 3
