REMARK  Name = molecules/XWVOEFLBOSSYGM-UHFFFAOYSA-N.pdb
REMARK                            x       y       z     vdW  Elec       q    Type
REMARK                         _______ _______ _______ _____ _____    ______ ____
ROOT
ATOM      1  C   LIG    1       -0.092  -0.602  -0.178  0.00  0.00    +0.044 A 
ATOM      2  C   LIG    1        0.494  -1.841   0.077  0.00  0.00    +0.062 A 
ATOM      3  C   LIG    1        1.789  -1.957   0.515  0.00  0.00    +0.166 A 
ATOM      4  C   LIG    1        2.572  -0.848   0.722  0.00  0.00    +0.204 A 
ATOM      5  C   LIG    1        2.026   0.366   0.481  0.00  0.00    +0.166 A 
ATOM      6  C   LIG    1        0.706   0.480   0.035  0.00  0.00    +0.062 A 
ENDROOT
BRANCH   1   7
ATOM      7  C   LIG    1       -1.452  -0.571  -0.634  0.00  0.00    +0.247 C 
ATOM      8  O   LIG    1       -2.014  -1.749  -0.762  0.00  0.00    -0.270 OA
ATOM      9  N   LIG    1       -2.288   0.495  -0.968  0.00  0.00    -0.293 N 
ATOM     10  C   LIG    1       -1.997   1.898  -0.942  0.00  0.00    +0.136 C 
ATOM     11  C   LIG    1       -3.292   2.661  -1.293  0.00  0.00    +0.179 C 
ATOM     12  O   LIG    1       -3.744   2.326  -2.563  0.00  0.00    -0.377 OA
ATOM     13  C   LIG    1       -3.862   0.948  -2.724  0.00  0.00    +0.179 C 
ATOM     14  C   LIG    1       -3.687   0.212  -1.419  0.00  0.00    +0.136 C 
ENDBRANCH   1   7
BRANCH   3  15
ATOM     15  O   LIG    1        2.366  -3.201   0.768  0.00  0.00    -0.491 OA
ATOM     16  C   LIG    1        1.583  -4.357   0.564  0.00  0.00    +0.277 C 
ENDBRANCH   3  15
BRANCH   4  17
ATOM     17  O   LIG    1        3.873  -0.950   1.161  0.00  0.00    -0.488 OA
ATOM     18  C   LIG    1        4.213  -0.951   2.534  0.00  0.00    +0.277 C 
ENDBRANCH   4  17
BRANCH   5  19
ATOM     19  O   LIG    1        2.748   1.519   0.666  0.00  0.00    -0.491 OA
ATOM     20  C   LIG    1        2.300   2.819   0.453  0.00  0.00    +0.277 C 
ENDBRANCH   5  19
TORSDOF 4
