REMARK  Name = molecules/XWXYUMMDTVBTOU-UHFFFAOYSA-N.pdb
REMARK                            x       y       z     vdW  Elec       q    Type
REMARK                         _______ _______ _______ _____ _____    ______ ____
ROOT
ATOM      1  C   LIG    1        1.388   0.725  -0.070  0.00  0.00    +0.038 A 
ATOM      2  C   LIG    1        2.781   0.722   0.094  0.00  0.00    +0.087 A 
ATOM      3  C   LIG    1        3.491  -0.446   0.248  0.00  0.00    +0.138 A 
ATOM      4  C   LIG    1        2.749  -1.640   0.234  0.00  0.00    +0.035 A 
ATOM      5  C   LIG    1        1.383  -1.619   0.072  0.00  0.00    +0.026 A 
ATOM      6  C   LIG    1        0.673  -0.448  -0.083  0.00  0.00    +0.046 A 
ENDROOT
BRANCH   6   7
ATOM      7  N   LIG    1       -0.763  -0.438  -0.251  0.00  0.00    -0.192 N 
ATOM      8  C   LIG    1       -1.699   0.343   0.475  0.00  0.00    +0.250 C 
ATOM      9  O   LIG    1       -1.459   1.166   1.396  0.00  0.00    -0.272 OA
ATOM     10  C   LIG    1       -3.052   0.044  -0.020  0.00  0.00    +0.107 C 
ATOM     11  C   LIG    1       -3.933  -0.585   1.044  0.00  0.00    +0.041 C 
ATOM     12  C   LIG    1       -3.729   1.237  -0.662  0.00  0.00    +0.041 C 
ATOM     13  N   LIG    1       -2.882  -0.945  -1.060  0.00  0.00    -0.285 N 
ATOM     14  H   LIG    1       -3.680  -1.351  -1.594  0.00  0.00    +0.151 HD
ATOM     15  C   LIG    1       -1.514  -1.208  -1.174  0.00  0.00    +0.314 C 
ATOM     16  O   LIG    1       -0.961  -2.029  -1.990  0.00  0.00    -0.252 OA
ENDBRANCH   6   7
BRANCH   2  17
ATOM     17  C   LIG    1        3.486   2.019   0.117  0.00  0.00    +0.420 C 
ATOM     18  F   LIG    1        3.945   2.260   1.414  0.00  0.00    -0.166 F 
ATOM     19  F   LIG    1        2.558   3.048  -0.106  0.00  0.00    -0.166 F 
ATOM     20  F   LIG    1        4.504   2.097  -0.789  0.00  0.00    -0.166 F 
ENDBRANCH   2  17
BRANCH   3  21
ATOM     21  N   LIG    1        4.902  -0.501   0.400  0.00  0.00    +0.057 N 
ATOM     22  O   LIG    1        5.557   0.375   0.969  0.00  0.00    -0.126 OA
ATOM     23  O   LIG    1        5.577  -1.592  -0.113  0.00  0.00    -0.126 OA
ENDBRANCH   3  21
TORSDOF 3
