REMARK  Name = molecules/XXEPPPIWZFICOJ-NSHDSACASA-N.pdb
REMARK                            x       y       z     vdW  Elec       q    Type
REMARK                         _______ _______ _______ _____ _____    ______ ____
ROOT
ATOM      1  C   LIG    1        0.917   0.007  -1.001  0.00  0.00    +0.180 C 
ATOM      2  O   LIG    1        0.795   0.638  -2.088  0.00  0.00    -0.290 OA
ENDROOT
BRANCH   1   3
ATOM      3  C   LIG    1        2.191   0.157  -0.298  0.00  0.00    +0.019 A 
ATOM      4  C   LIG    1        2.511  -0.584   0.822  0.00  0.00    +0.011 A 
ATOM      5  C   LIG    1        3.732  -0.418   1.430  0.00  0.00    +0.001 A 
ATOM      6  C   LIG    1        4.651   0.473   0.948  0.00  0.00    +0.000 A 
ATOM      7  C   LIG    1        4.329   1.215  -0.171  0.00  0.00    +0.001 A 
ATOM      8  C   LIG    1        3.120   1.073  -0.798  0.00  0.00    +0.011 A 
ENDBRANCH   1   3
BRANCH   1   9
ATOM      9  C   LIG    1       -0.194  -0.797  -0.533  0.00  0.00    +0.125 C 
ATOM     10  C   LIG    1       -0.827  -1.584  -1.647  0.00  0.00    +0.032 C 
BRANCH   9  11
ATOM     11  N   LIG    1       -1.200  -0.010   0.208  0.00  0.00    -0.293 NA
BRANCH  11  12
ATOM     12  C   LIG    1       -2.120  -1.065   0.655  0.00  0.00    +0.082 C 
ATOM     13  C   LIG    1       -3.243  -0.629   1.504  0.00  0.00    +0.020 C 
ENDBRANCH  11  12
BRANCH  11  14
ATOM     14  C   LIG    1       -1.845   0.938  -0.639  0.00  0.00    +0.082 C 
ATOM     15  C   LIG    1       -2.608   2.032   0.061  0.00  0.00    +0.020 C 
ENDBRANCH  11  14
ENDBRANCH   9  11
ENDBRANCH   1   9
TORSDOF 5
