REMARK  Name = molecules/XXPANQJNYNUNES-CQSZACIVSA-N.pdb
REMARK                            x       y       z     vdW  Elec       q    Type
REMARK                         _______ _______ _______ _____ _____    ______ ____
ROOT
ATOM      1  C   LIG    1       -2.862  -1.109   0.453  0.00  0.00    +0.029 A 
ATOM      2  C   LIG    1       -2.532  -2.454   0.520  0.00  0.00    +0.023 A 
ATOM      3  C   LIG    1       -1.224  -2.895   0.490  0.00  0.00    +0.002 A 
ATOM      4  C   LIG    1       -0.216  -1.955   0.391  0.00  0.00    +0.005 A 
ATOM      5  C   LIG    1       -0.483  -0.619   0.322  0.00  0.00    -0.033 A 
ATOM      6  C   LIG    1        0.547   0.438   0.214  0.00  0.00    +0.063 C 
ATOM      7  C   LIG    1        0.046   1.470  -0.754  0.00  0.00    +0.097 C 
ATOM      8  N   LIG    1       -1.212   2.035  -0.428  0.00  0.00    -0.300 NA
ATOM      9  C   LIG    1       -2.128   1.218   0.282  0.00  0.00    +0.121 C 
ATOM     10  C   LIG    1       -1.156   3.400   0.028  0.00  0.00    +0.105 C 
ATOM     11  C   LIG    1       -1.799  -0.202   0.353  0.00  0.00    -0.009 A 
ENDROOT
BRANCH   6  12
ATOM     12  C   LIG    1        1.876  -0.044  -0.135  0.00  0.00    -0.039 A 
ATOM     13  C   LIG    1        2.774  -0.407   0.876  0.00  0.00    +0.004 A 
ATOM     14  C   LIG    1        4.038  -0.868   0.609  0.00  0.00    +0.000 A 
ATOM     15  C   LIG    1        4.474  -0.991  -0.684  0.00  0.00    +0.000 A 
ATOM     16  C   LIG    1        3.626  -0.646  -1.708  0.00  0.00    +0.000 A 
ATOM     17  C   LIG    1        2.351  -0.182  -1.426  0.00  0.00    +0.004 A 
ENDBRANCH   6  12
BRANCH   1  18
ATOM     18  N   LIG    1       -4.206  -0.683   0.485  0.00  0.00    -0.358 N 
ATOM     19  H   LIG    1       -4.812  -0.977   1.266  0.00  0.00    +0.142 HD
ATOM     20  H   LIG    1       -4.594  -0.083  -0.257  0.00  0.00    +0.142 HD
ENDBRANCH   1  18
TORSDOF 2
