REMARK  Name = molecules/XXRVYAFBUDSLJX-UHFFFAOYSA-N.pdb
REMARK                            x       y       z     vdW  Elec       q    Type
REMARK                         _______ _______ _______ _____ _____    ______ ____
ROOT
ATOM      1  C   LIG    1       -0.882   0.031  -0.448  0.00  0.00    +0.351 C 
ATOM      2  O   LIG    1       -0.641  -0.997  -1.128  0.00  0.00    -0.246 OA
ENDROOT
BRANCH   1   3
ATOM      3  C   LIG    1       -2.255   0.443  -0.058  0.00  0.00    +0.200 C 
ATOM      4  C   LIG    1       -2.278   0.485   1.472  0.00  0.00    +0.067 C 
ATOM      5  C   LIG    1       -2.474   1.841  -0.602  0.00  0.00    +0.067 C 
BRANCH   3   6
ATOM      6  O   LIG    1       -3.189  -0.468  -0.556  0.00  0.00    -0.475 OA
BRANCH   6   7
ATOM      7  C   LIG    1       -4.538  -0.352  -0.358  0.00  0.00    +0.122 A 
ATOM      8  C   LIG    1       -5.153   0.659   0.347  0.00  0.00    +0.047 A 
ATOM      9  C   LIG    1       -6.515   0.741   0.524  0.00  0.00    +0.023 A 
ATOM     10  C   LIG    1       -7.329  -0.245  -0.034  0.00  0.00    +0.041 A 
ATOM     11 CL   LIG    1       -9.051  -0.138   0.192  0.00  0.00    -0.084 Cl
ATOM     12  C   LIG    1       -6.753  -1.267  -0.742  0.00  0.00    +0.023 A 
ATOM     13  C   LIG    1       -5.391  -1.321  -0.902  0.00  0.00    +0.047 A 
ENDBRANCH   6   7
ENDBRANCH   3   6
ENDBRANCH   1   3
BRANCH   1  14
ATOM     14  O   LIG    1        0.166   0.837  -0.027  0.00  0.00    -0.458 OA
BRANCH  14  15
ATOM     15  C   LIG    1        1.526   0.578  -0.317  0.00  0.00    +0.273 C 
BRANCH  15  16
ATOM     16  C   LIG    1        1.990  -0.741   0.231  0.00  0.00    +0.273 C 
BRANCH  16  17
ATOM     17  O   LIG    1        3.328  -0.959  -0.076  0.00  0.00    -0.458 OA
BRANCH  17  18
ATOM     18  C   LIG    1        4.365  -0.142   0.345  0.00  0.00    +0.341 C 
ATOM     19  O   LIG    1        4.170   0.863   1.042  0.00  0.00    -0.245 OA
BRANCH  18  20
ATOM     20  C   LIG    1        5.747  -0.483  -0.051  0.00  0.00    +0.077 A 
ATOM     21  C   LIG    1        6.796   0.308   0.351  0.00  0.00    +0.018 A 
ATOM     22  C   LIG    1        8.080  -0.003  -0.013  0.00  0.00    +0.020 A 
ATOM     23  C   LIG    1        8.308  -1.116  -0.786  0.00  0.00    +0.111 A 
ATOM     24  N   LIG    1        7.261  -1.865  -1.161  0.00  0.00    -0.262 NA
ATOM     25  C   LIG    1        5.987  -1.595  -0.826  0.00  0.00    +0.125 A 
ENDBRANCH  18  20
ENDBRANCH  17  18
ENDBRANCH  16  17
ENDBRANCH  15  16
ENDBRANCH  14  15
ENDBRANCH   1  14
TORSDOF 9
