REMARK  Name = molecules/XXVROGAVTTXONC-NSHDSACASA-N.pdb
REMARK                            x       y       z     vdW  Elec       q    Type
REMARK                         _______ _______ _______ _____ _____    ______ ____
ROOT
ATOM      1  C   LIG    1        0.171  -0.455  -0.095  0.00  0.00    +0.055 C 
ATOM      2  C   LIG    1       -0.254  -1.246  -1.282  0.00  0.00    +0.024 C 
ENDROOT
BRANCH   1   3
ATOM      3  N   LIG    1        1.455  -0.911   0.368  0.00  0.00    -0.313 NA
ATOM      4  H   LIG    1        1.797  -1.775  -0.087  0.00  0.00    +0.122 HD
BRANCH   3   5
ATOM      5  C   LIG    1        2.430   0.140   0.206  0.00  0.00    +0.082 C 
BRANCH   5   6
ATOM      6  C   LIG    1        3.805  -0.297   0.664  0.00  0.00    +0.031 C 
BRANCH   6   7
ATOM      7  C   LIG    1        4.788   0.805   0.399  0.00  0.00    +0.110 C 
ATOM      8 CL   LIG    1        6.402   0.337   0.947  0.00  0.00    -0.125 Cl
ENDBRANCH   6   7
ENDBRANCH   5   6
ENDBRANCH   3   5
ENDBRANCH   1   3
BRANCH   1   9
ATOM      9  C   LIG    1       -0.891  -0.412   0.968  0.00  0.00    +0.053 C 
BRANCH   9  10
ATOM     10  C   LIG    1       -2.160   0.041   0.423  0.00  0.00    -0.046 A 
ATOM     11  C   LIG    1       -2.426   1.388   0.286  0.00  0.00    +0.004 A 
ATOM     12  C   LIG    1       -3.608   1.885  -0.185  0.00  0.00    +0.000 A 
ATOM     13  C   LIG    1       -4.589   0.963  -0.544  0.00  0.00    +0.000 A 
ATOM     14  C   LIG    1       -4.361  -0.406  -0.422  0.00  0.00    +0.000 A 
ATOM     15  C   LIG    1       -3.162  -0.880   0.058  0.00  0.00    +0.004 A 
ENDBRANCH   9  10
ENDBRANCH   1   9
TORSDOF 6
