REMARK  Name = molecules/XXYTXQGCRQLRHA-UHFFFAOYSA-N.pdb
REMARK                            x       y       z     vdW  Elec       q    Type
REMARK                         _______ _______ _______ _____ _____    ______ ____
ROOT
ATOM      1  S   LIG    1       -1.250  -0.341  -1.010  0.00  0.00    +0.076 S 
ATOM      2  O   LIG    1       -0.933  -1.635  -1.756  0.00  0.00    -0.150 OA
ATOM      3  O   LIG    1       -0.898   0.839  -1.877  0.00  0.00    -0.150 OA
ENDROOT
BRANCH   1   4
ATOM      4  C   LIG    1       -2.930  -0.316  -0.531  0.00  0.00    +0.110 A 
ATOM      5  C   LIG    1       -3.607  -1.504  -0.232  0.00  0.00    +0.029 A 
ATOM      6  C   LIG    1       -4.931  -1.522   0.152  0.00  0.00    +0.007 A 
ATOM      7  C   LIG    1       -5.659  -0.345   0.260  0.00  0.00    -0.030 A 
ATOM      8  C   LIG    1       -7.091  -0.358   0.682  0.00  0.00    +0.045 C 
ATOM      9  C   LIG    1       -4.998   0.829  -0.034  0.00  0.00    +0.029 A 
ATOM     10  C   LIG    1       -3.658   0.844  -0.423  0.00  0.00    +0.051 A 
BRANCH   9  11
ATOM     11  N   LIG    1       -5.734   2.034   0.073  0.00  0.00    -0.358 N 
ATOM     12  H   LIG    1       -6.463   2.188   0.796  0.00  0.00    +0.142 HD
ATOM     13  H   LIG    1       -5.541   2.798  -0.605  0.00  0.00    +0.142 HD
ENDBRANCH   9  11
ENDBRANCH   1   4
BRANCH   1  14
ATOM     14  N   LIG    1       -0.191  -0.306   0.339  0.00  0.00    -0.169 N 
ATOM     15  H   LIG    1       -0.609  -0.441   1.308  0.00  0.00    +0.178 HD
ATOM     16  C   LIG    1        1.198  -0.104   0.147  0.00  0.00    +0.319 C 
ATOM     17  N   LIG    1        2.087  -0.090   1.223  0.00  0.00    -0.295 N 
ATOM     18  H   LIG    1        1.679  -0.239   2.206  0.00  0.00    +0.151 HD
ATOM     19  O   LIG    1        1.588   0.059  -1.038  0.00  0.00    -0.251 OA
BRANCH  17  20
ATOM     20  C   LIG    1        3.497   0.098   1.209  0.00  0.00    +0.074 C 
ATOM     21  C   LIG    1        4.157  -1.123   0.618  0.00  0.00    +0.022 C 
ATOM     22  C   LIG    1        4.840  -0.856  -0.695  0.00  0.00    +0.002 C 
ATOM     23  C   LIG    1        5.933   0.152  -0.548  0.00  0.00    +0.000 C 
ATOM     24  C   LIG    1        5.522   1.178   0.482  0.00  0.00    +0.002 C 
ATOM     25  C   LIG    1        3.988   1.304   0.434  0.00  0.00    +0.022 C 
ENDBRANCH  17  20
ENDBRANCH   1  14
TORSDOF 4
