REMARK  Name = molecules/XYCMOTOFHFTUIU-JTQLQIEISA-N.pdb
REMARK                            x       y       z     vdW  Elec       q    Type
REMARK                         _______ _______ _______ _____ _____    ______ ____
ROOT
ATOM      1  C   LIG    1        1.195  -1.788   0.141  0.00  0.00    +0.261 C 
ENDROOT
BRANCH   1   2
ATOM      2  O   LIG    1        1.683  -0.688  -0.547  0.00  0.00    -0.488 OA
BRANCH   2   3
ATOM      3  C   LIG    1        2.851  -0.016  -0.350  0.00  0.00    +0.140 A 
ATOM      4  C   LIG    1        3.673  -0.418   0.671  0.00  0.00    +0.067 A 
ATOM      5  C   LIG    1        4.842   0.271   0.880  0.00  0.00    +0.045 A 
ATOM      6 CL   LIG    1        5.872  -0.231   2.178  0.00  0.00    -0.083 Cl
ATOM      7  C   LIG    1        5.211   1.329   0.113  0.00  0.00    +0.021 A 
ATOM      8  C   LIG    1        4.383   1.729  -0.916  0.00  0.00    +0.025 A 
ATOM      9  C   LIG    1        3.205   1.063  -1.152  0.00  0.00    +0.083 A 
ATOM     10 CL   LIG    1        2.138   1.592  -2.440  0.00  0.00    -0.080 Cl
ENDBRANCH   2   3
ENDBRANCH   1   2
BRANCH   1  11
ATOM     11  C   LIG    1       -0.254  -2.099  -0.368  0.00  0.00    +0.166 C 
BRANCH  11  12
ATOM     12  O   LIG    1       -0.746  -3.190   0.295  0.00  0.00    -0.387 OA
ATOM     13  H   LIG    1       -0.679  -3.175   1.266  0.00  0.00    +0.210 HD
ENDBRANCH  11  12
BRANCH  11  14
ATOM     14  C   LIG    1       -1.000  -0.812  -0.030  0.00  0.00    +0.116 C 
BRANCH  14  15
ATOM     15  N   LIG    1       -2.394  -0.819  -0.281  0.00  0.00    -0.309 NA
ATOM     16  H   LIG    1       -2.701  -1.183  -1.191  0.00  0.00    +0.123 HD
BRANCH  15  17
ATOM     17  C   LIG    1       -3.002   0.434   0.004  0.00  0.00    +0.011 C 
ATOM     18  C   LIG    1       -2.256   1.306   0.983  0.00  0.00    +0.027 C 
ATOM     19  C   LIG    1       -4.367   0.158   0.618  0.00  0.00    +0.027 C 
ATOM     20  C   LIG    1       -3.207   1.209  -1.291  0.00  0.00    +0.027 C 
ENDBRANCH  15  17
ENDBRANCH  14  15
ENDBRANCH  11  14
ENDBRANCH   1  11
TORSDOF 7
