REMARK  Name = molecules/XYFLWVOTXWXNAM-WTNNCJBMSA-N.pdb
REMARK                            x       y       z     vdW  Elec       q    Type
REMARK                         _______ _______ _______ _____ _____    ______ ____
ROOT
ATOM      1  O   LIG    1       -0.580  -1.533   0.048  0.00  0.00    -0.461 OA
ENDROOT
BRANCH   1  11
ATOM      2  C   LIG    1        2.611  -3.418   0.449  0.00  0.00    +0.138 A 
ATOM      3  C   LIG    1        3.560  -2.371   0.464  0.00  0.00    +0.106 A 
ATOM      4  C   LIG    1        4.907  -2.617   0.595  0.00  0.00    +0.197 A 
ATOM      5  O   LIG    1        5.329  -3.771   0.704  0.00  0.00    -0.287 OA
ATOM      6  C   LIG    1        5.759  -1.511   0.598  0.00  0.00    +0.098 A 
ATOM      7  C   LIG    1        5.275  -0.235   0.476  0.00  0.00    +0.139 A 
ATOM      8  O   LIG    1        3.966  -0.093   0.355  0.00  0.00    -0.454 OA
ATOM      9  C   LIG    1        3.104  -1.087   0.344  0.00  0.00    +0.146 A 
ATOM     10  C   LIG    1        1.738  -0.798   0.207  0.00  0.00    +0.093 A 
ATOM     11  C   LIG    1        0.798  -1.790   0.187  0.00  0.00    +0.131 A 
ATOM     12  C   LIG    1        1.234  -3.071   0.306  0.00  0.00    +0.092 A 
BRANCH   7  13
ATOM     13  C   LIG    1        6.148   0.931   0.479  0.00  0.00    +0.021 A 
ATOM     14  C   LIG    1        7.511   0.838   0.566  0.00  0.00    +0.015 A 
ATOM     15  C   LIG    1        8.327   1.963   0.562  0.00  0.00    +0.050 A 
ATOM     16  C   LIG    1        7.771   3.214   0.469  0.00  0.00    +0.161 A 
ATOM     17  C   LIG    1        6.390   3.315   0.381  0.00  0.00    +0.159 A 
ATOM     18  C   LIG    1        5.575   2.194   0.385  0.00  0.00    +0.060 A 
BRANCH  17  19
ATOM     19  O   LIG    1        5.854   4.594   0.288  0.00  0.00    -0.503 OA
ATOM     20  H   LIG    1        6.458   5.400   0.285  0.00  0.00    +0.292 HD
ENDBRANCH  17  19
BRANCH  16  21
ATOM     21  O   LIG    1        8.563   4.354   0.462  0.00  0.00    -0.491 OA
ATOM     22  C   LIG    1        9.964   4.231   0.550  0.00  0.00    +0.277 C 
ENDBRANCH  16  21
ENDBRANCH   7  13
BRANCH   2  23
ATOM     23  O   LIG    1        2.981  -4.628   0.560  0.00  0.00    -0.489 OA
BRANCH  23  24
ATOM     24  C   LIG    1        3.344  -5.871   0.673  0.00  0.00    +0.257 C 
BRANCH  24  25
ATOM     25  C   LIG    1        2.974  -6.765  -0.551  0.00  0.00    +0.196 C 
BRANCH  25  26
ATOM     26  O   LIG    1        3.613  -6.225  -1.667  0.00  0.00    -0.392 OA
ATOM     27  H   LIG    1        2.971  -6.067  -2.412  0.00  0.00    +0.210 HD
ENDBRANCH  25  26
ENDBRANCH  24  25
ENDBRANCH  23  24
ENDBRANCH   2  23
ENDBRANCH   1  11
BRANCH   1  28
ATOM     28  C   LIG    1       -1.175  -0.299  -0.044  0.00  0.00    +0.339 C 
ATOM     29  O   LIG    1       -2.336  -0.164   0.731  0.00  0.00    -0.331 OA
ATOM     30  C   LIG    1       -2.588   1.197   0.926  0.00  0.00    +0.179 C 
ATOM     31  C   LIG    1       -2.172   2.106  -0.150  0.00  0.00    +0.177 C 
ATOM     32  C   LIG    1       -1.939   1.486  -1.506  0.00  0.00    +0.180 C 
ATOM     33  C   LIG    1       -1.634   0.021  -1.482  0.00  0.00    +0.214 C 
BRANCH  33  34
ATOM     34  O   LIG    1       -0.641  -0.339  -2.389  0.00  0.00    -0.383 OA
ATOM     35  H   LIG    1       -0.875   0.062  -3.265  0.00  0.00    +0.210 HD
ENDBRANCH  33  34
BRANCH  32  36
ATOM     36  O   LIG    1       -2.911   1.845  -2.443  0.00  0.00    -0.386 OA
ATOM     37  H   LIG    1       -3.061   1.154  -3.134  0.00  0.00    +0.210 HD
ENDBRANCH  32  36
BRANCH  31  38
ATOM     38  O   LIG    1       -0.988   2.828   0.240  0.00  0.00    -0.386 OA
ATOM     39  H   LIG    1       -1.140   2.973   1.228  0.00  0.00    +0.210 HD
ENDBRANCH  31  38
BRANCH  30  40
ATOM     40  C   LIG    1       -3.874   1.490   1.624  0.00  0.00    +0.197 C 
BRANCH  40  41
ATOM     41  O   LIG    1       -5.032   1.024   1.174  0.00  0.00    -0.346 OA
BRANCH  41  42
ATOM     42  C   LIG    1       -5.571   1.290  -0.036  0.00  0.00    +0.282 C 
ATOM     43  O   LIG    1       -6.748   1.991   0.050  0.00  0.00    -0.343 OA
ATOM     44  C   LIG    1       -7.927   1.385   0.108  0.00  0.00    +0.149 C 
ATOM     45  C   LIG    1       -8.039  -0.007  -0.416  0.00  0.00    +0.174 C 
ATOM     46  C   LIG    1       -6.780  -0.818  -0.172  0.00  0.00    +0.179 C 
ATOM     47  C   LIG    1       -8.976   2.236  -0.595  0.00  0.00    +0.041 C 
ATOM     48  C   LIG    1       -5.667  -0.006  -0.803  0.00  0.00    +0.201 C 
BRANCH  48  49
ATOM     49  O   LIG    1       -6.002   0.223  -2.126  0.00  0.00    -0.384 OA
ATOM     50  H   LIG    1       -5.834   1.193  -2.340  0.00  0.00    +0.210 HD
ENDBRANCH  48  49
BRANCH  46  51
ATOM     51  O   LIG    1       -6.920  -2.057  -0.768  0.00  0.00    -0.386 OA
ATOM     52  H   LIG    1       -6.574  -2.113  -1.689  0.00  0.00    +0.210 HD
ENDBRANCH  46  51
BRANCH  45  53
ATOM     53  O   LIG    1       -9.144  -0.673   0.102  0.00  0.00    -0.387 OA
ATOM     54  H   LIG    1       -9.306  -0.525   1.058  0.00  0.00    +0.210 HD
ENDBRANCH  45  53
ENDBRANCH  41  42
ENDBRANCH  40  41
ENDBRANCH  30  40
ENDBRANCH   1  28
TORSDOF 18
