REMARK  Name = molecules/XYFPWWZEPKGCCK-GOSISDBHSA-N.pdb
REMARK                            x       y       z     vdW  Elec       q    Type
REMARK                         _______ _______ _______ _____ _____    ______ ____
ROOT
ATOM      1  C   LIG    1       -0.827  -2.854  -0.576  0.00  0.00    +0.131 A 
ATOM      2  C   LIG    1       -0.003  -1.752  -0.391  0.00  0.00    +0.086 A 
ATOM      3  C   LIG    1       -0.280  -0.452   0.022  0.00  0.00    +0.105 A 
ATOM      4  N   LIG    1        0.904   0.197   0.007  0.00  0.00    -0.168 NA
ATOM      5  N   LIG    1        1.867  -0.615  -0.382  0.00  0.00    -0.241 N 
ATOM      6  C   LIG    1        1.349  -1.836  -0.639  0.00  0.00    +0.164 A 
ATOM      7  N   LIG    1        1.882  -2.994  -1.062  0.00  0.00    -0.216 NA
ATOM      8  C   LIG    1        1.076  -4.047  -1.235  0.00  0.00    +0.225 A 
ATOM      9  N   LIG    1       -0.244  -3.996  -1.003  0.00  0.00    -0.220 NA
ENDROOT
BRANCH   5  10
ATOM     10  C   LIG    1        3.261  -0.286  -0.522  0.00  0.00    +0.127 C 
ATOM     11  C   LIG    1        3.777   0.469   0.684  0.00  0.00    +0.135 C 
ATOM     12  N   LIG    1        5.212   0.560   0.591  0.00  0.00    -0.296 N 
ATOM     13  C   LIG    1        5.863   1.807   0.654  0.00  0.00    +0.239 C 
ATOM     14  O   LIG    1        5.172   2.884   0.799  0.00  0.00    -0.271 OA
ATOM     15  C   LIG    1        5.957  -0.653   0.433  0.00  0.00    +0.108 C 
ATOM     16  C   LIG    1        5.553  -1.188  -0.952  0.00  0.00    +0.021 C 
ATOM     17  C   LIG    1        4.072  -1.484  -0.862  0.00  0.00    +0.030 C 
BRANCH  13  18
ATOM     18  C   LIG    1        7.298   2.006   0.568  0.00  0.00    +0.060 C 
ATOM     19  C   LIG    1        7.842   3.216   0.636  0.00  0.00    +0.013 C 
ENDBRANCH  13  18
ENDBRANCH   5  10
BRANCH   3  20
ATOM     20  C   LIG    1       -1.580   0.097   0.373  0.00  0.00    +0.003 A 
ATOM     21  C   LIG    1       -2.394  -0.441   1.338  0.00  0.00    +0.014 A 
ATOM     22  C   LIG    1       -3.621   0.137   1.667  0.00  0.00    +0.047 A 
ATOM     23  C   LIG    1       -4.056   1.272   1.031  0.00  0.00    +0.128 A 
ATOM     24  C   LIG    1       -3.235   1.830   0.046  0.00  0.00    +0.047 A 
ATOM     25  C   LIG    1       -2.029   1.237  -0.258  0.00  0.00    +0.014 A 
BRANCH  23  26
ATOM     26  O   LIG    1       -5.262   1.890   1.314  0.00  0.00    -0.456 OA
BRANCH  26  27
ATOM     27  C   LIG    1       -6.441   1.596   0.685  0.00  0.00    +0.128 A 
ATOM     28  C   LIG    1       -7.593   2.245   1.024  0.00  0.00    +0.046 A 
ATOM     29  C   LIG    1       -8.786   1.960   0.400  0.00  0.00    +0.004 A 
ATOM     30  C   LIG    1       -8.849   1.008  -0.586  0.00  0.00    +0.000 A 
ATOM     31  C   LIG    1       -7.689   0.338  -0.942  0.00  0.00    +0.004 A 
ATOM     32  C   LIG    1       -6.493   0.637  -0.304  0.00  0.00    +0.046 A 
ENDBRANCH  26  27
ENDBRANCH  23  26
ENDBRANCH   3  20
BRANCH   1  33
ATOM     33  N   LIG    1       -2.236  -2.792  -0.354  0.00  0.00    -0.342 N 
ATOM     34  H   LIG    1       -2.671  -3.205   0.499  0.00  0.00    +0.144 HD
ATOM     35  H   LIG    1       -2.890  -2.332  -1.034  0.00  0.00    +0.144 HD
ENDBRANCH   1  33
TORSDOF 6
