REMARK  Name = molecules/XYGMEFJSKQEBTO-KUJXMBTLSA-N.pdb
REMARK                            x       y       z     vdW  Elec       q    Type
REMARK                         _______ _______ _______ _____ _____    ______ ____
ROOT
ATOM      1  C   LIG    1       -2.751   0.268  -1.786  0.00  0.00    +0.016 C 
ATOM      2  C   LIG    1       -2.552  -0.107  -0.311  0.00  0.00    -0.006 C 
ATOM      3  C   LIG    1       -3.154   0.881   0.585  0.00  0.00    -0.042 C 
ATOM      4  C   LIG    1       -2.376   1.825   1.434  0.00  0.00    +0.033 C 
ATOM      5  C   LIG    1       -1.224   0.994   2.013  0.00  0.00    +0.008 C 
ATOM      6  C   LIG    1       -0.404   0.595   0.825  0.00  0.00    -0.003 C 
ATOM      7  C   LIG    1        0.893  -0.035   1.157  0.00  0.00    +0.002 C 
ATOM      8  C   LIG    1        1.759   0.637   2.136  0.00  0.00    +0.008 C 
ATOM      9  C   LIG    1        3.074  -0.136   1.950  0.00  0.00    +0.045 C 
ATOM     10  C   LIG    1        3.008  -0.724   0.541  0.00  0.00    +0.183 C 
ATOM     11  C   LIG    1        1.783  -0.082  -0.074  0.00  0.00    +0.008 C 
ATOM     12  C   LIG    1        2.163   1.251  -0.591  0.00  0.00    +0.015 C 
ATOM     13  C   LIG    1        1.089  -0.968  -1.069  0.00  0.00    +0.011 C 
ATOM     14  C   LIG    1       -0.288  -0.390  -1.371  0.00  0.00    +0.005 C 
ATOM     15  C   LIG    1       -4.471   0.952   0.657  0.00  0.00    +0.083 C 
ATOM     16 CL   LIG    1       -5.219   2.143   1.735  0.00  0.00    -0.080 Cl
ATOM     17  C   LIG    1       -5.295   0.058  -0.146  0.00  0.00    +0.174 C 
ATOM     18  C   LIG    1       -4.765  -1.298  -0.401  0.00  0.00    +0.081 C 
ATOM     19  O   LIG    1       -6.393   0.450  -0.583  0.00  0.00    -0.291 OA
ATOM     20  C   LIG    1       -1.119  -0.378  -0.099  0.00  0.00    +0.002 C 
ATOM     21  C   LIG    1       -3.307  -1.433  -0.145  0.00  0.00    +0.019 C 
ENDROOT
BRANCH  10  22
ATOM     22  O   LIG    1        4.145  -0.283  -0.145  0.00  0.00    -0.461 OA
BRANCH  22  23
ATOM     23  C   LIG    1        5.080  -1.094  -0.733  0.00  0.00    +0.304 C 
ATOM     24  O   LIG    1        4.941  -2.323  -0.673  0.00  0.00    -0.251 OA
ATOM     25  C   LIG    1        6.229  -0.450  -1.422  0.00  0.00    +0.136 C 
ENDBRANCH  22  23
ENDBRANCH  10  22
TORSDOF 2
