REMARK  Name = molecules/XYLJNLCSTIOKRM-UHFFFAOYSA-N.pdb
REMARK                            x       y       z     vdW  Elec       q    Type
REMARK                         _______ _______ _______ _____ _____    ______ ____
ROOT
ATOM      1 BR   LIG    1       -0.971   3.299  -0.181  0.00  0.00    -0.046 Br
ATOM      2  C   LIG    1       -1.240   1.410  -0.144  0.00  0.00    +0.066 A 
ATOM      3  C   LIG    1       -0.132   0.599  -0.054  0.00  0.00    +0.046 A 
ATOM      4  C   LIG    1       -0.317  -0.767  -0.027  0.00  0.00    +0.026 A 
ATOM      5  C   LIG    1       -1.612  -1.279  -0.091  0.00  0.00    +0.032 A 
ATOM      6  C   LIG    1       -2.703  -0.438  -0.181  0.00  0.00    +0.090 A 
ATOM      7  N   LIG    1       -3.950  -0.940  -0.242  0.00  0.00    -0.252 NA
ATOM      8  C   LIG    1       -5.043  -0.132  -0.331  0.00  0.00    +0.131 A 
ATOM      9  C   LIG    1       -4.861   1.234  -0.358  0.00  0.00    +0.131 A 
ATOM     10  N   LIG    1       -3.613   1.725  -0.297  0.00  0.00    -0.251 NA
ATOM     11  C   LIG    1       -2.531   0.923  -0.208  0.00  0.00    +0.105 A 
ENDROOT
BRANCH   3  12
ATOM     12  N   LIG    1        1.195   1.136   0.011  0.00  0.00    -0.308 N 
ATOM     13  H   LIG    1        1.367   2.165  -0.007  0.00  0.00    +0.149 HD
BRANCH  12  14
ATOM     14  C   LIG    1        2.305   0.254   0.103  0.00  0.00    +0.206 C 
ATOM     15  N   LIG    1        2.722  -0.335   1.169  0.00  0.00    -0.196 NA
ATOM     16  C   LIG    1        3.875  -1.160   0.895  0.00  0.00    +0.121 C 
ATOM     17  C   LIG    1        4.385  -0.614  -0.414  0.00  0.00    +0.101 C 
ATOM     18  N   LIG    1        3.149  -0.120  -1.006  0.00  0.00    -0.277 NA
ATOM     19  H   LIG    1        2.892  -0.038  -2.013  0.00  0.00    +0.125 HD
ENDBRANCH  12  14
ENDBRANCH   3  12
TORSDOF 2
