REMARK  Name = molecules/XZEUAXYWNKYKPL-WDYNHAJCSA-N.pdb
REMARK                            x       y       z     vdW  Elec       q    Type
REMARK                         _______ _______ _______ _____ _____    ______ ____
ROOT
ATOM      1  C   LIG    1       -4.320  -0.079  -0.877  0.00  0.00    +0.113 C 
ATOM      2  C   LIG    1       -5.477  -0.787  -0.155  0.00  0.00    +0.056 C 
ATOM      3  C   LIG    1       -3.006  -0.499  -0.308  0.00  0.00    +0.074 C 
ATOM      4  C   LIG    1       -1.990   0.595  -0.330  0.00  0.00    +0.064 C 
ATOM      5  C   LIG    1       -2.548   1.706   0.515  0.00  0.00    +0.003 A 
ATOM      6  C   LIG    1       -1.760   2.351   1.462  0.00  0.00    +0.011 A 
ATOM      7  C   LIG    1       -2.371   3.365   2.191  0.00  0.00    +0.046 A 
ATOM      8  C   LIG    1       -3.684   3.717   1.990  0.00  0.00    +0.124 A 
ATOM      9  C   LIG    1       -4.411   3.042   1.039  0.00  0.00    +0.091 A 
ATOM     10  C   LIG    1       -3.868   2.028   0.283  0.00  0.00    +0.129 A 
ATOM     11  O   LIG    1       -4.571   1.325  -0.685  0.00  0.00    -0.485 OA
ATOM     12  C   LIG    1       -4.522  -0.339  -2.337  0.00  0.00    +0.056 C 
ENDROOT
BRANCH   4  13
ATOM     13  C   LIG    1       -0.687   0.273   0.210  0.00  0.00    -0.039 A 
ATOM     14  C   LIG    1       -0.433  -0.651   1.198  0.00  0.00    +0.008 A 
ATOM     15  C   LIG    1        0.824  -0.917   1.673  0.00  0.00    +0.046 A 
ATOM     16  C   LIG    1        1.942  -0.237   1.157  0.00  0.00    +0.121 A 
ATOM     17  C   LIG    1        1.705   0.689   0.171  0.00  0.00    +0.046 A 
ATOM     18  C   LIG    1        0.415   0.935  -0.290  0.00  0.00    +0.008 A 
BRANCH  16  19
ATOM     19  O   LIG    1        3.135  -0.564   1.689  0.00  0.00    -0.491 OA
BRANCH  19  20
ATOM     20  C   LIG    1        4.429  -0.192   1.489  0.00  0.00    +0.244 C 
BRANCH  20  21
ATOM     21  C   LIG    1        4.952  -0.526   0.128  0.00  0.00    +0.125 C 
BRANCH  21  22
ATOM     22  N   LIG    1        6.338  -0.082   0.038  0.00  0.00    -0.299 NA
ATOM     23  C   LIG    1        7.198  -0.725   0.993  0.00  0.00    +0.084 C 
ATOM     24  C   LIG    1        8.396  -1.256   0.281  0.00  0.00    +0.017 C 
ATOM     25  C   LIG    1        8.359  -0.602  -1.073  0.00  0.00    +0.017 C 
ATOM     26  C   LIG    1        6.873  -0.394  -1.277  0.00  0.00    +0.084 C 
ENDBRANCH  21  22
ENDBRANCH  20  21
ENDBRANCH  19  20
ENDBRANCH  16  19
ENDBRANCH   4  13
BRANCH   3  27
ATOM     27  C   LIG    1       -2.588  -1.763  -0.911  0.00  0.00    -0.040 A 
ATOM     28  C   LIG    1       -2.655  -2.969  -0.197  0.00  0.00    +0.004 A 
ATOM     29  C   LIG    1       -2.277  -4.173  -0.696  0.00  0.00    +0.000 A 
ATOM     30  C   LIG    1       -1.796  -4.257  -1.973  0.00  0.00    +0.000 A 
ATOM     31  C   LIG    1       -1.706  -3.100  -2.729  0.00  0.00    +0.000 A 
ATOM     32  C   LIG    1       -2.097  -1.889  -2.195  0.00  0.00    +0.004 A 
ENDBRANCH   3  27
BRANCH   8  33
ATOM     33  O   LIG    1       -4.218   4.734   2.752  0.00  0.00    -0.495 OA
ATOM     34  C   LIG    1       -5.560   5.161   2.611  0.00  0.00    +0.277 C 
ENDBRANCH   8  33
TORSDOF 7
