REMARK  Name = molecules/XZTYGFHCIAKPGJ-UHFFFAOYSA-N.pdb
REMARK                            x       y       z     vdW  Elec       q    Type
REMARK                         _______ _______ _______ _____ _____    ______ ____
ROOT
ATOM      1  C   LIG    1        1.424  -0.015   0.214  0.00  0.00    +0.349 C 
ENDROOT
BRANCH   1   2
ATOM      2  C   LIG    1        0.081   0.551   0.462  0.00  0.00    +0.345 C 
ATOM      3  O   LIG    1       -0.042   1.732   0.832  0.00  0.00    -0.247 OA
BRANCH   2   4
ATOM      4  O   LIG    1       -1.024  -0.240   0.278  0.00  0.00    -0.461 OA
BRANCH   4   5
ATOM      5  C   LIG    1       -2.341   0.253   0.501  0.00  0.00    +0.247 C 
BRANCH   5   6
ATOM      6  C   LIG    1       -3.292  -0.862   0.209  0.00  0.00    +0.125 C 
BRANCH   6   7
ATOM      7  N   LIG    1       -4.677  -0.475   0.404  0.00  0.00    -0.305 NA
ATOM      8  C   LIG    1       -5.588  -1.540   0.125  0.00  0.00    +0.104 C 
ATOM      9  C   LIG    1       -4.928   0.727  -0.337  0.00  0.00    +0.104 C 
ENDBRANCH   6   7
ENDBRANCH   5   6
ENDBRANCH   4   5
ENDBRANCH   2   4
ENDBRANCH   1   2
BRANCH   1  10
ATOM     10  O   LIG    1        2.383   0.981   0.469  0.00  0.00    -0.481 OA
BRANCH  10  11
ATOM     11  C   LIG    1        3.721   0.701   0.310  0.00  0.00    +0.121 A 
ATOM     12  C   LIG    1        4.670   1.684   0.562  0.00  0.00    +0.047 A 
ATOM     13  C   LIG    1        5.989   1.370   0.394  0.00  0.00    +0.023 A 
ATOM     14  C   LIG    1        6.376   0.113  -0.015  0.00  0.00    +0.041 A 
ATOM     15 CL   LIG    1        8.055  -0.328  -0.242  0.00  0.00    -0.084 Cl
ATOM     16  C   LIG    1        5.427  -0.878  -0.269  0.00  0.00    +0.023 A 
ATOM     17  C   LIG    1        4.102  -0.543  -0.094  0.00  0.00    +0.047 A 
ENDBRANCH  10  11
ENDBRANCH   1  10
TORSDOF 7
