REMARK  Name = molecules/XZWYZXLIPXDOLR-UHFFFAOYSA-N.pdb
REMARK                            x       y       z     vdW  Elec       q    Type
REMARK                         _______ _______ _______ _____ _____    ______ ____
ROOT
ATOM      1  N   LIG    1        0.991   0.590   0.772  0.00  0.00    -0.186 N 
ATOM      2  H   LIG    1        0.989   1.577   1.058  0.00  0.00    +0.271 HD
ENDROOT
BRANCH   1   3
ATOM      3  C   LIG    1        2.149  -0.007   0.256  0.00  0.00    +0.385 C 
ATOM      4  N   LIG    1        3.106   0.626  -0.549  0.00  0.00    -0.289 N 
ATOM      5  H   LIG    1        3.729   1.369  -0.187  0.00  0.00    +0.255 HD
ATOM      6  H   LIG    1        3.197   0.344  -1.540  0.00  0.00    +0.255 HD
BRANCH   3   7
ATOM      7  N   LIG    1        2.344  -1.264   0.557  0.00  0.00    -0.129 NA
ATOM      8  H   LIG    1        3.156  -1.791   0.232  0.00  0.00    +0.306 HD
ENDBRANCH   3   7
ENDBRANCH   1   3
BRANCH   1   9
ATOM      9  C   LIG    1       -0.190  -0.171   0.902  0.00  0.00    +0.390 C 
ATOM     10  N   LIG    1       -0.175  -1.153   1.764  0.00  0.00    -0.129 NA
ATOM     11  H   LIG    1       -1.011  -1.729   1.889  0.00  0.00    +0.306 HD
BRANCH   9  13
ATOM     12  C   LIG    1       -1.891  -0.981  -0.675  0.00  0.00    +0.242 C 
ATOM     13  N   LIG    1       -1.367   0.085   0.145  0.00  0.00    -0.267 N 
ATOM     14  C   LIG    1       -2.065   1.356   0.155  0.00  0.00    +0.242 C 
ENDBRANCH   9  13
ENDBRANCH   1   9
TORSDOF 4
