REMARK  Name = molecules/YAHRDLICUYEDAU-RNFRBKRXSA-N.pdb
REMARK                            x       y       z     vdW  Elec       q    Type
REMARK                         _______ _______ _______ _____ _____    ______ ____
ROOT
ATOM      1  C   LIG    1        0.613   0.630   0.224  0.00  0.00    +0.021 C 
ENDROOT
BRANCH   1   2
ATOM      2  C   LIG    1       -0.692  -0.139   0.185  0.00  0.00    -0.013 C 
ATOM      3  C   LIG    1       -1.173  -0.295  -1.226  0.00  0.00    +0.007 C 
BRANCH   2   5
ATOM      4  C   LIG    1       -3.040  -0.223   1.048  0.00  0.00    +0.004 C 
ATOM      5  C   LIG    1       -1.759   0.547   1.012  0.00  0.00    -0.000 C 
ENDBRANCH   2   5
ENDBRANCH   1   2
BRANCH   1   6
ATOM      6  C   LIG    1        1.675  -0.056  -0.602  0.00  0.00    +0.048 C 
ATOM      7  C   LIG    1        2.981   0.668  -0.592  0.00  0.00    +0.023 C 
BRANCH   6   8
ATOM      8  N   LIG    1        1.934  -1.398  -0.108  0.00  0.00    -0.327 NA
ATOM      9  H   LIG    1        1.817  -1.499   0.904  0.00  0.00    +0.118 HD
ATOM     10  H   LIG    1        2.829  -1.751  -0.485  0.00  0.00    +0.118 HD
ENDBRANCH   6   8
ENDBRANCH   1   6
TORSDOF 4
