REMARK  Name = molecules/YAMVZYRZAMBCED-UHFFFAOYSA-N.pdb
REMARK                            x       y       z     vdW  Elec       q    Type
REMARK                         _______ _______ _______ _____ _____    ______ ____
ROOT
ATOM      1  C   LIG    1        0.928  -0.345  -0.095  0.00  0.00    +0.146 A 
ATOM      2  C   LIG    1        0.404  -1.586   0.082  0.00  0.00    +0.050 A 
ATOM      3  C   LIG    1       -0.944  -1.778   0.224  0.00  0.00    +0.034 A 
ATOM      4  C   LIG    1       -1.823  -0.721   0.195  0.00  0.00    +0.126 A 
ATOM      5  C   LIG    1       -1.301   0.543   0.016  0.00  0.00    +0.031 A 
ATOM      6  C   LIG    1       -2.143   1.633  -0.021  0.00  0.00    +0.013 A 
ATOM      7  C   LIG    1       -1.627   2.901  -0.199  0.00  0.00    +0.020 A 
ATOM      8  C   LIG    1       -0.275   3.066  -0.339  0.00  0.00    +0.111 A 
ATOM      9  N   LIG    1        0.551   2.005  -0.304  0.00  0.00    -0.251 NA
ATOM     10  C   LIG    1        0.064   0.751  -0.130  0.00  0.00    +0.114 A 
ENDROOT
BRANCH   4  11
ATOM     11  S   LIG    1       -3.513  -0.991   0.377  0.00  0.00    +0.110 S 
ATOM     12  O   LIG    1       -4.077  -0.377   1.625  0.00  0.00    -0.142 OA
ATOM     13  O   LIG    1       -3.771  -2.467   0.462  0.00  0.00    -0.142 OA
BRANCH  11  14
ATOM     14  O   LIG    1       -4.329  -0.441  -0.994  0.00  0.00    -0.250 OA
ATOM     15  H   LIG    1       -4.114  -1.111  -1.716  0.00  0.00    +0.245 HD
ENDBRANCH  11  14
ENDBRANCH   4  11
BRANCH   1  16
ATOM     16  O   LIG    1        2.279  -0.076  -0.246  0.00  0.00    -0.490 OA
BRANCH  16  17
ATOM     17  C   LIG    1        3.293  -1.033  -0.239  0.00  0.00    +0.226 C 
ATOM     18  C   LIG    1        4.615  -0.289  -0.436  0.00  0.00    +0.048 C 
ENDBRANCH  16  17
ENDBRANCH   1  16
TORSDOF 4
