REMARK  Name = molecules/YAPQBXQYLJRXSA-UHFFFAOYSA-N.pdb
REMARK                            x       y       z     vdW  Elec       q    Type
REMARK                         _______ _______ _______ _____ _____    ______ ____
ROOT
ATOM      1  C   LIG    1       -2.832  -1.142  -0.080  0.00  0.00    +0.155 C 
ATOM      2  N   LIG    1       -1.732  -0.197  -0.013  0.00  0.00    -0.280 N 
ATOM      3  C   LIG    1       -1.947   1.128   0.097  0.00  0.00    +0.331 A 
ATOM      4  N   LIG    1       -0.905   2.002   0.158  0.00  0.00    -0.273 N 
ATOM      5  H   LIG    1       -1.072   3.016   0.242  0.00  0.00    +0.173 HD
ATOM      6  C   LIG    1        0.372   1.579   0.111  0.00  0.00    +0.280 A 
ATOM      7  O   LIG    1        1.347   2.362   0.165  0.00  0.00    -0.265 OA
ATOM      8  C   LIG    1        0.625   0.233  -0.002  0.00  0.00    +0.151 A 
ATOM      9  N   LIG    1        1.775  -0.460  -0.070  0.00  0.00    -0.328 N 
ATOM     10  C   LIG    1        3.118   0.107  -0.037  0.00  0.00    +0.150 C 
ATOM     11  C   LIG    1        1.423  -1.752  -0.172  0.00  0.00    +0.202 A 
ATOM     12  N   LIG    1        0.081  -1.860  -0.167  0.00  0.00    -0.218 NA
ATOM     13  O   LIG    1       -3.111   1.585   0.146  0.00  0.00    -0.246 OA
ATOM     14  C   LIG    1       -0.463  -0.623  -0.061  0.00  0.00    +0.168 A 
ENDROOT
TORSDOF 0
