REMARK  Name = molecules/YARKMNAWFIMDKV-SFHVURJKSA-N.pdb
REMARK                            x       y       z     vdW  Elec       q    Type
REMARK                         _______ _______ _______ _____ _____    ______ ____
ROOT
ATOM      1  N   LIG    1        0.001   0.743  -0.354  0.00  0.00    -0.312 NA
ATOM      2  H   LIG    1        0.280   1.255  -1.239  0.00  0.00    +0.122 HD
ENDROOT
BRANCH   1   3
ATOM      3  C   LIG    1       -1.477   0.741  -0.373  0.00  0.00    +0.115 C 
BRANCH   3   4
ATOM      4  C   LIG    1       -2.087  -0.043   0.723  0.00  0.00    +0.166 C 
BRANCH   4   5
ATOM      5  O   LIG    1       -1.666  -1.377   0.621  0.00  0.00    -0.387 OA
ATOM      6  H   LIG    1       -1.678  -1.749   1.542  0.00  0.00    +0.210 HD
ENDBRANCH   4   5
BRANCH   4   7
ATOM      7  C   LIG    1       -3.556   0.101   0.895  0.00  0.00    +0.261 C 
BRANCH   7   8
ATOM      8  O   LIG    1       -4.369  -0.479  -0.094  0.00  0.00    -0.488 OA
BRANCH   8   9
ATOM      9  C   LIG    1       -5.761  -0.392   0.069  0.00  0.00    +0.138 A 
ATOM     10  C   LIG    1       -6.302   0.255   1.169  0.00  0.00    +0.047 A 
ATOM     11  C   LIG    1       -7.660   0.365   1.376  0.00  0.00    +0.004 A 
ATOM     12  C   LIG    1       -8.544  -0.168   0.490  0.00  0.00    +0.001 A 
ATOM     13  C   LIG    1       -8.013  -0.821  -0.622  0.00  0.00    +0.022 A 
ATOM     14  C   LIG    1       -6.651  -0.929  -0.826  0.00  0.00    +0.093 A 
BRANCH  14  15
ATOM     15  C   LIG    1       -6.131  -1.605  -1.978  0.00  0.00    +0.103 C 
ATOM     16  N   LIG    1       -5.703  -2.166  -2.886  0.00  0.00    -0.191 NA
ENDBRANCH  14  15
ENDBRANCH   8   9
ENDBRANCH   7   8
ENDBRANCH   4   7
ENDBRANCH   3   4
ENDBRANCH   1   3
BRANCH   1  17
ATOM     17  C   LIG    1        0.493   1.409   0.785  0.00  0.00    +0.099 C 
BRANCH  17  18
ATOM     18  C   LIG    1        1.945   1.651   0.940  0.00  0.00    +0.119 C 
BRANCH  18  19
ATOM     19  N   LIG    1        2.811   0.516   0.981  0.00  0.00    -0.314 N 
ATOM     20  H   LIG    1        3.344   0.309   1.911  0.00  0.00    +0.149 HD
ATOM     21  C   LIG    1        3.017  -0.362  -0.105  0.00  0.00    +0.217 C 
ATOM     22  O   LIG    1        2.487  -0.270  -1.211  0.00  0.00    -0.275 OA
BRANCH  21  23
ATOM     23  C   LIG    1        3.983  -1.523   0.091  0.00  0.00    +0.130 C 
BRANCH  23  24
ATOM     24  C   LIG    1        5.265  -1.063  -0.492  0.00  0.00    -0.038 A 
ATOM     25  C   LIG    1        6.397  -1.838  -0.356  0.00  0.00    +0.007 A 
ATOM     26  C   LIG    1        7.636  -1.427  -0.858  0.00  0.00    +0.045 A 
ATOM     27  C   LIG    1        7.743  -0.204  -1.512  0.00  0.00    +0.117 A 
ATOM     28  C   LIG    1        6.621   0.571  -1.649  0.00  0.00    +0.045 A 
ATOM     29  C   LIG    1        5.423   0.139  -1.147  0.00  0.00    +0.007 A 
BRANCH  27  30
ATOM     30  O   LIG    1        8.951   0.232  -2.019  0.00  0.00    -0.507 OA
ATOM     31  H   LIG    1        9.577   0.778  -1.466  0.00  0.00    +0.292 HD
ENDBRANCH  27  30
ENDBRANCH  23  24
ENDBRANCH  21  23
ENDBRANCH  18  19
ENDBRANCH  17  18
ENDBRANCH   1  17
TORSDOF 13
