REMARK  Name = molecules/YBCNXCRZPWQOBR-IGDPVYPXSA-N.pdb
REMARK                            x       y       z     vdW  Elec       q    Type
REMARK                         _______ _______ _______ _____ _____    ______ ____
ROOT
ATOM      1  C   LIG    1        1.899  -2.176   0.471  0.00  0.00    +0.133 C 
ATOM      2  C   LIG    1        2.203  -1.267   1.667  0.00  0.00    +0.133 C 
ATOM      3  C   LIG    1        2.142   0.095   1.012  0.00  0.00    -0.030 C 
ATOM      4  C   LIG    1        0.735   0.571   1.088  0.00  0.00    +0.032 C 
ATOM      5  C   LIG    1       -0.189   0.111   0.026  0.00  0.00    +0.174 C 
ATOM      6  C   LIG    1        0.364  -0.919  -0.920  0.00  0.00    +0.032 C 
ATOM      7  N   LIG    1        2.583  -0.053  -0.330  0.00  0.00    +0.386 N 
ATOM      8  C   LIG    1        2.200   1.105  -1.113  0.00  0.00    -0.091 C 
ATOM      9  O   LIG    1        3.041  -2.245   1.220  0.00  0.00    -0.372 OA
ATOM     10  C   LIG    1        1.806  -1.242  -0.727  0.00  0.00    -0.030 C 
ENDROOT
BRANCH   5  11
ATOM     11  O   LIG    1       -1.464  -0.270   0.514  0.00  0.00    -0.461 OA
BRANCH  11  12
ATOM     12  C   LIG    1       -2.647   0.352   0.231  0.00  0.00    +0.317 C 
ATOM     13  O   LIG    1       -2.612   1.341  -0.521  0.00  0.00    -0.250 OA
BRANCH  12  14
ATOM     14  C   LIG    1       -3.892  -0.190   0.835  0.00  0.00    +0.153 C 
BRANCH  14  15
ATOM     15  C   LIG    1       -5.084   0.576   0.444  0.00  0.00    -0.032 A 
ATOM     16  C   LIG    1       -5.851   1.216   1.387  0.00  0.00    +0.004 A 
ATOM     17  C   LIG    1       -6.964   1.927   0.994  0.00  0.00    +0.000 A 
ATOM     18  C   LIG    1       -7.352   2.031  -0.317  0.00  0.00    +0.000 A 
ATOM     19  C   LIG    1       -6.582   1.387  -1.271  0.00  0.00    +0.000 A 
ATOM     20  C   LIG    1       -5.454   0.666  -0.878  0.00  0.00    +0.004 A 
ENDBRANCH  14  15
BRANCH  14  21
ATOM     21  C   LIG    1       -4.019  -1.656   0.473  0.00  0.00    +0.175 C 
BRANCH  21  22
ATOM     22  O   LIG    1       -4.077  -1.848  -0.892  0.00  0.00    -0.394 OA
ATOM     23  H   LIG    1       -3.794  -2.730  -1.186  0.00  0.00    +0.209 HD
ENDBRANCH  21  22
ENDBRANCH  14  21
ENDBRANCH  12  14
ENDBRANCH  11  12
ENDBRANCH   5  11
BRANCH   7  24
ATOM     24  C   LIG    1        3.936  -0.346  -0.555  0.00  0.00    -0.074 C 
BRANCH  24  25
ATOM     25  C   LIG    1        4.930   0.240   0.392  0.00  0.00    -0.018 C 
BRANCH  25  26
ATOM     26  C   LIG    1        6.339  -0.171   0.010  0.00  0.00    -0.005 C 
ATOM     27  C   LIG    1        6.604   0.342  -1.396  0.00  0.00    +0.004 C 
ENDBRANCH  25  26
ENDBRANCH  24  25
ENDBRANCH   7  24
TORSDOF 9
