REMARK  Name = molecules/YCISZOVUHXIOFY-HKXOFBAYSA-N.pdb
REMARK                            x       y       z     vdW  Elec       q    Type
REMARK                         _______ _______ _______ _____ _____    ______ ____
ROOT
ATOM      1  F   LIG    1        2.206   1.676   0.264  0.00  0.00    -0.238 F 
ATOM      2  C   LIG    1        2.166   0.362  -0.211  0.00  0.00    +0.153 C 
ATOM      3  C   LIG    1        1.561  -0.455   0.943  0.00  0.00    +0.037 C 
ATOM      4  C   LIG    1        2.281  -0.284   2.222  0.00  0.00    +0.048 C 
ATOM      5  C   LIG    1        3.742  -0.066   2.187  0.00  0.00    +0.194 C 
ATOM      6  F   LIG    1        4.390  -1.213   2.600  0.00  0.00    -0.241 F 
ATOM      7  C   LIG    1        4.287   0.368   0.857  0.00  0.00    -0.020 C 
ATOM      8  C   LIG    1        5.343   1.131   0.869  0.00  0.00    +0.055 C 
ATOM      9  C   LIG    1        5.939   1.610  -0.350  0.00  0.00    +0.193 C 
ATOM     10  O   LIG    1        6.942   2.335  -0.333  0.00  0.00    -0.287 OA
ATOM     11  C   LIG    1        5.274   1.179  -1.587  0.00  0.00    +0.061 C 
ATOM     12  C   LIG    1        4.216   0.413  -1.576  0.00  0.00    +0.006 C 
ATOM     13 BR   LIG    1        6.027   1.790  -3.229  0.00  0.00    -0.047 Br
ATOM     14  C   LIG    1        0.208   0.128   1.057  0.00  0.00    +0.006 C 
ATOM     15  C   LIG    1       -0.573  -0.110   2.261  0.00  0.00    +0.009 C 
ATOM     16  C   LIG    1       -1.854   0.619   1.792  0.00  0.00    +0.057 C 
ATOM     17  C   LIG    1       -2.042  -0.049   0.408  0.00  0.00    +0.180 C 
ATOM     18  C   LIG    1       -0.667  -0.435  -0.069  0.00  0.00    +0.021 C 
ATOM     19  C   LIG    1       -0.470  -1.911  -0.250  0.00  0.00    +0.016 C 
ATOM     20  C   LIG    1       -0.146   0.265  -1.271  0.00  0.00    +0.045 C 
ATOM     21  C   LIG    1        3.601  -0.082  -0.354  0.00  0.00    +0.048 C 
ATOM     22  C   LIG    1        3.704  -1.608  -0.337  0.00  0.00    +0.023 C 
ATOM     23  C   LIG    1        1.347   0.322  -1.421  0.00  0.00    +0.154 C 
ENDROOT
BRANCH  17  24
ATOM     24  C   LIG    1       -2.894  -1.207   0.730  0.00  0.00    +0.214 C 
ATOM     25  O   LIG    1       -2.374  -2.147   1.327  0.00  0.00    -0.289 OA
BRANCH  24  26
ATOM     26  C   LIG    1       -4.300  -1.351   0.409  0.00  0.00    +0.310 C 
BRANCH  26  27
ATOM     27  O   LIG    1       -5.066  -0.310  -0.030  0.00  0.00    -0.457 OA
BRANCH  27  28
ATOM     28  C   LIG    1       -5.477   0.842   0.580  0.00  0.00    +0.304 C 
ATOM     29  O   LIG    1       -5.122   1.025   1.765  0.00  0.00    -0.251 OA
ATOM     30  C   LIG    1       -6.328   1.855  -0.147  0.00  0.00    +0.136 C 
ENDBRANCH  27  28
ENDBRANCH  26  27
ENDBRANCH  24  26
ENDBRANCH  17  24
BRANCH  23  31
ATOM     31  O   LIG    1        1.714  -0.717  -2.315  0.00  0.00    -0.389 OA
ATOM     32  H   LIG    1        1.478  -0.504  -3.234  0.00  0.00    +0.210 HD
ENDBRANCH  23  31
BRANCH  17  33
ATOM     33  O   LIG    1       -2.742   0.809  -0.446  0.00  0.00    -0.450 OA
BRANCH  33  34
ATOM     34  C   LIG    1       -3.151   0.484  -1.715  0.00  0.00    +0.305 C 
ATOM     35  O   LIG    1       -2.954  -0.643  -2.220  0.00  0.00    -0.251 OA
ATOM     36  C   LIG    1       -3.872   1.470  -2.598  0.00  0.00    +0.136 C 
ENDBRANCH  33  34
ENDBRANCH  17  33
TORSDOF 7
