REMARK  Name = molecules/YCNCIZWAGQTWBI-LJQANCHMSA-N.pdb
REMARK                            x       y       z     vdW  Elec       q    Type
REMARK                         _______ _______ _______ _____ _____    ______ ____
ROOT
ATOM      1  N   LIG    1       -0.723  -0.439  -0.372  0.00  0.00    -0.300 NA
ATOM      2  C   LIG    1       -0.788  -1.847  -0.190  0.00  0.00    +0.100 C 
ATOM      3  C   LIG    1        0.482  -2.417   0.381  0.00  0.00    +0.100 C 
ATOM      4  N   LIG    1        1.667  -1.702   0.047  0.00  0.00    -0.291 NA
ATOM      5  C   LIG    1        2.175  -0.942   1.178  0.00  0.00    +0.138 C 
ATOM      6  C   LIG    1        3.565  -0.548   0.733  0.00  0.00    +0.034 A 
ATOM      7  N   LIG    1        4.732  -0.403   1.374  0.00  0.00    -0.357 N 
ATOM      8  H   LIG    1        4.847  -0.554   2.412  0.00  0.00    +0.166 HD
ATOM      9  C   LIG    1        5.705  -0.045   0.518  0.00  0.00    +0.047 A 
ATOM     10  C   LIG    1        7.058   0.220   0.668  0.00  0.00    +0.026 A 
ATOM     11  C   LIG    1        7.828   0.573  -0.433  0.00  0.00    +0.002 A 
ATOM     12  C   LIG    1        7.297   0.675  -1.708  0.00  0.00    +0.001 A 
ATOM     13  C   LIG    1        5.952   0.407  -1.834  0.00  0.00    +0.010 A 
ATOM     14  C   LIG    1        5.175   0.056  -0.750  0.00  0.00    +0.003 A 
ATOM     15  C   LIG    1        3.814  -0.267  -0.591  0.00  0.00    -0.016 A 
ATOM     16  C   LIG    1        2.776  -0.308  -1.639  0.00  0.00    +0.057 C 
ATOM     17  C   LIG    1        1.508  -0.908  -1.121  0.00  0.00    +0.075 C 
ATOM     18  C   LIG    1        0.429   0.142  -0.899  0.00  0.00    +0.103 C 
ENDROOT
BRANCH   1  19
ATOM     19  C   LIG    1       -1.556   0.263   0.515  0.00  0.00    +0.085 C 
BRANCH  19  20
ATOM     20  C   LIG    1       -2.318   1.399  -0.099  0.00  0.00    +0.023 C 
BRANCH  20  21
ATOM     21  C   LIG    1       -3.160   2.050   0.978  0.00  0.00    +0.081 C 
BRANCH  21  22
ATOM     22  C   LIG    1       -4.072   1.024   1.530  0.00  0.00    +0.163 C 
ATOM     23  O   LIG    1       -3.748   0.387   2.577  0.00  0.00    -0.292 OA
BRANCH  22  24
ATOM     24  C   LIG    1       -5.327   0.756   0.870  0.00  0.00    +0.018 A 
ATOM     25  C   LIG    1       -6.168  -0.216   1.384  0.00  0.00    +0.014 A 
ATOM     26  C   LIG    1       -7.356  -0.475   0.747  0.00  0.00    +0.039 A 
ATOM     27  C   LIG    1       -7.722   0.213  -0.392  0.00  0.00    +0.123 A 
ATOM     28  C   LIG    1       -6.895   1.193  -0.925  0.00  0.00    +0.039 A 
ATOM     29  F   LIG    1       -8.918  -0.108  -0.962  0.00  0.00    -0.205 F 
ATOM     30  C   LIG    1       -5.706   1.434  -0.265  0.00  0.00    +0.014 A 
ENDBRANCH  22  24
ENDBRANCH  21  22
ENDBRANCH  20  21
ENDBRANCH  19  20
ENDBRANCH   1  19
TORSDOF 5
