REMARK  Name = molecules/YCPOZVAOBBQLRI-WDSKDSINSA-N.pdb
REMARK                            x       y       z     vdW  Elec       q    Type
REMARK                         _______ _______ _______ _____ _____    ______ ____
ROOT
ATOM      1  C   LIG    1       -0.880  -0.086  -0.114  0.00  0.00    +0.173 C 
ENDROOT
BRANCH   1   2
ATOM      2  O   LIG    1       -1.396  -1.199  -0.795  0.00  0.00    -0.387 OA
ATOM      3  H   LIG    1       -0.944  -1.205  -1.679  0.00  0.00    +0.210 HD
ENDBRANCH   1   2
BRANCH   1   4
ATOM      4  C   LIG    1       -1.546  -0.048   1.242  0.00  0.00    +0.227 C 
BRANCH   4   5
ATOM      5  O   LIG    1       -2.514  -1.027   1.367  0.00  0.00    -0.236 OA
BRANCH   5   6
ATOM      6  S   LIG    1       -4.045  -0.514   0.963  0.00  0.00    +0.079 S 
ATOM      7  O   LIG    1       -4.777  -0.053   2.182  0.00  0.00    -0.147 OA
ATOM      8  O   LIG    1       -4.811  -1.680   0.382  0.00  0.00    -0.147 OA
ATOM      9  C   LIG    1       -4.059   0.784  -0.229  0.00  0.00    +0.228 C 
ENDBRANCH   5   6
ENDBRANCH   4   5
ENDBRANCH   1   4
BRANCH   1  10
ATOM     10  C   LIG    1        0.612  -0.284  -0.026  0.00  0.00    +0.173 C 
BRANCH  10  11
ATOM     11  O   LIG    1        1.033  -1.289  -0.911  0.00  0.00    -0.387 OA
ATOM     12  H   LIG    1        1.366  -0.903  -1.764  0.00  0.00    +0.210 HD
ENDBRANCH  10  11
BRANCH  10  13
ATOM     13  C   LIG    1        1.375   0.968  -0.435  0.00  0.00    +0.227 C 
BRANCH  13  14
ATOM     14  O   LIG    1        2.358   1.311   0.471  0.00  0.00    -0.236 OA
BRANCH  14  15
ATOM     15  S   LIG    1        3.619   0.226   0.543  0.00  0.00    +0.079 S 
ATOM     16  O   LIG    1        4.358   0.495   1.836  0.00  0.00    -0.147 OA
ATOM     17  O   LIG    1        3.181  -1.198   0.594  0.00  0.00    -0.147 OA
ATOM     18  C   LIG    1        4.766   0.405  -0.791  0.00  0.00    +0.228 C 
ENDBRANCH  14  15
ENDBRANCH  13  14
ENDBRANCH  10  13
ENDBRANCH   1  10
TORSDOF 9
