REMARK  Name = molecules/YDDUMTOHNYZQPO-RVXRWRFUSA-N.pdb
REMARK                            x       y       z     vdW  Elec       q    Type
REMARK                         _______ _______ _______ _____ _____    ______ ____
ROOT
ATOM      1  C   LIG    1       -1.331  -1.966  -0.578  0.00  0.00    +0.215 C 
ATOM      2  C   LIG    1       -1.333  -3.062   0.468  0.00  0.00    +0.094 C 
ATOM      3  C   LIG    1       -0.083  -3.850   0.495  0.00  0.00    +0.151 C 
ATOM      4  C   LIG    1        1.192  -3.144   0.265  0.00  0.00    +0.184 C 
ATOM      5  C   LIG    1        1.160  -1.827  -0.408  0.00  0.00    +0.212 C 
ATOM      6  C   LIG    1       -0.157  -1.095  -0.288  0.00  0.00    +0.107 C 
ENDROOT
BRANCH   1   7
ATOM      7  C   LIG    1       -1.371  -2.494  -1.942  0.00  0.00    +0.349 C 
ATOM      8  O   LIG    1       -0.469  -3.194  -2.464  0.00  0.00    -0.246 OA
BRANCH   7   9
ATOM      9  O   LIG    1       -2.472  -2.222  -2.749  0.00  0.00    -0.478 OA
ATOM     10  H   LIG    1       -3.296  -2.837  -2.731  0.00  0.00    +0.295 HD
ENDBRANCH   7   9
ENDBRANCH   1   7
BRANCH   3  11
ATOM     11  O   LIG    1       -0.193  -4.873  -0.480  0.00  0.00    -0.389 OA
ATOM     12  H   LIG    1        0.478  -5.582  -0.330  0.00  0.00    +0.210 HD
ENDBRANCH   3  11
BRANCH   4  13
ATOM     13  O   LIG    1        1.783  -2.951   1.539  0.00  0.00    -0.386 OA
ATOM     14  H   LIG    1        2.764  -2.888   1.459  0.00  0.00    +0.210 HD
ENDBRANCH   4  13
BRANCH   5  15
ATOM     15  O   LIG    1        2.232  -1.033   0.092  0.00  0.00    -0.455 OA
BRANCH  15  16
ATOM     16  C   LIG    1        3.272  -0.575  -0.695  0.00  0.00    +0.332 C 
ATOM     17  O   LIG    1        3.249  -0.888  -1.910  0.00  0.00    -0.246 OA
BRANCH  16  18
ATOM     18  C   LIG    1        4.364   0.244  -0.145  0.00  0.00    +0.092 C 
ATOM     19  C   LIG    1        5.310   0.630  -0.985  0.00  0.00    +0.015 C 
BRANCH  19  20
ATOM     20  C   LIG    1        6.461   1.442  -0.613  0.00  0.00    -0.021 A 
ATOM     21  C   LIG    1        6.678   1.891   0.658  0.00  0.00    +0.057 A 
ATOM     22  C   LIG    1        7.788   2.655   0.940  0.00  0.00    +0.159 A 
ATOM     23  C   LIG    1        8.716   2.999  -0.026  0.00  0.00    +0.158 A 
ATOM     24  C   LIG    1        8.482   2.538  -1.304  0.00  0.00    +0.050 A 
ATOM     25  C   LIG    1        7.376   1.773  -1.598  0.00  0.00    +0.012 A 
BRANCH  23  26
ATOM     26  O   LIG    1        9.819   3.772   0.310  0.00  0.00    -0.503 OA
ATOM     27  H   LIG    1       10.467   3.995  -0.436  0.00  0.00    +0.292 HD
ENDBRANCH  23  26
BRANCH  22  28
ATOM     28  O   LIG    1        8.022   3.118   2.225  0.00  0.00    -0.503 OA
ATOM     29  H   LIG    1        7.368   2.888   2.960  0.00  0.00    +0.292 HD
ENDBRANCH  22  28
ENDBRANCH  19  20
ENDBRANCH  16  18
ENDBRANCH  15  16
ENDBRANCH   5  15
BRANCH   1  30
ATOM     30  O   LIG    1       -2.517  -1.200  -0.333  0.00  0.00    -0.443 OA
BRANCH  30  31
ATOM     31  C   LIG    1       -2.886  -0.097  -1.068  0.00  0.00    +0.333 C 
ATOM     32  O   LIG    1       -2.169   0.287  -2.017  0.00  0.00    -0.246 OA
BRANCH  31  33
ATOM     33  C   LIG    1       -4.109   0.661  -0.779  0.00  0.00    +0.092 C 
ATOM     34  C   LIG    1       -4.870   0.271   0.211  0.00  0.00    +0.015 C 
BRANCH  34  35
ATOM     35  C   LIG    1       -6.098   0.988   0.542  0.00  0.00    -0.021 A 
ATOM     36  C   LIG    1       -6.896   0.550   1.609  0.00  0.00    +0.012 A 
ATOM     37  C   LIG    1       -8.061   1.171   1.980  0.00  0.00    +0.050 A 
ATOM     38  C   LIG    1       -8.458   2.272   1.269  0.00  0.00    +0.158 A 
ATOM     39  C   LIG    1       -7.690   2.734   0.204  0.00  0.00    +0.159 A 
ATOM     40  C   LIG    1       -6.528   2.087  -0.140  0.00  0.00    +0.057 A 
BRANCH  39  41
ATOM     41  O   LIG    1       -8.140   3.845  -0.473  0.00  0.00    -0.503 OA
ATOM     42  H   LIG    1       -8.986   4.326  -0.232  0.00  0.00    +0.292 HD
ENDBRANCH  39  41
BRANCH  38  43
ATOM     43  O   LIG    1       -9.628   2.910   1.627  0.00  0.00    -0.503 OA
ATOM     44  H   LIG    1      -10.183   2.584   2.389  0.00  0.00    +0.292 HD
ENDBRANCH  38  43
ENDBRANCH  34  35
ENDBRANCH  31  33
ENDBRANCH  30  31
ENDBRANCH   1  30
TORSDOF 16
