REMARK  Name = molecules/YDOTUXAWKBPQJW-NSLWYYNWSA-N.pdb
REMARK                            x       y       z     vdW  Elec       q    Type
REMARK                         _______ _______ _______ _____ _____    ______ ____
ROOT
ATOM      1  C   LIG    1       -2.696  -0.548  -0.680  0.00  0.00    +0.269 C 
ATOM      2  N   LIG    1       -3.338  -0.977   0.531  0.00  0.00    -0.233 N 
ATOM      3  C   LIG    1       -2.264  -0.993   1.497  0.00  0.00    +0.271 C 
ATOM      4  O   LIG    1       -2.341  -0.967   2.751  0.00  0.00    -0.270 OA
ATOM      5  C   LIG    1       -1.009  -1.047   0.679  0.00  0.00    +0.220 C 
ATOM      6  C   LIG    1       -4.723  -1.309   0.691  0.00  0.00    +0.167 C 
ATOM      7  C   LIG    1       -5.379  -1.572  -0.601  0.00  0.00    +0.237 C 
ATOM      8  O   LIG    1       -6.549  -2.012  -0.608  0.00  0.00    -0.274 OA
ATOM      9  N   LIG    1       -4.723  -1.342  -1.819  0.00  0.00    -0.290 N 
ATOM     10  C   LIG    1       -5.192  -1.456  -3.189  0.00  0.00    +0.108 C 
ATOM     11  C   LIG    1       -4.642  -0.183  -3.799  0.00  0.00    +0.021 C 
ATOM     12  C   LIG    1       -3.491   0.253  -2.919  0.00  0.00    +0.031 C 
ATOM     13  O   LIG    1       -1.488  -1.295  -0.610  0.00  0.00    -0.298 OA
ATOM     14  C   LIG    1       -3.352  -0.915  -1.944  0.00  0.00    +0.156 C 
ENDROOT
BRANCH   5  15
ATOM     15  N   LIG    1       -0.251   0.153   0.746  0.00  0.00    -0.279 N 
ATOM     16  H   LIG    1       -0.540   0.981   1.309  0.00  0.00    +0.152 HD
ATOM     17  C   LIG    1        0.961   0.244   0.017  0.00  0.00    +0.224 C 
ATOM     18  O   LIG    1        1.358  -0.724  -0.680  0.00  0.00    -0.275 OA
BRANCH  17  19
ATOM     19  C   LIG    1        1.814   1.467   0.036  0.00  0.00    +0.112 C 
ATOM     20  C   LIG    1        2.170   1.873   1.424  0.00  0.00    +0.101 C 
ATOM     21  N   LIG    1        3.527   1.666   1.796  0.00  0.00    -0.297 NA
ATOM     22  C   LIG    1        4.347   2.852   1.762  0.00  0.00    +0.105 C 
ATOM     23  C   LIG    1        4.156   0.544   1.126  0.00  0.00    +0.091 C 
ATOM     24  C   LIG    1        5.448   0.169   1.727  0.00  0.00    +0.061 C 
ATOM     25  C   LIG    1        6.575   0.010   0.814  0.00  0.00    -0.020 A 
ATOM     26  C   LIG    1        7.892  -0.371   1.004  0.00  0.00    +0.087 A 
ATOM     27  N   LIG    1        8.535  -0.359  -0.185  0.00  0.00    -0.360 N 
ATOM     28  H   LIG    1        9.526  -0.599  -0.343  0.00  0.00    +0.165 HD
ATOM     29  C   LIG    1        7.646   0.025  -1.136  0.00  0.00    +0.047 A 
ATOM     30  C   LIG    1        7.669   0.230  -2.504  0.00  0.00    +0.026 A 
ATOM     31  C   LIG    1        6.515   0.641  -3.179  0.00  0.00    +0.003 A 
ATOM     32  C   LIG    1        5.311   0.864  -2.540  0.00  0.00    +0.009 A 
ATOM     33  C   LIG    1        5.310   0.652  -1.157  0.00  0.00    -0.011 A 
ATOM     34  C   LIG    1        6.451   0.249  -0.519  0.00  0.00    +0.010 A 
ATOM     35  C   LIG    1        4.143   0.835  -0.317  0.00  0.00    -0.025 C 
ATOM     36  C   LIG    1        3.018   1.280  -0.840  0.00  0.00    -0.007 C 
ENDBRANCH  17  19
ENDBRANCH   5  15
BRANCH   5  37
ATOM     37  C   LIG    1       -0.243  -2.267   1.196  0.00  0.00    +0.043 C 
ATOM     38  C   LIG    1        0.237  -1.931   2.573  0.00  0.00    +0.012 C 
ATOM     39  C   LIG    1       -1.200  -3.434   1.319  0.00  0.00    +0.012 C 
ENDBRANCH   5  37
BRANCH   1  40
ATOM     40  O   LIG    1       -2.260   0.780  -0.649  0.00  0.00    -0.348 OA
ATOM     41  H   LIG    1       -1.537   0.962  -1.267  0.00  0.00    +0.214 HD
ENDBRANCH   1  40
BRANCH   6  42
ATOM     42  C   LIG    1       -5.511  -0.435   1.596  0.00  0.00    +0.035 C 
BRANCH  42  43
ATOM     43  C   LIG    1       -5.652   0.995   1.298  0.00  0.00    -0.015 C 
ATOM     44  C   LIG    1       -4.487   1.885   1.487  0.00  0.00    +0.007 C 
ATOM     45  C   LIG    1       -6.312   1.258  -0.064  0.00  0.00    +0.007 C 
ENDBRANCH  42  43
ENDBRANCH   6  42
TORSDOF 6
