REMARK  Name = molecules/YEEZWCHGZNKEEK-UHFFFAOYSA-N.pdb
REMARK                            x       y       z     vdW  Elec       q    Type
REMARK                         _______ _______ _______ _____ _____    ______ ____
ROOT
ATOM      1  C   LIG    1        0.153   0.751  -0.835  0.00  0.00    +0.076 C 
ENDROOT
BRANCH   1   2
ATOM      2  C   LIG    1        0.751  -0.641  -0.810  0.00  0.00    -0.018 A 
ATOM      3  C   LIG    1        1.853  -1.044  -0.128  0.00  0.00    +0.005 A 
ATOM      4  C   LIG    1        2.819  -0.238   0.624  0.00  0.00    +0.033 A 
ATOM      5  C   LIG    1        3.917  -0.801   1.076  0.00  0.00    +0.037 A 
ATOM      6  C   LIG    1        4.186  -2.102   0.854  0.00  0.00    +0.025 A 
ATOM      7  C   LIG    1        3.337  -2.944   0.143  0.00  0.00    +0.028 A 
ATOM      8  C   LIG    1        2.183  -2.375  -0.319  0.00  0.00    +0.049 A 
ATOM      9  N   LIG    1        1.232  -2.828  -1.198  0.00  0.00    -0.349 N 
ATOM     10  C   LIG    1        1.185  -4.173  -1.663  0.00  0.00    +0.149 C 
ATOM     11  C   LIG    1        0.382  -1.759  -1.462  0.00  0.00    +0.090 A 
BRANCH   5  12
ATOM     12  N   LIG    1        5.028  -0.064   1.739  0.00  0.00    -0.251 N 
ATOM     13  H   LIG    1        5.074   0.167   2.688  0.00  0.00    +0.158 HD
ATOM     14  C   LIG    1        6.048   0.181   0.771  0.00  0.00    +0.405 C 
ATOM     15  O   LIG    1        5.697  -0.214  -0.508  0.00  0.00    -0.226 OA
BRANCH  14  16
ATOM     16  O   LIG    1        7.258   0.663   0.894  0.00  0.00    -0.447 OA
BRANCH  16  17
ATOM     17  C   LIG    1        8.195   0.959  -0.173  0.00  0.00    +0.178 C 
ATOM     18  C   LIG    1        8.431   2.434   0.087  0.00  0.00    +0.045 C 
ATOM     19  C   LIG    1        9.852   2.588  -0.169  0.00  0.00    +0.004 C 
ATOM     20  C   LIG    1       10.579   1.232  -0.071  0.00  0.00    +0.004 C 
ATOM     21  C   LIG    1        9.460   0.231  -0.040  0.00  0.00    +0.045 C 
ENDBRANCH  16  17
ENDBRANCH  14  16
ENDBRANCH   5  12
ENDBRANCH   1   2
BRANCH   1  22
ATOM     22  C   LIG    1       -1.257   0.440  -0.535  0.00  0.00    -0.001 A 
ATOM     23  C   LIG    1       -1.672   0.029   0.758  0.00  0.00    +0.124 A 
ATOM     24  C   LIG    1       -2.845  -0.678   0.885  0.00  0.00    +0.059 A 
ATOM     25  C   LIG    1       -3.510  -0.869  -0.273  0.00  0.00    +0.043 A 
ATOM     26  C   LIG    1       -3.228  -0.505  -1.488  0.00  0.00    +0.013 A 
ATOM     27  C   LIG    1       -2.056   0.179  -1.663  0.00  0.00    +0.008 A 
BRANCH  25  28
ATOM     28  C   LIG    1       -4.899  -1.796  -0.155  0.00  0.00    +0.285 C 
ATOM     29  O   LIG    1       -4.613  -2.903   0.089  0.00  0.00    -0.267 OA
ATOM     30  N   LIG    1       -5.706  -0.800  -0.385  0.00  0.00    -0.055 NA
BRANCH  30  31
ATOM     31  S   LIG    1       -6.744   0.477  -0.680  0.00  0.00    +0.095 S 
ATOM     32  O   LIG    1       -5.717   1.706  -0.401  0.00  0.00    -0.148 OA
ATOM     33  O   LIG    1       -6.833   0.612  -2.220  0.00  0.00    -0.148 OA
BRANCH  31  34
ATOM     34  C   LIG    1       -8.100   0.837   0.212  0.00  0.00    +0.113 A 
ATOM     35  C   LIG    1       -8.147   0.633   1.614  0.00  0.00    +0.029 A 
ATOM     36  C   LIG    1       -9.241   1.178   2.289  0.00  0.00    +0.002 A 
ATOM     37  C   LIG    1      -10.235   1.873   1.590  0.00  0.00    +0.000 A 
ATOM     38  C   LIG    1      -10.126   2.021   0.239  0.00  0.00    +0.005 A 
ATOM     39  C   LIG    1       -9.140   1.552  -0.474  0.00  0.00    -0.024 A 
ATOM     40  C   LIG    1       -8.993   1.612  -1.951  0.00  0.00    +0.046 C 
ENDBRANCH  31  34
ENDBRANCH  30  31
ENDBRANCH  25  28
BRANCH  23  41
ATOM     41  O   LIG    1       -0.811   0.401   1.731  0.00  0.00    -0.495 OA
ATOM     42  C   LIG    1       -0.909   0.227   3.057  0.00  0.00    +0.277 C 
ENDBRANCH  23  41
ENDBRANCH   1  22
TORSDOF 9
REMARK  Name = molecules/YEEZWCHGZNKEEK-UHFFFAOYSA-N.pdb
REMARK                            x       y       z     vdW  Elec       q    Type
REMARK                         _______ _______ _______ _____ _____    ______ ____
ROOT
ATOM      1  H   UNK    1       -6.607  -1.801  -1.053  0.00  0.00    +0.000 HD
ENDROOT
TORSDOF 0
