REMARK  Name = molecules/YEJZJVJJPVZXGX-MRXNPFEDSA-N.pdb
REMARK                            x       y       z     vdW  Elec       q    Type
REMARK                         _______ _______ _______ _____ _____    ______ ____
ROOT
ATOM      1  C   LIG    1       -0.539   1.062   0.185  0.00  0.00    +0.091 C 
ENDROOT
BRANCH   1   2
ATOM      2  C   LIG    1       -1.079  -0.292   0.299  0.00  0.00    -0.030 A 
ATOM      3  C   LIG    1       -0.592  -1.131   1.315  0.00  0.00    +0.005 A 
ATOM      4  C   LIG    1       -1.049  -2.411   1.484  0.00  0.00    +0.000 A 
ATOM      5  C   LIG    1       -2.018  -2.950   0.661  0.00  0.00    +0.000 A 
ATOM      6  C   LIG    1       -2.517  -2.160  -0.343  0.00  0.00    +0.000 A 
ATOM      7  C   LIG    1       -2.042  -0.862  -0.501  0.00  0.00    +0.005 A 
ENDBRANCH   1   2
BRANCH   1   8
ATOM      8  N   LIG    1       -1.546   2.044  -0.032  0.00  0.00    -0.301 NA
ATOM      9  C   LIG    1       -1.049   3.381   0.384  0.00  0.00    +0.105 C 
ATOM     10  C   LIG    1       -1.979   2.202  -1.409  0.00  0.00    +0.105 C 
ENDBRANCH   1   8
BRANCH   1  11
ATOM     11  C   LIG    1        0.694   1.167  -0.644  0.00  0.00    +0.058 C 
BRANCH  11  12
ATOM     12  C   LIG    1        1.672   0.080  -0.318  0.00  0.00    -0.046 A 
ATOM     13  C   LIG    1        2.611   0.291   0.669  0.00  0.00    +0.004 A 
ATOM     14  C   LIG    1        3.534  -0.682   1.009  0.00  0.00    +0.000 A 
ATOM     15  C   LIG    1        3.518  -1.894   0.346  0.00  0.00    +0.000 A 
ATOM     16  C   LIG    1        2.587  -2.127  -0.646  0.00  0.00    +0.000 A 
ATOM     17  C   LIG    1        1.680  -1.137  -0.962  0.00  0.00    +0.004 A 
ENDBRANCH  11  12
ENDBRANCH   1  11
TORSDOF 4
