REMARK  Name = molecules/YEKMWXFHPZBZLR-VIFPVBQESA-N.pdb
REMARK                            x       y       z     vdW  Elec       q    Type
REMARK                         _______ _______ _______ _____ _____    ______ ____
ROOT
ATOM      1  C   LIG    1        1.405  -1.016  -0.636  0.00  0.00    +0.263 C 
ATOM      2  N   LIG    1        1.282  -1.218   0.779  0.00  0.00    -0.276 N 
ATOM      3  C   LIG    1        0.089  -0.882   1.460  0.00  0.00    +0.250 C 
ATOM      4  O   LIG    1       -0.048  -1.028   2.712  0.00  0.00    -0.270 OA
ATOM      5  C   LIG    1       -1.062  -0.340   0.739  0.00  0.00    +0.078 A 
ATOM      6  C   LIG    1       -2.221  -0.015   1.411  0.00  0.00    +0.017 A 
ATOM      7  C   LIG    1       -3.307   0.497   0.726  0.00  0.00    +0.001 A 
ATOM      8  C   LIG    1       -3.185   0.664  -0.622  0.00  0.00    +0.004 A 
ATOM      9  C   LIG    1       -2.033   0.342  -1.300  0.00  0.00    +0.046 A 
ATOM     10  C   LIG    1       -0.931  -0.175  -0.617  0.00  0.00    +0.135 A 
ATOM     11  H   LIG    1        2.071  -1.613   1.312  0.00  0.00    +0.152 HD
ATOM     12  O   LIG    1        0.235  -0.513  -1.229  0.00  0.00    -0.470 OA
ENDROOT
BRANCH   1  13
ATOM     13  C   LIG    1        2.599  -0.118  -0.976  0.00  0.00    +0.081 C 
BRANCH  13  15
ATOM     14 CL   LIG    1        2.355   1.045   1.436  0.00  0.00    -0.125 Cl
ATOM     15  C   LIG    1        2.446   1.237  -0.326  0.00  0.00    +0.114 C 
ENDBRANCH  13  15
ENDBRANCH   1  13
TORSDOF 2
