REMARK  Name = molecules/YFAGHNZHGGCZAX-JKIFEVAISA-N.pdb
REMARK                            x       y       z     vdW  Elec       q    Type
REMARK                         _______ _______ _______ _____ _____    ______ ____
ROOT
ATOM      1  N   LIG    1        0.230  -0.258   1.660  0.00  0.00    -0.298 N 
ATOM      2  C   LIG    1        1.255  -0.603   2.552  0.00  0.00    +0.250 C 
ATOM      3  O   LIG    1        1.097  -0.177   3.757  0.00  0.00    -0.270 OA
ATOM      4  H   LIG    1        0.280  -0.562   0.672  0.00  0.00    +0.150 HD
ENDROOT
BRANCH   1   9
ATOM      5  CA  LIG    1       -2.884   1.463  -0.658  0.00  0.00    +0.201 C 
ATOM      6  N   LIG    1       -2.413   0.841   0.551  0.00  0.00    -0.271 N 
ATOM      7  C   LIG    1       -2.250  -0.045   1.641  0.00  0.00    +0.240 C 
ATOM      8  O   LIG    1       -2.936  -0.983   2.138  0.00  0.00    -0.273 OA
ATOM      9  CA  LIG    1       -0.933   0.519   2.033  0.00  0.00    +0.190 C 
ATOM     10  C   LIG    1       -1.327   1.620   1.113  0.00  0.00    +0.165 C 
ATOM     11  S   LIG    1       -0.324   1.765  -0.423  0.00  0.00    -0.127 S 
ATOM     12  C   LIG    1       -1.712   1.641  -1.597  0.00  0.00    +0.042 C 
ATOM     13  C   LIG    1       -1.794   2.909  -2.417  0.00  0.00    +0.025 C 
ATOM     14  C   LIG    1       -1.579   0.429  -2.482  0.00  0.00    +0.025 C 
BRANCH   5  15
ATOM     15  C   LIG    1       -3.549   2.733  -0.308  0.00  0.00    +0.327 C 
ATOM     16  OXT LIG    1       -3.682   3.190   0.835  0.00  0.00    -0.249 OA
BRANCH  15  17
ATOM     17  O   LIG    1       -4.081   3.496  -1.355  0.00  0.00    -0.479 OA
ATOM     18  H   LIG    1       -4.851   3.175  -1.920  0.00  0.00    +0.295 HD
ENDBRANCH  15  17
ENDBRANCH   5  15
ENDBRANCH   1   9
BRANCH   2  19
ATOM     19  C   LIG    1        2.438  -1.364   2.277  0.00  0.00    +0.106 A 
ATOM     20  C   LIG    1        3.417  -1.678   3.228  0.00  0.00    +0.147 A 
ATOM     21  C   LIG    1        3.443  -1.306   4.666  0.00  0.00    +0.090 C 
ATOM     22  O   LIG    1        4.314  -2.366   2.610  0.00  0.00    -0.359 OA
ATOM     23  N   LIG    1        4.016  -2.529   1.360  0.00  0.00    -0.077 NA
ATOM     24  C   LIG    1        2.826  -1.913   1.074  0.00  0.00    +0.128 A 
BRANCH  24  25
ATOM     25  C   LIG    1        2.195  -1.896  -0.234  0.00  0.00    +0.041 A 
ATOM     26  C   LIG    1        1.320  -2.874  -0.646  0.00  0.00    +0.052 A 
ATOM     27 CL   LIG    1        0.928  -4.181   0.447  0.00  0.00    -0.083 Cl
ATOM     28  C   LIG    1        0.731  -2.870  -1.895  0.00  0.00    +0.021 A 
ATOM     29  C   LIG    1        1.031  -1.839  -2.774  0.00  0.00    +0.003 A 
ATOM     30  C   LIG    1        1.901  -0.850  -2.389  0.00  0.00    +0.021 A 
ATOM     31  C   LIG    1        2.485  -0.877  -1.116  0.00  0.00    +0.052 A 
ATOM     32 CL   LIG    1        3.592   0.396  -0.645  0.00  0.00    -0.083 Cl
ENDBRANCH  24  25
ENDBRANCH   2  19
TORSDOF 5
