REMARK  Name = molecules/YFDLHELOZYVNJE-UHFFFAOYSA-L.pdb
REMARK                            x       y       z     vdW  Elec       q    Type
REMARK                         _______ _______ _______ _____ _____    ______ ____
ROOT
ATOM      1 HG   LIG    1        0.001   0.629   0.000  0.00  0.00    +0.000 Hg
ATOM      2  I   LIG    1        2.720   0.373   0.000  0.00  0.00    +0.000 I 
ATOM      3  I   LIG    1       -2.720   0.869   0.000  0.00  0.00    +0.000 I 
ENDROOT
TORSDOF 0
