REMARK  Name = molecules/YFHYNLHGFKXAIQ-UHFFFAOYSA-N.pdb
REMARK                            x       y       z     vdW  Elec       q    Type
REMARK                         _______ _______ _______ _____ _____    ______ ____
ROOT
ATOM      1  N   LIG    1        0.655   1.075   0.734  0.00  0.00    -0.260 N 
ATOM      2  N   LIG    1        1.790   1.206   1.450  0.00  0.00    -0.174 NA
ATOM      3  C   LIG    1        2.558   0.104   1.338  0.00  0.00    +0.082 A 
ATOM      4  C   LIG    1        3.882  -0.195   1.949  0.00  0.00    +0.069 C 
ATOM      5  C   LIG    1        1.857  -0.741   0.514  0.00  0.00    +0.084 A 
ATOM      6  N   LIG    1        2.300  -1.995  -0.030  0.00  0.00    -0.281 N 
ATOM      7  H   LIG    1        2.950  -2.541   0.545  0.00  0.00    +0.155 HD
ATOM      8  C   LIG    1        1.898  -2.489  -1.330  0.00  0.00    +0.239 C 
ATOM      9  O   LIG    1        2.267  -3.632  -1.667  0.00  0.00    -0.273 OA
ATOM     10  C   LIG    1        1.049  -1.724  -2.344  0.00  0.00    +0.238 C 
ATOM     11  N   LIG    1       -0.234  -1.358  -1.719  0.00  0.00    -0.272 NA
ATOM     12  C   LIG    1       -0.439  -0.660  -0.617  0.00  0.00    +0.093 C 
ATOM     13  C   LIG    1        0.672  -0.119   0.160  0.00  0.00    +0.109 A 
ENDROOT
BRANCH  12  14
ATOM     14  C   LIG    1       -1.782  -0.462  -0.176  0.00  0.00    +0.002 A 
ATOM     15  C   LIG    1       -2.181   0.050   1.001  0.00  0.00    +0.010 A 
ATOM     16  C   LIG    1       -3.513   0.294   1.330  0.00  0.00    +0.001 A 
ATOM     17  C   LIG    1       -4.483  -0.004   0.405  0.00  0.00    +0.000 A 
ATOM     18  C   LIG    1       -4.127  -0.532  -0.814  0.00  0.00    +0.001 A 
ATOM     19  C   LIG    1       -2.789  -0.755  -1.091  0.00  0.00    +0.010 A 
ENDBRANCH  12  14
BRANCH   1  20
ATOM     20  C   LIG    1       -0.285   2.143   0.453  0.00  0.00    +0.141 C 
ATOM     21  C   LIG    1        0.565   3.025  -0.556  0.00  0.00    +0.029 C 
ENDBRANCH   1  20
TORSDOF 2
