REMARK  Name = molecules/YFLBETLXDPBWTD-LBPRGKRZSA-N.pdb
REMARK                            x       y       z     vdW  Elec       q    Type
REMARK                         _______ _______ _______ _____ _____    ______ ____
ROOT
ATOM      1  N   LIG    1       -0.279   0.617  -0.982  0.00  0.00    -0.305 N 
ATOM      2  C   LIG    1        0.562   1.677  -0.541  0.00  0.00    +0.068 A 
ATOM      3  C   LIG    1        1.804   1.503   0.106  0.00  0.00    +0.065 A 
ATOM      4  C   LIG    1        2.522   2.609   0.500  0.00  0.00    +0.028 A 
ATOM      5  C   LIG    1        1.987   3.853   0.239  0.00  0.00    +0.002 A 
ATOM      6  C   LIG    1        0.768   4.027  -0.399  0.00  0.00    +0.002 A 
ATOM      7  N   LIG    1        2.511   0.313   0.428  0.00  0.00    -0.338 N 
ATOM      8  H   LIG    1        3.175   0.332   1.213  0.00  0.00    +0.167 HD
ATOM      9  C   LIG    1        2.411  -0.949  -0.230  0.00  0.00    +0.144 A 
ATOM     10  N   LIG    1        3.395  -1.807   0.008  0.00  0.00    -0.237 NA
ATOM     11  C   LIG    1        3.419  -3.028  -0.552  0.00  0.00    +0.113 A 
ATOM     12  C   LIG    1        2.439  -3.489  -1.408  0.00  0.00    +0.021 A 
ATOM     13  C   LIG    1        1.398  -2.622  -1.679  0.00  0.00    +0.018 A 
ATOM     14  C   LIG    1        1.389  -1.377  -1.099  0.00  0.00    +0.082 A 
ATOM     15  C   LIG    1        0.053   2.930  -0.790  0.00  0.00    +0.028 A 
ATOM     16  C   LIG    1        0.204  -0.643  -1.521  0.00  0.00    +0.263 A 
ATOM     17  O   LIG    1       -0.457  -1.156  -2.440  0.00  0.00    -0.267 OA
ENDROOT
BRANCH   1  18
ATOM     18  C   LIG    1       -1.669   0.800  -0.870  0.00  0.00    +0.144 C 
BRANCH  18  19
ATOM     19  C   LIG    1       -2.197   0.314   0.514  0.00  0.00    +0.073 C 
ATOM     20  C   LIG    1       -1.754   1.197   1.627  0.00  0.00    +0.026 C 
BRANCH  19  21
ATOM     21  N   LIG    1       -1.933  -1.081   0.723  0.00  0.00    -0.304 NA
ATOM     22  C   LIG    1       -2.135  -1.453   2.084  0.00  0.00    +0.104 C 
ATOM     23  C   LIG    1       -2.602  -1.948  -0.180  0.00  0.00    +0.104 C 
ENDBRANCH  19  21
ENDBRANCH  18  19
ENDBRANCH   1  18
TORSDOF 3
