REMARK  Name = molecules/YFLRYAVDPKONNX-UHFFFAOYSA-N.pdb
REMARK                            x       y       z     vdW  Elec       q    Type
REMARK                         _______ _______ _______ _____ _____    ______ ____
ROOT
ATOM      1  N   LIG    1        0.090  -1.619  -1.105  0.00  0.00    -0.277 N 
ATOM      2  C   LIG    1        1.259  -0.934  -0.653  0.00  0.00    +0.401 C 
ATOM      3  O   LIG    1        1.404  -0.732   0.570  0.00  0.00    -0.226 OA
ATOM      4  H   LIG    1       -0.026  -1.788  -2.149  0.00  0.00    +0.152 HD
ENDROOT
BRANCH   1   5
ATOM      5  C   LIG    1       -0.949  -2.103  -0.261  0.00  0.00    +0.142 C 
BRANCH   5   6
ATOM      6  C   LIG    1       -1.807  -0.955   0.176  0.00  0.00    -0.030 A 
ATOM      7  C   LIG    1       -1.654  -0.346   1.399  0.00  0.00    +0.005 A 
ATOM      8  C   LIG    1       -2.450   0.706   1.792  0.00  0.00    +0.000 A 
ATOM      9  C   LIG    1       -3.420   1.163   0.953  0.00  0.00    +0.000 A 
ATOM     10  C   LIG    1       -3.611   0.582  -0.284  0.00  0.00    +0.000 A 
ATOM     11  C   LIG    1       -2.807  -0.468  -0.663  0.00  0.00    +0.005 A 
ENDBRANCH   5   6
ENDBRANCH   1   5
BRANCH   2  12
ATOM     12  O   LIG    1        2.236  -0.487  -1.519  0.00  0.00    -0.448 OA
BRANCH  12  13
ATOM     13  C   LIG    1        3.368   0.185  -1.043  0.00  0.00    +0.261 C 
BRANCH  13  14
ATOM     14  C   LIG    1        3.077   1.473  -0.321  0.00  0.00    +0.197 C 
BRANCH  14  15
ATOM     15  O   LIG    1        4.286   2.057   0.109  0.00  0.00    -0.392 OA
ATOM     16  H   LIG    1        4.513   2.836  -0.474  0.00  0.00    +0.210 HD
ENDBRANCH  14  15
ENDBRANCH  13  14
ENDBRANCH  12  13
ENDBRANCH   2  12
TORSDOF 6
