REMARK  Name = molecules/YFTWHEBLORWGNI-UHFFFAOYSA-N.pdb
REMARK                            x       y       z     vdW  Elec       q    Type
REMARK                         _______ _______ _______ _____ _____    ______ ____
ROOT
ATOM      1  C   LIG    1        0.950   0.194  -0.980  0.00  0.00    +0.111 A 
ATOM      2  C   LIG    1        1.274   1.394  -0.378  0.00  0.00    +0.140 A 
ATOM      3  C   LIG    1        2.561   1.506   0.298  0.00  0.00    +0.186 A 
ATOM      4  N   LIG    1        2.648   2.752   0.800  0.00  0.00    -0.214 NA
ATOM      5  C   LIG    1        1.499   3.414   0.477  0.00  0.00    +0.224 A 
ATOM      6  N   LIG    1        3.366   0.452   0.308  0.00  0.00    -0.195 NA
ATOM      7  C   LIG    1        2.992  -0.697  -0.300  0.00  0.00    +0.193 A 
ATOM      8  N   LIG    1        0.689   2.595  -0.225  0.00  0.00    -0.230 NA
ATOM      9  N   LIG    1        1.822  -0.851  -0.934  0.00  0.00    -0.321 N 
ATOM     10  H   LIG    1        1.520  -1.725  -1.405  0.00  0.00    +0.169 HD
ENDROOT
BRANCH   7  11
ATOM     11  N   LIG    1        3.875  -1.797  -0.269  0.00  0.00    -0.329 N 
ATOM     12  H   LIG    1        4.897  -1.684  -0.045  0.00  0.00    +0.145 HD
ATOM     13  H   LIG    1        3.563  -2.773  -0.466  0.00  0.00    +0.145 HD
ENDBRANCH   7  11
BRANCH   1  14
ATOM     14  S   LIG    1       -0.606   0.036  -1.807  0.00  0.00    -0.048 S 
BRANCH  14  15
ATOM     15  C   LIG    1       -1.871  -0.544  -0.690  0.00  0.00    +0.133 A 
ATOM     16  N   LIG    1       -2.679   0.228   0.059  0.00  0.00    -0.326 N 
ATOM     17  C   LIG    1       -3.470  -0.623   0.742  0.00  0.00    +0.202 A 
ATOM     18  N   LIG    1       -3.153  -1.891   0.418  0.00  0.00    -0.212 NA
ATOM     19  C   LIG    1       -2.704   1.696   0.126  0.00  0.00    +0.151 C 
ATOM     20  C   LIG    1       -2.151  -1.884  -0.480  0.00  0.00    +0.247 A 
BRANCH  20  21
ATOM     21  N   LIG    1       -1.505  -3.012  -1.094  0.00  0.00    +0.078 N 
ATOM     22  O   LIG    1       -1.449  -4.117  -0.523  0.00  0.00    -0.125 OA
ATOM     23  O   LIG    1       -0.924  -2.914  -2.336  0.00  0.00    -0.125 OA
ENDBRANCH  20  21
ENDBRANCH  14  15
ENDBRANCH   1  14
TORSDOF 4
