REMARK  Name = molecules/YGCODSQDUUUKIV-UHFFFAOYSA-N.pdb
REMARK                            x       y       z     vdW  Elec       q    Type
REMARK                         _______ _______ _______ _____ _____    ______ ____
ROOT
ATOM      1  C   LIG    1        2.121  -0.028  -0.240  0.00  0.00    +0.286 A 
ATOM      2  N   LIG    1        1.400  -0.470   0.816  0.00  0.00    -0.196 NA
ATOM      3  C   LIG    1        0.088  -0.288   0.609  0.00  0.00    +0.113 A 
ATOM      4  C   LIG    1       -1.063  -0.549   1.336  0.00  0.00    +0.051 A 
ATOM      5  C   LIG    1       -2.329  -0.243   0.854  0.00  0.00    +0.043 A 
ATOM      6 CL   LIG    1       -3.766  -0.589   1.805  0.00  0.00    -0.083 Cl
ATOM      7  C   LIG    1       -2.384   0.338  -0.392  0.00  0.00    +0.024 A 
ATOM      8  C   LIG    1       -1.254   0.606  -1.131  0.00  0.00    +0.050 A 
ATOM      9  C   LIG    1        0.005   0.294  -0.637  0.00  0.00    +0.157 A 
ATOM     10  O   LIG    1        1.221   0.427  -1.095  0.00  0.00    -0.425 OA
ENDROOT
BRANCH   1  11
ATOM     11  N   LIG    1        3.529  -0.044  -0.406  0.00  0.00    -0.313 N 
ATOM     12  H   LIG    1        4.119  -0.587   0.239  0.00  0.00    +0.147 HD
ATOM     13  H   LIG    1        3.952   0.492  -1.176  0.00  0.00    +0.147 HD
ENDBRANCH   1  11
TORSDOF 1
