REMARK  Name = molecules/YHHSONZFOIEMCP-UHFFFAOYSA-N.pdb
REMARK                            x       y       z     vdW  Elec       q    Type
REMARK                         _______ _______ _______ _____ _____    ______ ____
ROOT
ATOM      1  C   LIG    1        1.026   0.341  -0.613  0.00  0.00    +0.150 C 
ENDROOT
BRANCH   1   2
ATOM      2  C   LIG    1       -0.079   0.686   0.289  0.00  0.00    -0.047 C 
BRANCH   2   4
ATOM      3  C   LIG    1       -1.717  -0.473  -0.956  0.00  0.00    -0.093 C 
ATOM      4  N   LIG    1       -1.246  -0.066   0.385  0.00  0.00    +0.376 N 
ATOM      5  C   LIG    1       -1.272  -1.181   1.299  0.00  0.00    -0.093 C 
ATOM      6  C   LIG    1       -2.307   0.864   0.868  0.00  0.00    -0.093 C 
ENDBRANCH   2   4
ENDBRANCH   1   2
BRANCH   1   7
ATOM      7  O   LIG    1        1.755  -0.790  -0.314  0.00  0.00    -0.329 OA
BRANCH   7   8
ATOM      8  P   LIG    1        3.417  -0.358  -0.382  0.00  0.00    +0.210 P 
ATOM      9  O   LIG    1        4.296  -1.693   0.148  0.00  0.00    -0.437 OA
ATOM     10  O   LIG    1        3.871   0.135  -1.692  0.00  0.00    -0.517 OA
BRANCH   8  11
ATOM     11  O   LIG    1        3.671   0.919   0.745  0.00  0.00    -0.344 OA
ATOM     12  H   LIG    1        3.381   0.724   1.643  0.00  0.00    +0.218 HD
ENDBRANCH   8  11
ENDBRANCH   7   8
ENDBRANCH   1   7
TORSDOF 5
