REMARK  Name = molecules/YHKPTICJRUESOY-UHFFFAOYSA-N.pdb
REMARK                            x       y       z     vdW  Elec       q    Type
REMARK                         _______ _______ _______ _____ _____    ______ ____
ROOT
ATOM      1  C   LIG    1       -0.495  -0.539  -0.234  0.00  0.00    +0.127 C 
ATOM      2  C   LIG    1       -0.358  -1.991  -0.309  0.00  0.00    +0.236 C 
ATOM      3  N   LIG    1       -1.487  -2.789   0.028  0.00  0.00    -0.239 N 
ATOM      4  H   LIG    1       -1.356  -3.755   0.444  0.00  0.00    +0.159 HD
ATOM      5  C   LIG    1       -2.835  -2.329  -0.179  0.00  0.00    +0.312 C 
ATOM      6  O   LIG    1       -3.827  -3.026   0.114  0.00  0.00    -0.252 OA
ATOM      7  N   LIG    1       -2.929  -1.018  -0.744  0.00  0.00    -0.239 N 
ATOM      8  H   LIG    1       -3.901  -0.622  -0.924  0.00  0.00    +0.159 HD
ATOM      9  O   LIG    1        0.697  -2.566  -0.653  0.00  0.00    -0.274 OA
ATOM     10  C   LIG    1       -1.754  -0.278  -1.053  0.00  0.00    +0.236 C 
ATOM     11  O   LIG    1       -1.786   0.561  -1.983  0.00  0.00    -0.274 OA
ENDROOT
BRANCH   1  12
ATOM     12  C   LIG    1        0.541   0.300  -0.806  0.00  0.00    +0.032 C 
BRANCH  12  13
ATOM     13  C   LIG    1        1.853   0.535  -0.258  0.00  0.00    -0.036 C 
ATOM     14  C   LIG    1        1.998   1.435   0.945  0.00  0.00    +0.010 C 
ATOM     15  C   LIG    1        2.785  -0.627  -0.045  0.00  0.00    +0.010 C 
ATOM     16  C   LIG    1        2.592   1.347  -1.366  0.00  0.00    +0.010 C 
ENDBRANCH  12  13
ENDBRANCH   1  12
BRANCH   1  17
ATOM     17  C   LIG    1       -0.955  -0.117   1.172  0.00  0.00    +0.052 C 
BRANCH  17  18
ATOM     18  C   LIG    1       -1.501   1.245   1.165  0.00  0.00    -0.033 C 
ATOM     19  C   LIG    1       -2.732   1.550   1.524  0.00  0.00    +0.004 C 
ENDBRANCH  17  18
ENDBRANCH   1  17
TORSDOF 4
