REMARK  Name = molecules/YHXISWVBGDMDLQ-UHFFFAOYSA-N.pdb
REMARK                            x       y       z     vdW  Elec       q    Type
REMARK                         _______ _______ _______ _____ _____    ______ ____
ROOT
ATOM      1  C   LIG    1        1.760   0.067   0.432  0.00  0.00    +0.244 C 
ATOM      2  O   LIG    1        1.298   1.073   1.045  0.00  0.00    -0.270 OA
ATOM      3  N   LIG    1        0.971  -1.025   0.073  0.00  0.00    -0.310 N 
ATOM      4  H   LIG    1        1.371  -1.849  -0.428  0.00  0.00    +0.149 HD
ENDROOT
BRANCH   1   5
ATOM      5  C   LIG    1        3.197   0.109   0.113  0.00  0.00    +0.037 A 
ATOM      6  C   LIG    1        4.013   1.114   0.620  0.00  0.00    +0.014 A 
ATOM      7  C   LIG    1        5.359   1.207   0.365  0.00  0.00    +0.021 A 
ATOM      8  C   LIG    1        5.963   0.272  -0.432  0.00  0.00    +0.041 A 
ATOM      9 CL   LIG    1        7.689   0.375  -0.768  0.00  0.00    -0.084 Cl
ATOM     10  C   LIG    1        5.181  -0.736  -0.950  0.00  0.00    +0.021 A 
ATOM     11  C   LIG    1        3.813  -0.819  -0.682  0.00  0.00    +0.014 A 
ENDBRANCH   1   5
BRANCH   3  12
ATOM     12  C   LIG    1       -0.436  -1.085   0.370  0.00  0.00    +0.120 C 
BRANCH  12  13
ATOM     13  C   LIG    1       -1.135   0.040  -0.326  0.00  0.00    +0.103 C 
BRANCH  13  14
ATOM     14  N   LIG    1       -2.530   0.093  -0.117  0.00  0.00    -0.297 NA
ATOM     15  C   LIG    1       -3.014   0.675   1.082  0.00  0.00    +0.112 C 
ATOM     16  C   LIG    1       -4.432   1.153   0.810  0.00  0.00    +0.175 C 
ATOM     17  O   LIG    1       -5.204   0.251   0.129  0.00  0.00    -0.377 OA
ATOM     18  C   LIG    1       -4.671  -0.249  -1.032  0.00  0.00    +0.175 C 
ATOM     19  C   LIG    1       -3.340  -0.930  -0.665  0.00  0.00    +0.112 C 
ENDBRANCH  13  14
ENDBRANCH  12  13
ENDBRANCH   3  12
TORSDOF 4
