REMARK  Name = molecules/YIBOMRUWOWDFLG-ONEGZZNKSA-N.pdb
REMARK                            x       y       z     vdW  Elec       q    Type
REMARK                         _______ _______ _______ _____ _____    ______ ____
ROOT
ATOM      1  C   LIG    1        0.055   0.167  -0.409  0.00  0.00    +0.128 A 
ATOM      2  C   LIG    1        0.025  -0.792   0.571  0.00  0.00    +0.063 A 
ATOM      3  C   LIG    1        1.237  -1.228   1.060  0.00  0.00    +0.118 A 
ATOM      4  N   LIG    1        2.376  -0.721   0.579  0.00  0.00    -0.223 NA
ATOM      5  C   LIG    1        2.431   0.204  -0.366  0.00  0.00    +0.221 A 
ATOM      6  N   LIG    1        1.221   0.628  -0.841  0.00  0.00    -0.199 NA
ENDROOT
BRANCH   1   7
ATOM      7  N   LIG    1       -1.152   0.642  -0.936  0.00  0.00    -0.299 N 
ATOM      8  H   LIG    1       -1.144   1.372  -1.683  0.00  0.00    +0.154 HD
BRANCH   7  10
ATOM      9  C   LIG    1       -3.044  -0.874  -1.144  0.00  0.00    -0.028 A 
ATOM     10  C   LIG    1       -2.436   0.195  -0.522  0.00  0.00    +0.038 A 
ATOM     11  C   LIG    1       -3.138   0.789   0.506  0.00  0.00    -0.028 A 
ATOM     12  C   LIG    1       -2.491   1.947   1.189  0.00  0.00    +0.046 C 
ATOM     13  C   LIG    1       -4.388   0.326   0.883  0.00  0.00    +0.013 A 
ATOM     14  C   LIG    1       -4.987  -0.733   0.263  0.00  0.00    -0.024 A 
ATOM     15  C   LIG    1       -4.287  -1.340  -0.776  0.00  0.00    +0.013 A 
ATOM     16  C   LIG    1       -2.314  -1.540  -2.260  0.00  0.00    +0.046 C 
BRANCH  14  17
ATOM     17  C   LIG    1       -6.288  -1.249   0.623  0.00  0.00    +0.019 C 
ATOM     18  C   LIG    1       -7.045  -0.767   1.579  0.00  0.00    +0.089 C 
BRANCH  18  19
ATOM     19  C   LIG    1       -8.339  -1.367   1.854  0.00  0.00    +0.091 C 
ATOM     20  N   LIG    1       -9.364  -1.850   2.091  0.00  0.00    -0.191 NA
ENDBRANCH  18  19
ENDBRANCH  14  17
ENDBRANCH   7  10
ENDBRANCH   1   7
BRANCH   5  21
ATOM     21  N   LIG    1        3.623   0.769  -0.904  0.00  0.00    -0.284 N 
ATOM     22  H   LIG    1        3.478   1.500  -1.657  0.00  0.00    +0.155 HD
BRANCH  21  23
ATOM     23  C   LIG    1        4.925   0.451  -0.533  0.00  0.00    +0.034 A 
ATOM     24  C   LIG    1        5.308  -0.464   0.416  0.00  0.00    +0.024 A 
ATOM     25  C   LIG    1        6.648  -0.689   0.692  0.00  0.00    +0.020 A 
ATOM     26  C   LIG    1        7.656  -0.023   0.045  0.00  0.00    +0.052 A 
ATOM     27  C   LIG    1        7.293   0.900  -0.912  0.00  0.00    +0.020 A 
ATOM     28  C   LIG    1        5.974   1.123  -1.185  0.00  0.00    +0.024 A 
BRANCH  26  29
ATOM     29  C   LIG    1        9.053  -0.274   0.350  0.00  0.00    +0.099 C 
ATOM     30  N   LIG    1       10.162  -0.462   0.609  0.00  0.00    -0.191 NA
ENDBRANCH  26  29
ENDBRANCH  21  23
ENDBRANCH   5  21
TORSDOF 7
