REMARK  Name = molecules/YIEAVVIJPFEHCX-RPWUZVMVSA-N.pdb
REMARK                            x       y       z     vdW  Elec       q    Type
REMARK                         _______ _______ _______ _____ _____    ______ ____
ROOT
ATOM      1  C   LIG    1       -0.755  -0.634  -1.052  0.00  0.00    +0.109 A 
ATOM      2  C   LIG    1        0.163  -1.084  -0.089  0.00  0.00    +0.048 A 
ATOM      3  C   LIG    1        1.306  -1.763  -0.400  0.00  0.00    +0.107 A 
ATOM      4  C   LIG    1        1.521  -1.992  -1.738  0.00  0.00    +0.032 A 
ATOM      5  C   LIG    1        0.647  -1.568  -2.702  0.00  0.00    +0.048 A 
ATOM      6  C   LIG    1       -0.538  -0.863  -2.393  0.00  0.00    +0.135 A 
ENDROOT
BRANCH   1  13
ATOM      7  C   LIG    1       -4.082   1.249  -0.792  0.00  0.00    +0.327 C 
ATOM      8  C   LIG    1       -4.386   0.902   0.597  0.00  0.00    +0.239 C 
ATOM      9  C   LIG    1       -3.119   0.866   1.443  0.00  0.00    +0.284 C 
ATOM     10  C   LIG    1       -3.521  -0.040   2.551  0.00  0.00    -0.006 C 
ATOM     11  C   LIG    1       -4.511  -0.788   2.135  0.00  0.00    +0.074 C 
ATOM     12  N   LIG    1       -2.082   0.237   0.723  0.00  0.00    -0.072 NA
ATOM     13  C   LIG    1       -1.952   0.075  -0.566  0.00  0.00    +0.324 C 
ATOM     14  N   LIG    1       -4.839  -0.462   0.781  0.00  0.00    -0.319 N 
ATOM     15  N   LIG    1       -2.951   0.574  -1.411  0.00  0.00    -0.169 N 
ATOM     16  H   LIG    1       -2.933   0.495  -2.439  0.00  0.00    +0.301 HD
ATOM     17  O   LIG    1       -4.730   2.081  -1.469  0.00  0.00    -0.245 OA
BRANCH  14  18
ATOM     18  C   LIG    1       -5.478  -1.308  -0.177  0.00  0.00    +0.102 C 
ATOM     19  C   LIG    1       -6.852  -0.775  -0.471  0.00  0.00    +0.024 C 
ENDBRANCH  14  18
BRANCH  10  20
ATOM     20  C   LIG    1       -2.847  -0.024   3.885  0.00  0.00    +0.036 C 
BRANCH  20  21
ATOM     21  C   LIG    1       -2.994   1.359   4.501  0.00  0.00    +0.001 C 
ATOM     22  C   LIG    1       -4.455   1.655   4.653  0.00  0.00    +0.004 C 
ENDBRANCH  20  21
ENDBRANCH  10  20
ENDBRANCH   1  13
BRANCH   3  23
ATOM     23  S   LIG    1        2.434  -2.297   0.822  0.00  0.00    +0.061 S 
ATOM     24  O   LIG    1        1.699  -2.574   2.129  0.00  0.00    -0.153 OA
ATOM     25  O   LIG    1        3.029  -3.648   0.444  0.00  0.00    -0.153 OA
BRANCH  23  26
ATOM     26  N   LIG    1        3.696  -1.242   1.127  0.00  0.00    -0.174 NA
ATOM     27  C   LIG    1        3.441   0.044   1.604  0.00  0.00    +0.125 C 
ATOM     28  C   LIG    1        4.491   1.075   1.338  0.00  0.00    +0.101 C 
ATOM     29  N   LIG    1        5.586   0.709   0.544  0.00  0.00    -0.298 NA
ATOM     30  C   LIG    1        5.570  -0.519  -0.148  0.00  0.00    +0.101 C 
ATOM     31  C   LIG    1        5.001  -1.593   0.752  0.00  0.00    +0.125 C 
BRANCH  29  32
ATOM     32  C   LIG    1        6.875   1.185   0.897  0.00  0.00    +0.112 C 
BRANCH  32  33
ATOM     33  C   LIG    1        7.059   2.663   0.728  0.00  0.00    +0.171 C 
BRANCH  33  34
ATOM     34  O   LIG    1        8.388   2.948   1.124  0.00  0.00    -0.394 OA
ATOM     35  H   LIG    1        9.000   2.268   0.741  0.00  0.00    +0.209 HD
ENDBRANCH  33  34
ENDBRANCH  32  33
ENDBRANCH  29  32
ENDBRANCH  23  26
ENDBRANCH   3  23
BRANCH   6  36
ATOM     36  O   LIG    1       -1.368  -0.468  -3.363  0.00  0.00    -0.491 OA
BRANCH  36  37
ATOM     37  C   LIG    1       -1.557  -0.434  -4.686  0.00  0.00    +0.229 C 
BRANCH  37  38
ATOM     38  C   LIG    1       -0.703   0.379  -5.590  0.00  0.00    +0.038 C 
ATOM     39  C   LIG    1        0.749   0.099  -5.655  0.00  0.00    +0.007 C 
ENDBRANCH  37  38
ENDBRANCH  36  37
ENDBRANCH   6  36
TORSDOF 12
