REMARK  Name = molecules/YIQPUIGJQJDJOS-UHFFFAOYSA-N.pdb
REMARK                            x       y       z     vdW  Elec       q    Type
REMARK                         _______ _______ _______ _____ _____    ______ ____
ROOT
ATOM      1  C   LIG    1       -1.228   1.563   0.350  0.00  0.00    -0.033 A 
ATOM      2  C   LIG    1       -0.767   0.492   1.056  0.00  0.00    +0.005 A 
ATOM      3  C   LIG    1        0.607   0.325   1.285  0.00  0.00    +0.005 A 
ATOM      4  C   LIG    1        1.517   1.235   0.804  0.00  0.00    -0.033 A 
ATOM      5  C   LIG    1        1.070   2.321   0.091  0.00  0.00    +0.005 A 
ATOM      6  C   LIG    1       -0.279   2.472  -0.127  0.00  0.00    +0.005 A 
ENDROOT
BRANCH   1   7
ATOM      7  C   LIG    1       -2.671   1.800   0.075  0.00  0.00    +0.119 C 
BRANCH   7   8
ATOM      8  N   LIG    1       -3.533   0.724   0.405  0.00  0.00    -0.297 NA
ATOM      9  C   LIG    1       -3.808   0.560   1.792  0.00  0.00    +0.100 C 
ATOM     10  C   LIG    1       -5.168   1.084   2.197  0.00  0.00    +0.096 C 
ATOM     11  N   LIG    1       -6.262   0.256   1.825  0.00  0.00    -0.315 NA
ATOM     12  C   LIG    1       -6.026  -1.162   1.980  0.00  0.00    +0.082 C 
ATOM     13  C   LIG    1       -7.347  -1.923   2.049  0.00  0.00    +0.030 C 
ATOM     14  C   LIG    1       -8.267  -1.435   0.971  0.00  0.00    +0.082 C 
ATOM     15  N   LIG    1       -7.598  -1.326  -0.322  0.00  0.00    -0.315 NA
ATOM     16  H   LIG    1       -7.509  -2.307  -0.690  0.00  0.00    +0.122 HD
ATOM     17  C   LIG    1       -8.349  -0.521  -1.243  0.00  0.00    +0.096 C 
ATOM     18  C   LIG    1       -7.484   0.461  -1.983  0.00  0.00    +0.096 C 
ATOM     19  N   LIG    1       -6.256  -0.098  -2.469  0.00  0.00    -0.315 NA
ATOM     20  C   LIG    1       -5.080   0.423  -1.777  0.00  0.00    +0.082 C 
ATOM     21  C   LIG    1       -4.166  -0.723  -1.474  0.00  0.00    +0.030 C 
ATOM     22  H   LIG    1       -6.195   0.102  -3.499  0.00  0.00    +0.122 HD
ATOM     23  H   LIG    1       -6.736   0.495   0.943  0.00  0.00    +0.122 HD
ATOM     24  C   LIG    1       -3.214  -0.451  -0.330  0.00  0.00    +0.086 C 
ENDBRANCH   7   8
ENDBRANCH   1   7
BRANCH   4  25
ATOM     25  C   LIG    1        2.964   1.071   1.040  0.00  0.00    +0.119 C 
BRANCH  25  26
ATOM     26  N   LIG    1        3.663   0.367   0.018  0.00  0.00    -0.297 NA
ATOM     27  C   LIG    1        3.212  -0.969  -0.218  0.00  0.00    +0.086 C 
ATOM     28  C   LIG    1        3.759  -1.990   0.729  0.00  0.00    +0.030 C 
ATOM     29  C   LIG    1        4.644  -3.008   0.017  0.00  0.00    +0.082 C 
ATOM     30  N   LIG    1        5.846  -2.428  -0.500  0.00  0.00    -0.315 NA
ATOM     31  C   LIG    1        7.008  -2.644   0.316  0.00  0.00    +0.096 C 
ATOM     32  C   LIG    1        7.691  -1.310   0.594  0.00  0.00    +0.096 C 
ATOM     33  N   LIG    1        8.598  -0.947  -0.466  0.00  0.00    -0.315 NA
ATOM     34  H   LIG    1        9.572  -1.288  -0.305  0.00  0.00    +0.122 HD
ATOM     35  C   LIG    1        8.676   0.473  -0.677  0.00  0.00    +0.082 C 
ATOM     36  C   LIG    1        7.328   1.058  -1.075  0.00  0.00    +0.030 C 
ATOM     37  C   LIG    1        6.962   2.093  -0.067  0.00  0.00    +0.082 C 
ATOM     38  N   LIG    1        5.559   2.301   0.102  0.00  0.00    -0.315 NA
ATOM     39  H   LIG    1        5.446   3.248   0.576  0.00  0.00    +0.122 HD
ATOM     40  C   LIG    1        4.788   2.251  -1.097  0.00  0.00    +0.096 C 
ATOM     41  H   LIG    1        6.049  -2.839  -1.447  0.00  0.00    +0.122 HD
ATOM     42  C   LIG    1        3.861   1.083  -1.200  0.00  0.00    +0.100 C 
ENDBRANCH  25  26
ENDBRANCH   4  25
TORSDOF 4
