REMARK  Name = molecules/YJBIJSVYPHRVCI-UHFFFAOYSA-N.pdb
REMARK                            x       y       z     vdW  Elec       q    Type
REMARK                         _______ _______ _______ _____ _____    ______ ____
ROOT
ATOM      1  C   LIG    1       -0.044  -0.523  -0.713  0.00  0.00    +0.351 C 
ATOM      2  O   LIG    1        0.502  -1.483  -0.118  0.00  0.00    -0.246 OA
ENDROOT
BRANCH   1   3
ATOM      3  C   LIG    1       -1.460  -0.142  -0.486  0.00  0.00    +0.200 C 
ATOM      4  C   LIG    1       -1.462   1.308  -0.028  0.00  0.00    +0.067 C 
ATOM      5  C   LIG    1       -2.167  -0.182  -1.824  0.00  0.00    +0.067 C 
BRANCH   3   6
ATOM      6  O   LIG    1       -2.082  -0.987   0.464  0.00  0.00    -0.475 OA
BRANCH   6   7
ATOM      7  C   LIG    1       -3.417  -0.718   0.754  0.00  0.00    +0.122 A 
ATOM      8  C   LIG    1       -3.777   0.147   1.768  0.00  0.00    +0.047 A 
ATOM      9  C   LIG    1       -5.112   0.425   2.069  0.00  0.00    +0.023 A 
ATOM     10  C   LIG    1       -6.110  -0.176   1.339  0.00  0.00    +0.041 A 
ATOM     11 CL   LIG    1       -7.773   0.180   1.725  0.00  0.00    -0.084 Cl
ATOM     12  C   LIG    1       -5.784  -1.041   0.323  0.00  0.00    +0.023 A 
ATOM     13  C   LIG    1       -4.442  -1.303   0.041  0.00  0.00    +0.047 A 
ENDBRANCH   6   7
ENDBRANCH   3   6
ENDBRANCH   1   3
BRANCH   1  14
ATOM     14  O   LIG    1        0.705   0.200  -1.610  0.00  0.00    -0.456 OA
BRANCH  14  15
ATOM     15  C   LIG    1        2.042  -0.028  -1.934  0.00  0.00    +0.287 C 
BRANCH  15  16
ATOM     16  C   LIG    1        2.916   0.104  -0.736  0.00  0.00    +0.079 A 
ATOM     17  C   LIG    1        2.458   0.646   0.445  0.00  0.00    +0.027 A 
ATOM     18  C   LIG    1        3.328   0.741   1.517  0.00  0.00    +0.004 A 
ATOM     19  C   LIG    1        4.642   0.305   1.425  0.00  0.00    +0.026 A 
ATOM     20  CA  LIG    1        5.065  -0.232   0.227  0.00  0.00    +0.067 A 
ATOM     21  N   LIG    1        4.198  -0.311  -0.796  0.00  0.00    -0.251 NA
BRANCH  20  22
ATOM     22  C   LIG    1        6.471  -0.723   0.053  0.00  0.00    +0.211 C 
BRANCH  22  23
ATOM     23  O   LIG    1        7.297   0.309  -0.407  0.00  0.00    -0.389 OA
ATOM     24  H   LIG    1        6.738   1.048  -0.789  0.00  0.00    +0.210 HD
ENDBRANCH  22  23
ENDBRANCH  20  22
ENDBRANCH  15  16
ENDBRANCH  14  15
ENDBRANCH   1  14
TORSDOF 8
