REMARK  Name = molecules/YJQPYGGHQPGBLI-KGSXXDOSSA-N.pdb
REMARK                            x       y       z     vdW  Elec       q    Type
REMARK                         _______ _______ _______ _____ _____    ______ ____
ROOT
ATOM      1  C   LIG    1       -2.407  -1.456  -0.359  0.00  0.00    +0.051 C 
ATOM      2  C   LIG    1       -1.875  -0.113  -0.084  0.00  0.00    +0.034 A 
ATOM      3  C   LIG    1       -2.638   0.966   0.260  0.00  0.00    +0.130 A 
ATOM      4  C   LIG    1       -1.995   2.205   0.512  0.00  0.00    +0.047 A 
ATOM      5  C   LIG    1       -0.644   2.333   0.416  0.00  0.00    +0.019 A 
ATOM      6  C   LIG    1        0.143   1.258   0.070  0.00  0.00    +0.061 A 
ATOM      7  C   LIG    1        1.514   1.432  -0.019  0.00  0.00    +0.156 A 
ATOM      8  C   LIG    1        2.265   0.311  -0.378  0.00  0.00    +0.162 A 
ATOM      9  C   LIG    1        1.579  -0.868  -0.611  0.00  0.00    +0.362 A 
ATOM     10  O   LIG    1        0.281  -0.945  -0.503  0.00  0.00    -0.420 OA
ATOM     11  O   LIG    1        2.284  -1.872  -0.936  0.00  0.00    -0.243 OA
ATOM     12  C   LIG    1       -0.491   0.063  -0.172  0.00  0.00    +0.149 A 
ENDROOT
BRANCH   8  13
ATOM     13  N   LIG    1        3.681   0.354  -0.495  0.00  0.00    -0.273 N 
ATOM     14  H   LIG    1        4.302   0.079   0.315  0.00  0.00    +0.155 HD
ATOM     15  C   LIG    1        4.287   0.758  -1.694  0.00  0.00    +0.249 C 
ATOM     16  O   LIG    1        3.593   1.098  -2.668  0.00  0.00    -0.270 OA
BRANCH  15  17
ATOM     17  C   LIG    1        5.733   0.782  -1.809  0.00  0.00    +0.038 A 
ATOM     18  C   LIG    1        6.544  -0.055  -1.076  0.00  0.00    +0.020 A 
ATOM     19  C   LIG    1        7.914  -0.026  -1.190  0.00  0.00    -0.002 A 
ATOM     20  C   LIG    1        8.551   0.843  -2.046  0.00  0.00    +0.120 A 
ATOM     21  C   LIG    1        7.728   1.696  -2.793  0.00  0.00    +0.046 A 
ATOM     22  C   LIG    1        6.370   1.656  -2.668  0.00  0.00    +0.016 A 
BRANCH  20  23
ATOM     23  O   LIG    1        9.924   0.905  -2.190  0.00  0.00    -0.506 OA
ATOM     24  H   LIG    1       10.514   0.304  -1.675  0.00  0.00    +0.292 HD
ENDBRANCH  20  23
BRANCH  19  25
ATOM     25  C   LIG    1        8.684  -0.988  -0.345  0.00  0.00    +0.066 C 
BRANCH  25  26
ATOM     26  C   LIG    1        9.288  -0.393   0.839  0.00  0.00    -0.023 C 
ATOM     27  C   LIG    1       10.555  -0.475   1.173  0.00  0.00    -0.079 C 
ATOM     28  C   LIG    1       10.997   0.210   2.441  0.00  0.00    +0.038 C 
ATOM     29  C   LIG    1       11.618  -1.196   0.428  0.00  0.00    +0.038 C 
ENDBRANCH  25  26
ENDBRANCH  19  25
ENDBRANCH  15  17
ENDBRANCH   8  13
BRANCH   7  30
ATOM     30  O   LIG    1        2.172   2.617   0.217  0.00  0.00    -0.504 OA
ATOM     31  H   LIG    1        1.818   3.495   0.478  0.00  0.00    +0.292 HD
ENDBRANCH   7  30
BRANCH   3  32
ATOM     32  O   LIG    1       -3.945   0.955   0.377  0.00  0.00    -0.460 OA
BRANCH  32  33
ATOM     33  C   LIG    1       -5.055   0.169   0.316  0.00  0.00    +0.340 C 
ATOM     34  C   LIG    1       -5.918   0.458   1.497  0.00  0.00    +0.226 C 
ATOM     35  C   LIG    1       -7.370   0.247   1.381  0.00  0.00    +0.244 C 
ATOM     36  C   LIG    1       -7.878   0.315  -0.014  0.00  0.00    +0.192 C 
ATOM     37  C   LIG    1       -6.893  -0.220  -1.023  0.00  0.00    +0.098 C 
ATOM     38  C   LIG    1       -6.733  -1.724  -0.915  0.00  0.00    +0.044 C 
ATOM     39  C   LIG    1       -7.442   0.077  -2.400  0.00  0.00    +0.044 C 
ATOM     40  O   LIG    1       -5.675   0.454  -0.919  0.00  0.00    -0.331 OA
BRANCH  34  41
ATOM     41  O   LIG    1       -5.455  -0.401   2.537  0.00  0.00    -0.382 OA
ATOM     42  H   LIG    1       -4.526  -0.125   2.791  0.00  0.00    +0.210 HD
ENDBRANCH  34  41
BRANCH  36  43
ATOM     43  O   LIG    1       -8.111   1.671  -0.329  0.00  0.00    -0.373 OA
ATOM     44  C   LIG    1       -9.430   1.900  -0.703  0.00  0.00    +0.194 C 
ENDBRANCH  36  43
BRANCH  35  45
ATOM     45  O   LIG    1       -7.838  -0.898   2.086  0.00  0.00    -0.442 OA
BRANCH  45  46
ATOM     46  C   LIG    1       -8.719  -0.806   3.181  0.00  0.00    +0.398 C 
ATOM     47  N   LIG    1       -9.189  -1.945   3.883  0.00  0.00    -0.295 N 
ATOM     48  H   LIG    1       -8.859  -2.144   4.841  0.00  0.00    +0.148 HD
ATOM     49  H   LIG    1       -9.869  -2.571   3.414  0.00  0.00    +0.148 HD
ATOM     50  O   LIG    1       -9.079   0.374   3.515  0.00  0.00    -0.227 OA
ENDBRANCH  45  46
ENDBRANCH  35  45
ENDBRANCH  32  33
ENDBRANCH   3  32
TORSDOF 12
