REMARK  Name = molecules/YJTVZHOYBAOUTO-URBBEOKESA-N.pdb
REMARK                            x       y       z     vdW  Elec       q    Type
REMARK                         _______ _______ _______ _____ _____    ______ ____
ROOT
ATOM      1  P   LIG    1       -2.422  -2.222   0.876  0.00  0.00    +0.475 P 
ATOM      2  O   LIG    1       -1.560  -3.364   0.332  0.00  0.00    -0.227 OA
ENDROOT
BRANCH   1   3
ATOM      3  O   LIG    1       -2.604  -2.464   2.544  0.00  0.00    -0.302 OA
ATOM      4  H   LIG    1       -3.410  -1.972   2.857  0.00  0.00    +0.222 HD
ENDBRANCH   1   3
BRANCH   1   5
ATOM      5  O   LIG    1       -3.913  -2.341   0.099  0.00  0.00    -0.284 OA
BRANCH   5   6
ATOM      6  C   LIG    1       -4.961  -1.916   0.902  0.00  0.00    +0.206 C 
BRANCH   6  10
ATOM      7  C   LIG    1       -7.769  -1.118  -1.391  0.00  0.00    +0.195 C 
ATOM      8  C   LIG    1       -8.360  -1.595  -0.087  0.00  0.00    +0.255 C 
ATOM      9  O   LIG    1       -7.353  -1.655   0.846  0.00  0.00    -0.346 OA
ATOM     10  C   LIG    1       -6.243  -2.062   0.114  0.00  0.00    +0.178 C 
ATOM     11  C   LIG    1       -6.285  -1.120  -1.068  0.00  0.00    +0.178 C 
BRANCH   8  12
ATOM     12  N   LIG    1       -9.410  -0.658   0.269  0.00  0.00    -0.270 N 
ATOM     13  C   LIG    1       -9.500  -0.029   1.436  0.00  0.00    +0.352 A 
ATOM     14  O   LIG    1       -8.610  -0.257   2.304  0.00  0.00    -0.244 OA
ATOM     15  N   LIG    1      -10.518   0.826   1.667  0.00  0.00    -0.178 NA
ATOM     16  C   LIG    1      -11.479   1.090   0.765  0.00  0.00    +0.123 A 
ATOM     17  C   LIG    1      -11.402   0.440  -0.463  0.00  0.00    +0.061 A 
ATOM     18  C   LIG    1      -10.355  -0.419  -0.661  0.00  0.00    +0.096 A 
BRANCH  16  19
ATOM     19  N   LIG    1      -12.546   1.981   1.000  0.00  0.00    -0.343 N 
ATOM     20  H   LIG    1      -13.316   1.708   1.628  0.00  0.00    +0.144 HD
ATOM     21  H   LIG    1      -12.555   2.905   0.544  0.00  0.00    +0.144 HD
ENDBRANCH  16  19
ENDBRANCH   8  12
BRANCH  11  22
ATOM     22  O   LIG    1       -5.530  -1.589  -2.135  0.00  0.00    -0.386 OA
ATOM     23  H   LIG    1       -4.953  -0.840  -2.438  0.00  0.00    +0.210 HD
ENDBRANCH  11  22
BRANCH   7  24
ATOM     24  O   LIG    1       -8.207   0.143  -1.743  0.00  0.00    -0.385 OA
ATOM     25  H   LIG    1       -7.518   0.557  -2.317  0.00  0.00    +0.210 HD
ENDBRANCH   7  24
ENDBRANCH   6  10
ENDBRANCH   5   6
ENDBRANCH   1   5
BRANCH   1  26
ATOM     26  O   LIG    1       -1.629  -0.784   0.526  0.00  0.00    -0.287 OA
BRANCH  26  27
ATOM     27  C   LIG    1       -1.777   0.184   1.424  0.00  0.00    +0.172 C 
BRANCH  27  28
ATOM     28  C   LIG    1       -1.124   1.504   1.225  0.00  0.00    +0.029 C 
BRANCH  28  29
ATOM     29  C   LIG    1       -1.391   2.290   0.031  0.00  0.00    +0.002 C 
BRANCH  29  30
ATOM     30  C   LIG    1       -0.783   2.160  -1.276  0.00  0.00    +0.000 C 
BRANCH  30  31
ATOM     31  C   LIG    1       -0.570   0.914  -2.018  0.00  0.00    +0.000 C 
BRANCH  31  32
ATOM     32  C   LIG    1        0.557   0.067  -1.517  0.00  0.00    +0.000 C 
BRANCH  32  33
ATOM     33  C   LIG    1        1.905   0.824  -1.682  0.00  0.00    -0.000 C 
BRANCH  33  34
ATOM     34  C   LIG    1        2.992  -0.070  -1.184  0.00  0.00    -0.000 C 
BRANCH  34  35
ATOM     35  C   LIG    1        4.347   0.613  -1.353  0.00  0.00    -0.000 C 
BRANCH  35  36
ATOM     36  C   LIG    1        4.412   1.879  -0.585  0.00  0.00    -0.000 C 
BRANCH  36  37
ATOM     37  C   LIG    1        5.711   2.583  -0.660  0.00  0.00    -0.000 C 
BRANCH  37  38
ATOM     38  C   LIG    1        6.876   1.993  -0.014  0.00  0.00    -0.000 C 
BRANCH  38  39
ATOM     39  C   LIG    1        7.386   0.650  -0.324  0.00  0.00    -0.000 C 
BRANCH  39  40
ATOM     40  C   LIG    1        8.701   0.494   0.496  0.00  0.00    -0.000 C 
BRANCH  40  41
ATOM     41  C   LIG    1        9.284  -0.870   0.226  0.00  0.00    -0.000 C 
BRANCH  41  42
ATOM     42  C   LIG    1       10.556  -0.999   1.031  0.00  0.00    -0.000 C 
BRANCH  42  43
ATOM     43  C   LIG    1       11.223  -2.347   0.827  0.00  0.00    -0.003 C 
ATOM     44  C   LIG    1       12.475  -2.365   1.672  0.00  0.00    +0.004 C 
ENDBRANCH  42  43
ENDBRANCH  41  42
ENDBRANCH  40  41
ENDBRANCH  39  40
ENDBRANCH  38  39
ENDBRANCH  37  38
ENDBRANCH  36  37
ENDBRANCH  35  36
ENDBRANCH  34  35
ENDBRANCH  33  34
ENDBRANCH  32  33
ENDBRANCH  31  32
ENDBRANCH  30  31
ENDBRANCH  29  30
ENDBRANCH  28  29
ENDBRANCH  27  28
ENDBRANCH  26  27
ENDBRANCH   1  26
TORSDOF 26
