REMARK  Name = molecules/YJYPHIXNFHFHND-UHFFFAOYSA-N.pdb
REMARK                            x       y       z     vdW  Elec       q    Type
REMARK                         _______ _______ _______ _____ _____    ______ ____
ROOT
ATOM      1  C   LIG    1       -2.192   1.125  -0.452  0.00  0.00    +0.121 A 
ATOM      2  C   LIG    1       -1.024   0.470  -0.118  0.00  0.00    +0.054 A 
ATOM      3  C   LIG    1       -0.974  -0.882   0.181  0.00  0.00    -0.011 A 
ATOM      4  C   LIG    1        0.202  -1.524   0.520  0.00  0.00    -0.038 A 
ATOM      5  C   LIG    1        0.168  -2.895   0.819  0.00  0.00    +0.004 A 
ATOM      6  C   LIG    1       -1.010  -3.599   0.778  0.00  0.00    +0.001 A 
ATOM      7  C   LIG    1       -2.156  -2.918   0.434  0.00  0.00    +0.008 A 
ATOM      8  C   LIG    1       -2.190  -1.574   0.130  0.00  0.00    -0.017 A 
ATOM      9  C   LIG    1       -3.361  -0.933  -0.201  0.00  0.00    +0.012 A 
ATOM     10  C   LIG    1       -3.362   0.409  -0.491  0.00  0.00    +0.046 A 
ENDROOT
BRANCH   1  12
ATOM     11  C   LIG    1       -3.333   3.143  -1.074  0.00  0.00    +0.277 C 
ATOM     12  O   LIG    1       -2.128   2.486  -0.734  0.00  0.00    -0.495 OA
ENDBRANCH   1  12
BRANCH   4  13
ATOM     13  C   LIG    1        1.484  -0.798   0.543  0.00  0.00    +0.054 C 
BRANCH  13  14
ATOM     14  C   LIG    1        2.064  -0.619  -0.825  0.00  0.00    +0.109 C 
BRANCH  14  15
ATOM     15  N   LIG    1        3.304   0.098  -0.776  0.00  0.00    -0.315 N 
ATOM     16  C   LIG    1        3.406   1.431  -0.257  0.00  0.00    +0.210 C 
ATOM     17  O   LIG    1        2.426   2.070   0.191  0.00  0.00    -0.276 OA
ATOM     18  C   LIG    1        4.726   2.108  -0.238  0.00  0.00    +0.109 C 
ATOM     19  H   LIG    1        4.167  -0.379  -1.136  0.00  0.00    +0.149 HD
ENDBRANCH  14  15
ENDBRANCH  13  14
ENDBRANCH   4  13
TORSDOF 4
