REMARK  Name = molecules/YKGYIDJEEQRWQH-UHFFFAOYSA-N.pdb
REMARK                            x       y       z     vdW  Elec       q    Type
REMARK                         _______ _______ _______ _____ _____    ______ ____
ROOT
ATOM      1  C   LIG    1       -0.484  -1.214  -1.629  0.00  0.00    +0.312 C 
ATOM      2  O   LIG    1        0.068  -2.344  -1.587  0.00  0.00    -0.250 OA
ENDROOT
BRANCH   1   3
ATOM      3  O   LIG    1        0.240  -0.128  -1.194  0.00  0.00    -0.426 OA
BRANCH   3   7
ATOM      4  C   LIG    1        4.143  -0.363   0.268  0.00  0.00    +0.059 A 
ATOM      5  C   LIG    1        3.063  -0.484   1.113  0.00  0.00    +0.018 A 
ATOM      6  C   LIG    1        1.754  -0.405   0.621  0.00  0.00    +0.047 A 
ATOM      7  C   LIG    1        1.520  -0.204  -0.721  0.00  0.00    +0.132 A 
ATOM      8  C   LIG    1        2.596  -0.083  -1.567  0.00  0.00    +0.047 A 
ATOM      9  C   LIG    1        3.883  -0.163  -1.068  0.00  0.00    +0.018 A 
BRANCH   4  10
ATOM     10  C   LIG    1        5.513  -0.440   0.746  0.00  0.00    +0.339 C 
ATOM     11  O   LIG    1        6.457  -0.322  -0.075  0.00  0.00    -0.245 OA
BRANCH  10  12
ATOM     12  O   LIG    1        5.850  -0.639   2.067  0.00  0.00    -0.461 OA
BRANCH  12  13
ATOM     13  C   LIG    1        7.150  -0.720   2.568  0.00  0.00    +0.229 C 
ATOM     14  C   LIG    1        7.969   0.523   2.325  0.00  0.00    +0.048 C 
ENDBRANCH  12  13
ENDBRANCH  10  12
ENDBRANCH   4  10
ENDBRANCH   3   7
ENDBRANCH   1   3
BRANCH   1  15
ATOM     15  C   LIG    1       -1.861  -1.007  -2.119  0.00  0.00    +0.121 C 
BRANCH  15  16
ATOM     16  C   LIG    1       -2.237   0.458  -2.045  0.00  0.00    +0.011 C 
BRANCH  16  17
ATOM     17  C   LIG    1       -3.626   0.701  -2.534  0.00  0.00    +0.004 C 
BRANCH  17  18
ATOM     18  C   LIG    1       -4.684  -0.022  -1.774  0.00  0.00    +0.037 C 
BRANCH  18  19
ATOM     19  C   LIG    1       -4.723   0.345  -0.308  0.00  0.00    +0.196 C 
BRANCH  19  20
ATOM     20  N   LIG    1       -5.775  -0.399   0.357  0.00  0.00    -0.276 N 
ATOM     21  H   LIG    1       -6.384  -1.077  -0.157  0.00  0.00    +0.258 HD
BRANCH  20  22
ATOM     22  C   LIG    1       -6.001  -0.223   1.727  0.00  0.00    +0.376 C 
ATOM     23  N   LIG    1       -6.316   1.058   2.226  0.00  0.00    -0.289 N 
ATOM     24  H   LIG    1       -7.132   1.183   2.843  0.00  0.00    +0.255 HD
ATOM     25  H   LIG    1       -5.728   1.866   1.972  0.00  0.00    +0.255 HD
BRANCH  22  26
ATOM     26  N   LIG    1       -5.923  -1.214   2.531  0.00  0.00    -0.130 NA
ATOM     27  H   LIG    1       -5.691  -2.154   2.160  0.00  0.00    +0.306 HD
ENDBRANCH  22  26
ENDBRANCH  20  22
ENDBRANCH  19  20
ENDBRANCH  18  19
ENDBRANCH  17  18
ENDBRANCH  16  17
ENDBRANCH  15  16
ENDBRANCH   1  15
TORSDOF 13
