REMARK  Name = molecules/YKNNBQKAAWCISH-OAHLLOKOSA-N.pdb
REMARK                            x       y       z     vdW  Elec       q    Type
REMARK                         _______ _______ _______ _____ _____    ______ ____
ROOT
ATOM      1  C   LIG    1        0.259   0.828   0.185  0.00  0.00    +0.211 C 
ATOM      2  O   LIG    1        0.270   1.807   1.021  0.00  0.00    -0.277 OA
ATOM      3  N   LIG    1        1.528   0.285  -0.113  0.00  0.00    -0.240 N 
ATOM      4  C   LIG    1        2.563   1.282  -0.361  0.00  0.00    +0.055 A 
ATOM      5  C   LIG    1        2.376   2.602  -0.009  0.00  0.00    +0.025 A 
ATOM      6  C   LIG    1        3.365   3.563  -0.193  0.00  0.00    +0.002 A 
ATOM      7  C   LIG    1        4.571   3.228  -0.738  0.00  0.00    +0.001 A 
ATOM      8  C   LIG    1        4.779   1.933  -1.097  0.00  0.00    +0.017 A 
ATOM      9  C   LIG    1        3.787   1.003  -0.905  0.00  0.00    +0.035 A 
ATOM     10  S   LIG    1        4.154  -0.623  -1.507  0.00  0.00    -0.086 S 
ATOM     11  C   LIG    1        2.819  -1.673  -0.975  0.00  0.00    +0.034 C 
ATOM     12  C   LIG    1        3.000  -3.027  -1.128  0.00  0.00    +0.013 C 
ATOM     13  C   LIG    1        2.030  -3.894  -0.704  0.00  0.00    -0.017 C 
ATOM     14  C   LIG    1        0.894  -3.387  -0.133  0.00  0.00    +0.047 C 
ATOM     15  C   LIG    1        0.743  -2.026   0.007  0.00  0.00    +0.006 C 
ATOM     16  C   LIG    1        1.718  -1.093  -0.419  0.00  0.00    +0.052 C 
ENDROOT
BRANCH   1  18
ATOM     17  C   LIG    1       -0.914  -0.283  -1.688  0.00  0.00    -0.003 C 
ATOM     18  C   LIG    1       -1.012   0.400  -0.374  0.00  0.00    +0.020 C 
BRANCH  18  19
ATOM     19  N   LIG    1       -2.115   0.159   0.468  0.00  0.00    +0.386 N 
ATOM     20  C   LIG    1       -1.842   0.098   1.890  0.00  0.00    -0.091 C 
ATOM     21  C   LIG    1       -3.173   1.194   0.357  0.00  0.00    -0.074 C 
ATOM     22  C   LIG    1       -4.394   0.546   0.985  0.00  0.00    -0.020 C 
ATOM     23  C   LIG    1       -4.193  -0.931   0.825  0.00  0.00    -0.020 C 
ATOM     24  C   LIG    1       -2.906  -0.987   0.021  0.00  0.00    -0.074 C 
ENDBRANCH  18  19
ENDBRANCH   1  18
TORSDOF 2
