REMARK  Name = molecules/YKSVGLFNJPQDJE-VQQXFDJDSA-N.pdb
REMARK                            x       y       z     vdW  Elec       q    Type
REMARK                         _______ _______ _______ _____ _____    ______ ____
ROOT
ATOM      1  C   LIG    1        5.396  -0.848   1.427  0.00  0.00    +0.182 C 
ATOM      2  O   LIG    1        4.610   0.159   2.035  0.00  0.00    -0.461 OA
ATOM      3  C   LIG    1        4.813   1.450   2.276  0.00  0.00    +0.315 C 
ATOM      4  O   LIG    1        4.993   1.919   3.427  0.00  0.00    -0.250 OA
ATOM      5  C   LIG    1        4.841   2.447   1.181  0.00  0.00    +0.194 C 
ATOM      6  C   LIG    1        3.792   3.481   1.400  0.00  0.00    +0.144 C 
ATOM      7  O   LIG    1        2.757   3.198   1.980  0.00  0.00    -0.297 OA
ATOM      8  C   LIG    1        3.972   4.878   0.924  0.00  0.00    +0.075 C 
ATOM      9  C   LIG    1        2.600   5.484   0.725  0.00  0.00    +0.015 C 
ATOM     10  C   LIG    1        1.895   4.712  -0.350  0.00  0.00    +0.075 C 
ATOM     11  C   LIG    1        1.294   5.669  -1.311  0.00  0.00    +0.136 C 
ATOM     12  C   LIG    1        0.322   6.670  -0.833  0.00  0.00    +0.105 C 
ATOM     13  C   LIG    1       -0.855   5.944  -0.228  0.00  0.00    +0.124 C 
ATOM     14  C   LIG    1       -1.160   4.753  -1.089  0.00  0.00    +0.063 C 
ATOM     15  C   LIG    1       -2.519   4.986  -1.737  0.00  0.00    +0.119 C 
ATOM     16  C   LIG    1       -3.552   4.598  -0.682  0.00  0.00    +0.063 C 
ATOM     17  C   LIG    1       -3.610   3.089  -0.666  0.00  0.00    +0.122 C 
ATOM     18  C   LIG    1       -4.858   2.662  -1.404  0.00  0.00    +0.096 C 
ATOM     19  C   LIG    1       -5.949   2.488  -0.403  0.00  0.00    +0.172 C 
ATOM     20  O   LIG    1       -5.742   1.347   0.331  0.00  0.00    -0.344 OA
ATOM     21  C   LIG    1       -6.613   1.133   1.359  0.00  0.00    +0.140 C 
ATOM     22  C   LIG    1       -6.452  -0.319   1.798  0.00  0.00    +0.064 C 
ATOM     23  C   LIG    1       -6.330  -1.136   0.517  0.00  0.00    +0.128 C 
ATOM     24  C   LIG    1       -5.023  -0.898  -0.141  0.00  0.00    +0.027 C 
ATOM     25  C   LIG    1       -3.856  -1.166   0.429  0.00  0.00    +0.002 C 
ATOM     26  C   LIG    1       -3.557  -2.408   1.143  0.00  0.00    +0.000 C 
ATOM     27  C   LIG    1       -3.833  -3.624   0.708  0.00  0.00    +0.000 C 
ATOM     28  C   LIG    1       -3.476  -4.165  -0.599  0.00  0.00    +0.000 C 
ATOM     29  C   LIG    1       -2.266  -4.266  -1.098  0.00  0.00    +0.000 C 
ATOM     30  C   LIG    1       -1.004  -4.260  -0.379  0.00  0.00    +0.000 C 
ATOM     31  C   LIG    1       -0.553  -3.298   0.409  0.00  0.00    +0.004 C 
ATOM     32  C   LIG    1       -0.408  -1.890   0.025  0.00  0.00    +0.022 C 
ATOM     33  C   LIG    1        0.159  -1.457  -1.072  0.00  0.00    -0.026 C 
ATOM     34  C   LIG    1        1.395  -2.036  -1.631  0.00  0.00    -0.026 C 
ATOM     35  C   LIG    1        2.081  -3.001  -1.042  0.00  0.00    +0.022 C 
ATOM     36  C   LIG    1        2.563  -2.944   0.347  0.00  0.00    +0.004 C 
ATOM     37  C   LIG    1        3.300  -2.001   0.857  0.00  0.00    +0.003 C 
ATOM     38  C   LIG    1       -8.060   1.335   1.035  0.00  0.00    +0.155 C 
ATOM     39  C   LIG    1       -8.338   2.250  -0.093  0.00  0.00    +0.136 C 
ATOM     40  C   LIG    1       -7.266   2.290  -1.155  0.00  0.00    +0.097 C 
ATOM     41  O   LIG    1        1.597   5.637  -2.505  0.00  0.00    -0.297 OA
ATOM     42  C   LIG    1        4.610  -1.511   0.322  0.00  0.00    +0.031 C 
ATOM     43  C   LIG    1        4.308  -0.608  -0.844  0.00  0.00    +0.011 C 
ENDROOT
BRANCH  17  44
ATOM     44  O   LIG    1       -3.612   2.605   0.646  0.00  0.00    -0.392 OA
ATOM     45  H   LIG    1       -3.372   3.284   1.309  0.00  0.00    +0.210 HD
ENDBRANCH  17  44
BRANCH  15  46
ATOM     46  O   LIG    1       -2.617   6.312  -2.103  0.00  0.00    -0.392 OA
ATOM     47  H   LIG    1       -3.423   6.760  -1.736  0.00  0.00    +0.210 HD
ENDBRANCH  15  46
BRANCH  39  48
ATOM     48  O   LIG    1       -8.524   3.587   0.328  0.00  0.00    -0.391 OA
ATOM     49  H   LIG    1       -8.514   4.201  -0.427  0.00  0.00    +0.210 HD
ENDBRANCH  39  48
BRANCH  38  50
ATOM     50  C   LIG    1       -8.736   1.826   2.258  0.00  0.00    +0.313 C 
ATOM     51  O   LIG    1       -9.411   2.875   2.208  0.00  0.00    -0.251 OA
BRANCH  50  52
ATOM     52  O   LIG    1       -8.595   1.097   3.429  0.00  0.00    -0.480 OA
ATOM     53  H   LIG    1       -9.399   1.038   4.049  0.00  0.00    +0.295 HD
ENDBRANCH  50  52
ENDBRANCH  38  50
BRANCH  19  54
ATOM     54  O   LIG    1       -6.115   3.624   0.387  0.00  0.00    -0.364 OA
ATOM     55  H   LIG    1       -5.839   3.484   1.321  0.00  0.00    +0.213 HD
ENDBRANCH  19  54
BRANCH  13  56
ATOM     56  O   LIG    1       -0.640   5.594   1.103  0.00  0.00    -0.391 OA
ATOM     57  H   LIG    1       -1.058   4.731   1.340  0.00  0.00    +0.210 HD
ENDBRANCH  13  56
BRANCH   1  58
ATOM     58  C   LIG    1        6.729  -0.455   1.030  0.00  0.00    +0.027 C 
ATOM     59  C   LIG    1        7.555   0.249   2.091  0.00  0.00    +0.011 C 
BRANCH  58  60
ATOM     60  C   LIG    1        7.576  -1.501   0.389  0.00  0.00    +0.012 C 
BRANCH  60  62
ATOM     61  C   LIG    1        7.189  -3.425   2.013  0.00  0.00    +0.010 C 
ATOM     62  C   LIG    1        8.145  -2.559   1.258  0.00  0.00    +0.015 C 
BRANCH  62  63
ATOM     63  C   LIG    1        8.997  -3.485   0.402  0.00  0.00    +0.125 C 
BRANCH  63  64
ATOM     64  O   LIG    1        9.705  -4.386   1.198  0.00  0.00    -0.391 OA
ATOM     65  H   LIG    1       10.397  -4.788   0.649  0.00  0.00    +0.210 HD
ENDBRANCH  63  64
BRANCH  63  66
ATOM     66  C   LIG    1        9.918  -2.790  -0.547  0.00  0.00    +0.111 C 
BRANCH  66  67
ATOM     67  C   LIG    1       10.904  -1.905   0.091  0.00  0.00    +0.166 C 
ATOM     68  O   LIG    1       10.973  -1.779   1.327  0.00  0.00    -0.292 OA
BRANCH  67  69
ATOM     69  C   LIG    1       11.832  -1.149  -0.730  0.00  0.00    +0.018 A 
ATOM     70  C   LIG    1       12.782  -0.301  -0.176  0.00  0.00    +0.013 A 
ATOM     71  C   LIG    1       13.668   0.418  -0.947  0.00  0.00    +0.023 A 
ATOM     72  C   LIG    1       13.626   0.305  -2.325  0.00  0.00    +0.025 A 
ATOM     73  C   LIG    1       12.682  -0.537  -2.873  0.00  0.00    +0.023 A 
ATOM     74  C   LIG    1       11.806  -1.248  -2.096  0.00  0.00    +0.013 A 
BRANCH  72  75
ATOM     75  N   LIG    1       14.511   1.019  -3.172  0.00  0.00    -0.358 N 
ATOM     76  H   LIG    1       14.438   2.052  -3.261  0.00  0.00    +0.142 HD
ATOM     77  H   LIG    1       15.263   0.534  -3.733  0.00  0.00    +0.142 HD
ENDBRANCH  72  75
ENDBRANCH  67  69
ENDBRANCH  66  67
ENDBRANCH  63  66
ENDBRANCH  62  63
ENDBRANCH  60  62
ENDBRANCH  58  60
ENDBRANCH   1  58
BRANCH  23  78
ATOM     78  O   LIG    1       -6.588  -2.469   0.727  0.00  0.00    -0.345 OA
BRANCH  78  79
ATOM     79  C   LIG    1       -7.725  -2.894   0.063  0.00  0.00    +0.281 C 
ATOM     80  O   LIG    1       -8.588  -3.412   1.056  0.00  0.00    -0.343 OA
ATOM     81  C   LIG    1       -9.871  -3.490   0.505  0.00  0.00    +0.148 C 
ATOM     82  C   LIG    1      -10.810  -3.889   1.637  0.00  0.00    +0.041 C 
ATOM     83  C   LIG    1       -9.839  -4.639  -0.490  0.00  0.00    +0.162 C 
ATOM     84  C   LIG    1       -8.753  -4.461  -1.508  0.00  0.00    +0.116 C 
ATOM     85  C   LIG    1       -7.434  -4.049  -0.870  0.00  0.00    +0.189 C 
BRANCH  84  86
ATOM     86  N   LIG    1       -9.128  -3.439  -2.449  0.00  0.00    -0.323 NA
ATOM     87  H   LIG    1       -9.933  -2.873  -2.070  0.00  0.00    +0.119 HD
ATOM     88  H   LIG    1       -9.463  -3.858  -3.359  0.00  0.00    +0.119 HD
ENDBRANCH  84  86
BRANCH  85  89
ATOM     89  O   LIG    1       -6.910  -5.142  -0.174  0.00  0.00    -0.385 OA
ATOM     90  H   LIG    1       -7.465  -5.960  -0.340  0.00  0.00    +0.210 HD
ENDBRANCH  85  89
BRANCH  83  91
ATOM     91  O   LIG    1      -11.066  -4.685  -1.138  0.00  0.00    -0.388 OA
ATOM     92  H   LIG    1      -11.756  -4.452  -0.476  0.00  0.00    +0.210 HD
ENDBRANCH  83  91
ENDBRANCH  78  79
ENDBRANCH  23  78
TORSDOF 21
