REMARK  Name = molecules/YLCXGBZIZBEVPZ-UHFFFAOYSA-N.pdb
REMARK                            x       y       z     vdW  Elec       q    Type
REMARK                         _______ _______ _______ _____ _____    ______ ____
ROOT
ATOM      1  C   LIG    1       -0.022   2.022  -2.261  0.00  0.00    +0.042 A 
ATOM      2  C   LIG    1        0.572   1.029  -1.519  0.00  0.00    +0.031 A 
ATOM      3  C   LIG    1       -0.241   0.296  -0.683  0.00  0.00    +0.023 A 
ATOM      4  C   LIG    1        0.541  -0.699   0.063  0.00  0.00    +0.075 C 
ATOM      5  N   LIG    1        0.031  -1.898   0.326  0.00  0.00    -0.281 NA
ATOM      6  C   LIG    1       -1.309  -2.349  -0.066  0.00  0.00    +0.161 C 
ATOM      7  C   LIG    1       -2.362  -1.577   0.698  0.00  0.00    +0.128 C 
ATOM      8  N   LIG    1       -2.549  -0.239   0.203  0.00  0.00    -0.331 N 
ATOM      9  C   LIG    1       -3.772   0.486   0.459  0.00  0.00    +0.129 C 
ATOM     10  C   LIG    1       -1.609   0.515  -0.573  0.00  0.00    +0.039 A 
ATOM     11  C   LIG    1       -2.151   1.519  -1.338  0.00  0.00    +0.025 A 
ATOM     12  C   LIG    1       -1.363   2.289  -2.194  0.00  0.00    +0.022 A 
ATOM     13 CL   LIG    1        1.008   2.954  -3.309  0.00  0.00    -0.084 Cl
ENDROOT
BRANCH   4  14
ATOM     14  C   LIG    1        1.878  -0.405   0.489  0.00  0.00    +0.001 A 
ATOM     15  C   LIG    1        2.607  -1.478   1.007  0.00  0.00    +0.010 A 
ATOM     16  C   LIG    1        3.854  -1.345   1.560  0.00  0.00    +0.001 A 
ATOM     17  C   LIG    1        4.448  -0.105   1.624  0.00  0.00    +0.000 A 
ATOM     18  C   LIG    1        3.759   0.968   1.126  0.00  0.00    +0.001 A 
ATOM     19  C   LIG    1        2.484   0.808   0.566  0.00  0.00    +0.010 A 
ENDBRANCH   4  14
TORSDOF 1
