REMARK  Name = molecules/YLRNESBGEGGQBK-GOSISDBHSA-N.pdb
REMARK                            x       y       z     vdW  Elec       q    Type
REMARK                         _______ _______ _______ _____ _____    ______ ____
ROOT
ATOM      1  C   LIG    1       -0.468  -0.203  -0.389  0.00  0.00    +0.339 C 
ATOM      2  O   LIG    1       -1.133   0.082  -1.412  0.00  0.00    -0.245 OA
ENDROOT
BRANCH   1   3
ATOM      3  C   LIG    1        0.969   0.002  -0.330  0.00  0.00    +0.059 A 
ATOM      4  C   LIG    1        1.660  -0.324   0.814  0.00  0.00    +0.018 A 
ATOM      5  C   LIG    1        3.037  -0.145   0.928  0.00  0.00    +0.046 A 
ATOM      6  C   LIG    1        3.739   0.371  -0.123  0.00  0.00    +0.121 A 
ATOM      7  C   LIG    1        3.058   0.711  -1.301  0.00  0.00    +0.046 A 
ATOM      8  C   LIG    1        1.706   0.518  -1.368  0.00  0.00    +0.018 A 
BRANCH   6   9
ATOM      9  O   LIG    1        5.088   0.568  -0.067  0.00  0.00    -0.489 OA
BRANCH   9  10
ATOM     10  C   LIG    1        5.938   0.299   0.989  0.00  0.00    +0.173 C 
ATOM     11  C   LIG    1        6.638   1.586   1.430  0.00  0.00    +0.044 C 
ATOM     12  C   LIG    1        7.904   1.844   0.672  0.00  0.00    +0.004 C 
ATOM     13  C   LIG    1        7.756   1.288  -0.720  0.00  0.00    +0.000 C 
ATOM     14  C   LIG    1        7.722  -0.227  -0.686  0.00  0.00    +0.004 C 
ATOM     15  C   LIG    1        7.045  -0.682   0.591  0.00  0.00    +0.044 C 
ENDBRANCH   9  10
ENDBRANCH   6   9
ENDBRANCH   1   3
BRANCH   1  16
ATOM     16  O   LIG    1       -1.136  -0.720   0.688  0.00  0.00    -0.461 OA
BRANCH  16  17
ATOM     17  C   LIG    1       -2.504  -0.970   0.779  0.00  0.00    +0.234 C 
BRANCH  17  18
ATOM     18  C   LIG    1       -3.013  -1.957  -0.254  0.00  0.00    +0.056 C 
BRANCH  18  19
ATOM     19  C   LIG    1       -4.519  -2.086   0.017  0.00  0.00    +0.088 C 
BRANCH  19  26
ATOM     20  C   LIG    1       -7.450  -1.398   0.205  0.00  0.00    +0.024 C 
ATOM     21  C   LIG    1       -6.274  -0.547   0.608  0.00  0.00    +0.054 C 
ATOM     22  C   LIG    1       -6.604   0.917   0.664  0.00  0.00    +0.018 C 
ATOM     23  C   LIG    1       -5.994   1.712  -0.463  0.00  0.00    +0.003 C 
ATOM     24  C   LIG    1       -5.951   0.879  -1.720  0.00  0.00    +0.015 C 
ATOM     25  C   LIG    1       -5.065  -0.325  -1.483  0.00  0.00    +0.084 C 
ATOM     26  N   LIG    1       -5.085  -0.786  -0.140  0.00  0.00    -0.300 NA
ENDBRANCH  19  26
ENDBRANCH  18  19
ENDBRANCH  17  18
ENDBRANCH  16  17
ENDBRANCH   1  16
TORSDOF 8
