REMARK  Name = molecules/YLUSMKAJIQOXPV-UHFFFAOYSA-N.pdb
REMARK                            x       y       z     vdW  Elec       q    Type
REMARK                         _______ _______ _______ _____ _____    ______ ____
ROOT
ATOM      1  C   LIG    1        0.343  -0.692   0.797  0.00  0.00    +0.034 A 
ATOM      2  C   LIG    1        1.559  -0.247   0.329  0.00  0.00    -0.005 A 
ATOM      3  C   LIG    1        2.965  -0.404   0.828  0.00  0.00    +0.039 C 
ATOM      4  C   LIG    1        3.596   0.865   0.239  0.00  0.00    +0.011 C 
ATOM      5  C   LIG    1        2.977   0.869  -1.142  0.00  0.00    +0.056 C 
ATOM      6  C   LIG    1        1.571   0.502  -0.830  0.00  0.00    +0.047 A 
ATOM      7  N   LIG    1        0.424   0.782  -1.473  0.00  0.00    -0.256 NA
ATOM      8  C   LIG    1       -0.779   0.342  -1.010  0.00  0.00    +0.047 A 
ATOM      9  C   LIG    1       -2.053   0.647  -1.714  0.00  0.00    +0.056 C 
ATOM     10  C   LIG    1       -3.094   0.940  -0.628  0.00  0.00    +0.006 C 
ATOM     11  C   LIG    1       -3.337  -0.361   0.088  0.00  0.00    +0.005 C 
ATOM     12  C   LIG    1       -2.112  -0.929   0.717  0.00  0.00    +0.039 C 
ATOM     13  C   LIG    1       -0.856  -0.411   0.143  0.00  0.00    -0.005 A 
ENDROOT
BRANCH   1  14
ATOM     14  N   LIG    1        0.352  -1.460   1.989  0.00  0.00    -0.357 N 
ATOM     15  H   LIG    1        0.636  -1.068   2.899  0.00  0.00    +0.142 HD
ATOM     16  H   LIG    1        0.056  -2.455   1.917  0.00  0.00    +0.142 HD
ENDBRANCH   1  14
TORSDOF 1
