REMARK  Name = molecules/YMARZQAQMVYCKC-OEMFJLHTSA-N.pdb
REMARK                            x       y       z     vdW  Elec       q    Type
REMARK                         _______ _______ _______ _____ _____    ______ ____
ROOT
ATOM      1  C   LIG    1       -0.454  -0.045  -0.898  0.00  0.00    +0.151 C 
ENDROOT
BRANCH   1   2
ATOM      2  O   LIG    1       -1.350   0.474  -1.779  0.00  0.00    -0.389 OA
ATOM      3  H   LIG    1       -0.995   1.179  -2.385  0.00  0.00    +0.210 HD
ENDBRANCH   1   2
BRANCH   1   4
ATOM      4  C   LIG    1       -0.657   0.273   0.547  0.00  0.00    +0.142 C 
BRANCH   4   5
ATOM      5  N   LIG    1       -1.875  -0.130   1.134  0.00  0.00    -0.174 NA
BRANCH   5   6
ATOM      6  S   LIG    1       -3.084   1.059   1.307  0.00  0.00    +0.061 S 
ATOM      7  O   LIG    1       -2.647   2.170   2.246  0.00  0.00    -0.153 OA
ATOM      8  O   LIG    1       -4.330   0.483   1.970  0.00  0.00    -0.153 OA
BRANCH   6   9
ATOM      9  C   LIG    1       -3.603   1.726  -0.218  0.00  0.00    +0.106 A 
ATOM     10  C   LIG    1       -3.073   2.930  -0.700  0.00  0.00    +0.030 A 
ATOM     11  C   LIG    1       -3.448   3.483  -1.883  0.00  0.00    +0.024 A 
ATOM     12  C   LIG    1       -4.390   2.864  -2.678  0.00  0.00    +0.025 A 
ATOM     13  C   LIG    1       -4.925   1.677  -2.223  0.00  0.00    +0.024 A 
ATOM     14  C   LIG    1       -4.544   1.117  -1.021  0.00  0.00    +0.030 A 
BRANCH  12  15
ATOM     15  N   LIG    1       -4.792   3.439  -3.930  0.00  0.00    -0.358 N 
ATOM     16  H   LIG    1       -4.795   4.482  -4.059  0.00  0.00    +0.142 HD
ATOM     17  H   LIG    1       -5.089   2.881  -4.742  0.00  0.00    +0.142 HD
ENDBRANCH  12  15
ENDBRANCH   6   9
ENDBRANCH   5   6
BRANCH   5  18
ATOM     18  C   LIG    1       -1.623  -0.730   2.420  0.00  0.00    +0.112 C 
BRANCH  18  19
ATOM     19  C   LIG    1       -2.498  -1.937   2.677  0.00  0.00    -0.001 C 
ATOM     20  C   LIG    1       -2.084  -2.492   4.024  0.00  0.00    +0.008 C 
ATOM     21  C   LIG    1       -2.287  -3.027   1.649  0.00  0.00    +0.008 C 
ENDBRANCH  18  19
ENDBRANCH   5  18
ENDBRANCH   4   5
ENDBRANCH   1   4
BRANCH   1  22
ATOM     22  C   LIG    1        0.921   0.463  -1.300  0.00  0.00    +0.110 C 
BRANCH  22  23
ATOM     23  N   LIG    1        1.938  -0.045  -0.407  0.00  0.00    -0.275 N 
ATOM     24  C   LIG    1        2.761   0.872   0.307  0.00  0.00    +0.401 C 
ATOM     25  O   LIG    1        2.609   2.116   0.165  0.00  0.00    -0.226 OA
ATOM     26  H   LIG    1        2.110  -1.058  -0.250  0.00  0.00    +0.152 HD
BRANCH  24  27
ATOM     27  O   LIG    1        3.752   0.446   1.178  0.00  0.00    -0.445 OA
BRANCH  27  28
ATOM     28  C   LIG    1        4.527   1.394   1.848  0.00  0.00    +0.206 C 
ATOM     29  C   LIG    1        4.343   1.167   3.350  0.00  0.00    +0.075 C 
ATOM     30  C   LIG    1        5.746   1.482   3.841  0.00  0.00    +0.163 C 
ATOM     31  O   LIG    1        6.513   0.779   2.916  0.00  0.00    -0.376 OA
ATOM     32  C   LIG    1        6.005   1.203   1.700  0.00  0.00    +0.204 C 
ENDBRANCH  27  28
ENDBRANCH  24  27
ENDBRANCH  22  23
BRANCH  22  33
ATOM     33  C   LIG    1        1.278   0.057  -2.708  0.00  0.00    +0.060 C 
BRANCH  33  34
ATOM     34  C   LIG    1        1.315  -1.387  -2.933  0.00  0.00    -0.046 A 
ATOM     35  C   LIG    1        2.475  -2.101  -2.746  0.00  0.00    +0.004 A 
ATOM     36  C   LIG    1        2.531  -3.467  -2.953  0.00  0.00    +0.000 A 
ATOM     37  C   LIG    1        1.410  -4.159  -3.357  0.00  0.00    +0.000 A 
ATOM     38  C   LIG    1        0.242  -3.464  -3.549  0.00  0.00    +0.000 A 
ATOM     39  C   LIG    1        0.203  -2.096  -3.337  0.00  0.00    +0.004 A 
ENDBRANCH  33  34
ENDBRANCH  22  33
ENDBRANCH   1  22
TORSDOF 14
