REMARK  Name = molecules/YMBXTVYHTMGZDW-ZWNOBZJWSA-N.pdb
REMARK                            x       y       z     vdW  Elec       q    Type
REMARK                         _______ _______ _______ _____ _____    ______ ____
ROOT
ATOM      1  C   LIG    1       -2.284  -0.081  -0.357  0.00  0.00    -0.034 A 
ATOM      2  C   LIG    1       -1.387  -1.120  -0.408  0.00  0.00    +0.005 A 
ATOM      3  C   LIG    1       -0.018  -0.892  -0.603  0.00  0.00    +0.004 A 
ATOM      4  C   LIG    1        0.452   0.393  -0.746  0.00  0.00    -0.047 A 
ATOM      5  C   LIG    1       -0.446   1.446  -0.695  0.00  0.00    +0.004 A 
ATOM      6  C   LIG    1       -1.796   1.195  -0.503  0.00  0.00    +0.005 A 
ENDROOT
BRANCH   1   8
ATOM      7  C   LIG    1       -4.112   0.275   1.187  0.00  0.00    +0.024 C 
ATOM      8  C   LIG    1       -3.724  -0.361  -0.150  0.00  0.00    +0.124 C 
BRANCH   8   9
ATOM      9  C   LIG    1       -4.573   0.135  -1.226  0.00  0.00    +0.312 C 
ATOM     10  O   LIG    1       -4.080   0.733  -2.207  0.00  0.00    -0.250 OA
BRANCH   9  11
ATOM     11  O   LIG    1       -5.937  -0.058  -1.162  0.00  0.00    -0.480 OA
ATOM     12  H   LIG    1       -6.555   0.478  -0.550  0.00  0.00    +0.295 HD
ENDBRANCH   9  11
ENDBRANCH   8   9
ENDBRANCH   1   8
BRANCH   4  13
ATOM     13  C   LIG    1        1.896   0.580  -0.961  0.00  0.00    +0.046 C 
BRANCH  13  14
ATOM     14  C   LIG    1        2.710   0.839   0.252  0.00  0.00    +0.060 C 
ATOM     15  C   LIG    1        2.639  -0.271   1.274  0.00  0.00    +0.012 C 
ATOM     16  C   LIG    1        3.767  -1.191   0.792  0.00  0.00    +0.008 C 
ATOM     17  C   LIG    1        4.875  -0.174   0.629  0.00  0.00    +0.074 C 
ATOM     18  C   LIG    1        4.184   0.931  -0.088  0.00  0.00    +0.137 C 
ATOM     19  O   LIG    1        4.671   1.774  -0.821  0.00  0.00    -0.297 OA
ENDBRANCH  13  14
ENDBRANCH   4  13
TORSDOF 5
