REMARK  Name = molecules/YMOXVLQZFAUUKI-QMMMGPOBSA-N.pdb
REMARK                            x       y       z     vdW  Elec       q    Type
REMARK                         _______ _______ _______ _____ _____    ______ ____
ROOT
ATOM      1  C   LIG    1        1.506  -1.009   1.105  0.00  0.00    -0.019 A 
ATOM      2  C   LIG    1        1.265  -2.381   1.319  0.00  0.00    +0.019 A 
ATOM      3  C   LIG    1       -0.034  -2.769   1.497  0.00  0.00    +0.031 A 
ATOM      4  C   LIG    1       -1.083  -1.874   1.473  0.00  0.00    +0.037 A 
ATOM      5  I   LIG    1       -3.075  -2.563   1.756  0.00  0.00    -0.042 I 
ATOM      6  C   LIG    1       -0.867  -0.531   1.268  0.00  0.00    +0.060 A 
ATOM      7  I   LIG    1        2.867  -3.765   1.399  0.00  0.00    -0.043 I 
ATOM      8  C   LIG    1        0.468  -0.131   1.086  0.00  0.00    +0.040 A 
ATOM      9  I   LIG    1        0.699   1.964   0.890  0.00  0.00    -0.042 I 
ENDROOT
BRANCH   6  10
ATOM     10  N   LIG    1       -1.958   0.377   1.249  0.00  0.00    -0.284 N 
ATOM     11  H   LIG    1       -2.208   0.789   2.175  0.00  0.00    +0.155 HD
ATOM     12  C   LIG    1       -2.680   0.730   0.101  0.00  0.00    +0.217 C 
ATOM     13  O   LIG    1       -2.420   0.263  -1.037  0.00  0.00    -0.275 OA
BRANCH  12  14
ATOM     14  C   LIG    1       -3.802   1.689   0.199  0.00  0.00    +0.096 C 
BRANCH  14  15
ATOM     15  C   LIG    1       -4.494   1.957  -1.097  0.00  0.00    +0.006 C 
ATOM     16  C   LIG    1       -5.106   0.758  -1.742  0.00  0.00    +0.004 C 
ENDBRANCH  14  15
ENDBRANCH  12  14
ENDBRANCH   6  10
BRANCH   1  17
ATOM     17  C   LIG    1        2.896  -0.650   0.861  0.00  0.00    +0.052 C 
BRANCH  17  18
ATOM     18  C   LIG    1        3.392  -0.552  -0.520  0.00  0.00    +0.102 C 
BRANCH  18  19
ATOM     19  C   LIG    1        3.265   0.695  -1.303  0.00  0.00    +0.011 C 
ATOM     20  C   LIG    1        3.994   1.870  -0.694  0.00  0.00    +0.004 C 
ENDBRANCH  18  19
BRANCH  18  21
ATOM     21  C   LIG    1        3.226  -1.789  -1.347  0.00  0.00    +0.308 C 
ATOM     22  O   LIG    1        4.160  -2.507  -1.766  0.00  0.00    -0.251 OA
BRANCH  21  23
ATOM     23  O   LIG    1        1.935  -2.174  -1.678  0.00  0.00    -0.480 OA
ATOM     24  H   LIG    1        1.134  -1.560  -1.659  0.00  0.00    +0.295 HD
ENDBRANCH  21  23
ENDBRANCH  18  21
ENDBRANCH  17  18
ENDBRANCH   1  17
TORSDOF 8
