REMARK  Name = molecules/YMVWGSQGCWCDGW-UHFFFAOYSA-N.pdb
REMARK                            x       y       z     vdW  Elec       q    Type
REMARK                         _______ _______ _______ _____ _____    ______ ____
ROOT
ATOM      1  C   LIG    1       -1.454   0.254   0.361  0.00  0.00    +0.048 A 
ATOM      2  C   LIG    1       -2.098   1.437   0.546  0.00  0.00    +0.052 A 
ATOM      3  C   LIG    1       -1.525   2.537   1.105  0.00  0.00    +0.137 A 
ATOM      4  C   LIG    1       -2.312   3.707   1.336  0.00  0.00    +0.033 A 
ATOM      5  C   LIG    1       -3.627   3.724   0.997  0.00  0.00    +0.004 A 
ATOM      6  C   LIG    1       -4.205   2.612   0.432  0.00  0.00    +0.028 A 
ATOM      7  C   LIG    1       -3.459   1.466   0.203  0.00  0.00    +0.076 A 
ATOM      8  N   LIG    1       -4.074   0.364  -0.282  0.00  0.00    -0.247 NA
ATOM      9  C   LIG    1       -3.458  -0.810  -0.465  0.00  0.00    +0.073 A 
ATOM     10  C   LIG    1       -4.123  -1.928  -0.939  0.00  0.00    +0.028 A 
ATOM     11  C   LIG    1       -3.467  -3.127  -1.091  0.00  0.00    +0.002 A 
ATOM     12  C   LIG    1       -2.120  -3.217  -0.764  0.00  0.00    +0.001 A 
ATOM     13  C   LIG    1       -1.491  -2.085  -0.297  0.00  0.00    +0.012 A 
ATOM     14  C   LIG    1       -2.127  -0.881  -0.142  0.00  0.00    +0.022 A 
ENDROOT
BRANCH   3  15
ATOM     15  N   LIG    1       -0.229   2.641   1.585  0.00  0.00    +0.057 N 
ATOM     16  O   LIG    1       -0.119   3.276   2.742  0.00  0.00    -0.126 OA
ATOM     17  O   LIG    1        0.936   2.216   1.176  0.00  0.00    -0.126 OA
ENDBRANCH   3  15
BRANCH   1  18
ATOM     18  N   LIG    1       -0.068   0.036   0.542  0.00  0.00    -0.343 N 
ATOM     19  H   LIG    1        0.302  -0.141   1.486  0.00  0.00    +0.146 HD
BRANCH  18  20
ATOM     20  C   LIG    1        0.801   0.004  -0.661  0.00  0.00    +0.103 C 
BRANCH  20  21
ATOM     21  C   LIG    1        2.184  -0.381  -0.264  0.00  0.00    +0.034 C 
BRANCH  21  22
ATOM     22  C   LIG    1        3.123  -0.477  -1.453  0.00  0.00    +0.085 C 
BRANCH  22  23
ATOM     23  N   LIG    1        4.437  -0.843  -0.996  0.00  0.00    -0.308 NA
ATOM     24  C   LIG    1        5.060   0.137  -0.173  0.00  0.00    +0.104 C 
ATOM     25  C   LIG    1        4.501  -2.177  -0.464  0.00  0.00    +0.104 C 
ENDBRANCH  22  23
ENDBRANCH  21  22
ENDBRANCH  20  21
ENDBRANCH  18  20
ENDBRANCH   1  18
TORSDOF 6
