REMARK  Name = molecules/YNCLPFSAZFGQCD-UHFFFAOYSA-N.pdb
REMARK                            x       y       z     vdW  Elec       q    Type
REMARK                         _______ _______ _______ _____ _____    ______ ____
ROOT
ATOM      1  N   LIG    1        1.104   0.064   0.400  0.00  0.00    -0.217 N 
ATOM      2  C   LIG    1        0.214   0.201   1.533  0.00  0.00    +0.222 C 
ATOM      3  C   LIG    1       -0.854  -0.864   1.404  0.00  0.00    +0.222 C 
ATOM      4  N   LIG    1       -1.489  -0.676   0.121  0.00  0.00    -0.217 N 
ATOM      5  C   LIG    1       -0.709  -0.471  -1.069  0.00  0.00    +0.222 C 
ATOM      6  C   LIG    1        0.775  -0.700  -0.791  0.00  0.00    +0.222 C 
ENDROOT
BRANCH   1   7
ATOM      7  C   LIG    1        2.363   0.718   0.472  0.00  0.00    +0.382 C 
ATOM      8  N   LIG    1        2.440   1.882   1.011  0.00  0.00    -0.131 NA
ATOM      9  H   LIG    1        3.333   2.413   1.094  0.00  0.00    +0.306 HD
BRANCH   7  10
ATOM     10  N   LIG    1        3.485   0.032  -0.067  0.00  0.00    -0.187 N 
ATOM     11  H   LIG    1        3.668   0.151  -1.093  0.00  0.00    +0.271 HD
BRANCH  10  12
ATOM     12  C   LIG    1        4.329  -0.780   0.734  0.00  0.00    +0.392 C 
ATOM     13  N   LIG    1        3.928  -1.127   1.891  0.00  0.00    -0.129 NA
ATOM     14  H   LIG    1        3.010  -0.831   2.254  0.00  0.00    +0.306 HD
BRANCH  12  15
ATOM     15  N   LIG    1        5.591  -1.169   0.196  0.00  0.00    -0.243 N 
ATOM     16  H   LIG    1        5.772  -2.196   0.062  0.00  0.00    +0.265 HD
BRANCH  15  17
ATOM     17  C   LIG    1        6.572  -0.200  -0.150  0.00  0.00    +0.100 A 
ATOM     18  C   LIG    1        6.361   1.151   0.013  0.00  0.00    +0.043 A 
ATOM     19  C   LIG    1        7.317   2.095  -0.324  0.00  0.00    +0.023 A 
ATOM     20  C   LIG    1        8.522   1.666  -0.840  0.00  0.00    +0.041 A 
ATOM     21  C   LIG    1        8.735   0.313  -1.004  0.00  0.00    +0.023 A 
ATOM     22 CL   LIG    1        9.780   2.819  -1.288  0.00  0.00    -0.084 Cl
ATOM     23  C   LIG    1        7.769  -0.642  -0.664  0.00  0.00    +0.043 A 
ENDBRANCH  15  17
ENDBRANCH  12  15
ENDBRANCH  10  12
ENDBRANCH   7  10
ENDBRANCH   1   7
BRANCH   4  24
ATOM     24  C   LIG    1       -2.894  -0.694   0.034  0.00  0.00    +0.382 C 
ATOM     25  N   LIG    1       -3.624  -0.235   0.986  0.00  0.00    -0.131 NA
ATOM     26  H   LIG    1       -3.291   0.174   1.866  0.00  0.00    +0.306 HD
BRANCH  24  27
ATOM     27  N   LIG    1       -3.555  -1.222  -1.110  0.00  0.00    -0.187 N 
ATOM     28  H   LIG    1       -3.193  -1.084  -2.083  0.00  0.00    +0.271 HD
BRANCH  27  29
ATOM     29  C   LIG    1       -4.746  -1.955  -0.888  0.00  0.00    +0.392 C 
ATOM     30  N   LIG    1       -5.004  -2.963  -1.636  0.00  0.00    -0.129 NA
ATOM     31  H   LIG    1       -4.352  -3.241  -2.396  0.00  0.00    +0.306 HD
BRANCH  29  32
ATOM     32  N   LIG    1       -5.611  -1.548   0.156  0.00  0.00    -0.243 N 
ATOM     33  H   LIG    1       -5.689  -2.187   0.976  0.00  0.00    +0.265 HD
BRANCH  32  34
ATOM     34  C   LIG    1       -6.348  -0.323   0.101  0.00  0.00    +0.100 A 
ATOM     35  C   LIG    1       -7.179   0.035   1.140  0.00  0.00    +0.043 A 
ATOM     36  C   LIG    1       -7.901   1.205   1.119  0.00  0.00    +0.023 A 
ATOM     37  C   LIG    1       -7.813   2.065   0.045  0.00  0.00    +0.041 A 
ATOM     38 CL   LIG    1       -8.722   3.560  -0.006  0.00  0.00    -0.084 Cl
ATOM     39  C   LIG    1       -6.982   1.708  -0.996  0.00  0.00    +0.023 A 
ATOM     40  C   LIG    1       -6.258   0.534  -0.974  0.00  0.00    +0.043 A 
ENDBRANCH  32  34
ENDBRANCH  29  32
ENDBRANCH  27  29
ENDBRANCH  24  27
ENDBRANCH   4  24
TORSDOF 10
