REMARK  Name = molecules/YNDXUCZADRHECN-JNQJZLCISA-N.pdb
REMARK                            x       y       z     vdW  Elec       q    Type
REMARK                         _______ _______ _______ _____ _____    ______ ____
ROOT
ATOM      1  C   LIG    1       -2.388   0.435   0.114  0.00  0.00    +0.164 C 
ATOM      2  O   LIG    1       -2.184   0.146   1.468  0.00  0.00    -0.332 OA
ATOM      3  C   LIG    1       -2.960  -0.938   1.760  0.00  0.00    +0.166 C 
ATOM      4  C   LIG    1       -2.281  -1.900   2.725  0.00  0.00    +0.074 C 
ATOM      5  C   LIG    1       -4.297  -0.591   2.407  0.00  0.00    +0.074 C 
ATOM      6  O   LIG    1       -3.258  -1.649   0.619  0.00  0.00    -0.343 OA
ATOM      7  C   LIG    1       -2.707  -0.915  -0.436  0.00  0.00    +0.162 C 
ATOM      8  C   LIG    1       -1.352  -1.582  -0.735  0.00  0.00    +0.039 C 
ATOM      9  C   LIG    1       -0.379  -0.594  -0.214  0.00  0.00    +0.007 C 
ATOM     10  C   LIG    1        1.027  -0.696  -0.720  0.00  0.00    +0.034 C 
ATOM     11  C   LIG    1        1.602  -1.935  -0.070  0.00  0.00    +0.011 C 
ATOM     12  C   LIG    1        3.100  -2.056  -0.212  0.00  0.00    +0.032 C 
ATOM     13  C   LIG    1        3.748  -0.784   0.206  0.00  0.00    -0.053 C 
ATOM     14  C   LIG    1        4.674  -0.819   1.108  0.00  0.00    +0.051 C 
ATOM     15  C   LIG    1        5.344   0.408   1.591  0.00  0.00    +0.179 C 
ATOM     16  O   LIG    1        6.231   0.387   2.452  0.00  0.00    -0.288 OA
ATOM     17  C   LIG    1        4.847   1.618   0.946  0.00  0.00    +0.047 C 
ATOM     18  C   LIG    1        3.906   1.638   0.031  0.00  0.00    -0.009 C 
ATOM     19  C   LIG    1        3.257   0.431  -0.438  0.00  0.00    +0.044 C 
ATOM     20  C   LIG    1        3.574   0.281  -1.921  0.00  0.00    +0.023 C 
ATOM     21  C   LIG    1        1.767   0.508  -0.188  0.00  0.00    +0.153 C 
ATOM     22  F   LIG    1        1.659   0.381   1.214  0.00  0.00    -0.238 F 
ATOM     23  C   LIG    1        1.127   1.799  -0.516  0.00  0.00    +0.154 C 
ATOM     24  C   LIG    1       -0.290   1.822   0.019  0.00  0.00    +0.044 C 
ATOM     25  C   LIG    1       -1.066   0.719  -0.574  0.00  0.00    +0.012 C 
ATOM     26  C   LIG    1       -1.268   0.760  -2.039  0.00  0.00    +0.015 C 
ENDROOT
BRANCH   1  27
ATOM     27  C   LIG    1       -3.398   1.469  -0.022  0.00  0.00    +0.193 C 
ATOM     28  O   LIG    1       -3.865   1.933   1.038  0.00  0.00    -0.292 OA
BRANCH  27  29
ATOM     29  C   LIG    1       -3.938   2.035  -1.262  0.00  0.00    +0.233 C 
BRANCH  29  30
ATOM     30  O   LIG    1       -4.915   2.990  -0.935  0.00  0.00    -0.387 OA
ATOM     31  H   LIG    1       -5.816   2.584  -0.873  0.00  0.00    +0.210 HD
ENDBRANCH  29  30
ENDBRANCH  27  29
ENDBRANCH   1  27
BRANCH  23  32
ATOM     32  O   LIG    1        1.122   2.186  -1.816  0.00  0.00    -0.389 OA
ATOM     33  H   LIG    1        1.298   1.508  -2.488  0.00  0.00    +0.210 HD
ENDBRANCH  23  32
TORSDOF 4
