REMARK  Name = molecules/YNNUSGIPVFPVBX-NHCUHLMSSA-N.pdb
REMARK                            x       y       z     vdW  Elec       q    Type
REMARK                         _______ _______ _______ _____ _____    ______ ____
ROOT
ATOM      1  C   LIG    1       -1.273   0.721   0.059  0.00  0.00    +0.116 C 
ATOM      2  C   LIG    1       -0.564   1.696  -0.835  0.00  0.00    +0.052 C 
ENDROOT
BRANCH   1   3
ATOM      3  C   LIG    1       -1.478  -0.606  -0.621  0.00  0.00    -0.012 A 
ATOM      4  C   LIG    1       -1.736  -1.687   0.208  0.00  0.00    +0.008 A 
ATOM      5  C   LIG    1       -1.938  -2.936  -0.318  0.00  0.00    +0.020 A 
ATOM      6  C   LIG    1       -1.883  -3.105  -1.673  0.00  0.00    +0.041 A 
ATOM      7 CL   LIG    1       -2.135  -4.689  -2.389  0.00  0.00    -0.084 Cl
ATOM      8  C   LIG    1       -1.629  -2.043  -2.498  0.00  0.00    +0.020 A 
ATOM      9  C   LIG    1       -1.420  -0.761  -1.969  0.00  0.00    +0.008 A 
ENDBRANCH   1   3
BRANCH   1  10
ATOM     10  C   LIG    1       -2.687   1.252   0.217  0.00  0.00    -0.012 A 
ATOM     11  C   LIG    1       -3.218   1.446   1.474  0.00  0.00    +0.007 A 
ATOM     12  C   LIG    1       -4.511   1.934   1.605  0.00  0.00    +0.000 A 
ATOM     13  C   LIG    1       -5.233   2.212   0.459  0.00  0.00    +0.000 A 
ATOM     14  C   LIG    1       -4.702   2.018  -0.802  0.00  0.00    +0.000 A 
ATOM     15  C   LIG    1       -3.399   1.526  -0.915  0.00  0.00    +0.007 A 
ENDBRANCH   1  10
BRANCH   1  16
ATOM     16  O   LIG    1       -0.732   0.502   1.274  0.00  0.00    -0.364 OA
BRANCH  16  17
ATOM     17  C   LIG    1        0.473  -0.037   1.431  0.00  0.00    +0.163 C 
BRANCH  17  18
ATOM     18  C   LIG    1        1.688   0.674   0.888  0.00  0.00    +0.047 C 
BRANCH  18  19
ATOM     19  C   LIG    1        2.869  -0.207   1.301  0.00  0.00    +0.059 C 
ATOM     20  N   LIG    1        4.123   0.288   0.885  0.00  0.00    -0.302 NA
ATOM     21  C   LIG    1        4.150   1.603   0.351  0.00  0.00    +0.105 C 
ATOM     22  C   LIG    1        4.773  -0.717   0.092  0.00  0.00    +0.084 C 
ATOM     23  C   LIG    1        4.128  -2.026   0.497  0.00  0.00    +0.017 C 
ATOM     24  C   LIG    1        2.696  -1.603   0.758  0.00  0.00    +0.020 C 
ENDBRANCH  18  19
ENDBRANCH  17  18
ENDBRANCH  16  17
ENDBRANCH   1  16
TORSDOF 6
