REMARK  Name = molecules/YNNURTVKPVJVEI-GSLJADNHSA-N.pdb
REMARK                            x       y       z     vdW  Elec       q    Type
REMARK                         _______ _______ _______ _____ _____    ______ ____
ROOT
ATOM      1 CL   LIG    1       -1.972  -1.884  -0.169  0.00  0.00    -0.115 Cl
ATOM      2  C   LIG    1       -1.794  -0.117  -0.481  0.00  0.00    +0.077 C 
ATOM      3  C   LIG    1       -1.289   0.473   0.817  0.00  0.00    +0.016 C 
ATOM      4  C   LIG    1       -2.305   0.347   1.903  0.00  0.00    +0.010 C 
ATOM      5  C   LIG    1       -3.509   1.188   1.544  0.00  0.00    +0.032 C 
ATOM      6  C   LIG    1       -4.036   0.526   0.284  0.00  0.00    -0.055 C 
ATOM      7  C   LIG    1       -5.237   0.036   0.288  0.00  0.00    +0.051 C 
ATOM      8  C   LIG    1       -5.841  -0.676  -0.833  0.00  0.00    +0.179 C 
ATOM      9  O   LIG    1       -6.992  -1.132  -0.803  0.00  0.00    -0.288 OA
ATOM     10  C   LIG    1       -4.978  -0.810  -2.000  0.00  0.00    +0.047 C 
ATOM     11  C   LIG    1       -3.757  -0.299  -1.975  0.00  0.00    -0.011 C 
ATOM     12  C   LIG    1       -0.070  -0.307   1.197  0.00  0.00    +0.003 C 
ATOM     13  C   LIG    1        0.593   0.036   2.466  0.00  0.00    +0.008 C 
ATOM     14  C   LIG    1        2.000  -0.562   2.293  0.00  0.00    +0.043 C 
ATOM     15  C   LIG    1        2.077  -0.975   0.841  0.00  0.00    +0.133 C 
ATOM     16  C   LIG    1        1.026  -0.068   0.174  0.00  0.00    +0.008 C 
ATOM     17  C   LIG    1        1.545   1.313   0.187  0.00  0.00    +0.015 C 
ATOM     18  C   LIG    1        0.558  -0.618  -1.118  0.00  0.00    +0.031 C 
ATOM     19  C   LIG    1       -3.143   0.419  -0.870  0.00  0.00    +0.028 C 
ATOM     20  C   LIG    1       -3.012   1.880  -1.375  0.00  0.00    +0.022 C 
ATOM     21  C   LIG    1       -0.741   0.008  -1.537  0.00  0.00    +0.103 C 
ATOM     22 CL   LIG    1       -0.381   1.641  -2.064  0.00  0.00    -0.120 Cl
ENDROOT
BRANCH  15  23
ATOM     23  O   LIG    1        1.695  -2.314   0.675  0.00  0.00    -0.380 OA
ATOM     24  H   LIG    1        1.453  -2.736   1.528  0.00  0.00    +0.211 HD
ENDBRANCH  15  23
BRANCH  15  25
ATOM     25  C   LIG    1        3.411  -0.709   0.298  0.00  0.00    +0.202 C 
ATOM     26  O   LIG    1        3.917   0.383   0.427  0.00  0.00    -0.291 OA
BRANCH  25  27
ATOM     27  C   LIG    1        4.214  -1.738  -0.432  0.00  0.00    +0.309 C 
BRANCH  27  28
ATOM     28  O   LIG    1        5.458  -1.236  -0.853  0.00  0.00    -0.457 OA
BRANCH  28  29
ATOM     29  C   LIG    1        5.567  -0.150  -1.719  0.00  0.00    +0.304 C 
ATOM     30  O   LIG    1        4.516   0.403  -2.139  0.00  0.00    -0.251 OA
ATOM     31  C   LIG    1        6.874   0.390  -2.171  0.00  0.00    +0.136 C 
ENDBRANCH  28  29
ENDBRANCH  27  28
ENDBRANCH  25  27
ENDBRANCH  15  25
TORSDOF 5
