REMARK  Name = molecules/YNUMZJCKFQVSRH-HWKANZROSA-N.pdb
REMARK                            x       y       z     vdW  Elec       q    Type
REMARK                         _______ _______ _______ _____ _____    ______ ____
ROOT
ATOM      1  C   LIG    1       -0.480   1.106  -0.143  0.00  0.00    +0.162 A 
ATOM      2  C   LIG    1       -1.321   0.016   0.117  0.00  0.00    +0.162 A 
ATOM      3  C   LIG    1       -0.709  -1.179   0.371  0.00  0.00    +0.050 A 
ATOM      4  C   LIG    1        0.653  -1.287   0.367  0.00  0.00    +0.012 A 
ATOM      5  C   LIG    1        1.514  -0.213   0.109  0.00  0.00    -0.021 A 
ATOM      6  C   LIG    1        0.892   0.983  -0.144  0.00  0.00    +0.057 A 
ENDROOT
BRANCH   1   7
ATOM      7  O   LIG    1       -1.088   2.320  -0.401  0.00  0.00    -0.491 OA
ATOM      8  C   LIG    1       -0.373   3.494  -0.677  0.00  0.00    +0.277 C 
ENDBRANCH   1   7
BRANCH   5   9
ATOM      9  C   LIG    1        2.949  -0.407   0.122  0.00  0.00    +0.015 C 
ATOM     10  C   LIG    1        3.820   0.544  -0.108  0.00  0.00    +0.092 C 
BRANCH  10  11
ATOM     11  C   LIG    1        5.275   0.276  -0.079  0.00  0.00    +0.330 C 
ATOM     12  O   LIG    1        6.040   1.225  -0.306  0.00  0.00    -0.246 OA
BRANCH  11  13
ATOM     13  O   LIG    1        5.777  -0.977   0.190  0.00  0.00    -0.478 OA
ATOM     14  H   LIG    1        5.348  -1.848  -0.079  0.00  0.00    +0.295 HD
ENDBRANCH  11  13
ENDBRANCH  10  11
ENDBRANCH   5   9
BRANCH   2  15
ATOM     15  O   LIG    1       -2.670   0.144   0.114  0.00  0.00    -0.486 OA
BRANCH  15  16
ATOM     16  C   LIG    1       -3.723  -0.693   0.294  0.00  0.00    +0.257 C 
BRANCH  16  17
ATOM     17  C   LIG    1       -3.928  -1.813  -0.667  0.00  0.00    +0.196 C 
BRANCH  17  18
ATOM     18  O   LIG    1       -5.079  -2.550  -0.286  0.00  0.00    -0.392 OA
ATOM     19  H   LIG    1       -4.774  -3.165   0.432  0.00  0.00    +0.210 HD
ENDBRANCH  17  18
ENDBRANCH  16  17
ENDBRANCH  15  16
ENDBRANCH   2  15
TORSDOF 8
