REMARK  Name = molecules/YNVGQYHLRCDXFQ-XGXHKTLJSA-N.pdb
REMARK                            x       y       z     vdW  Elec       q    Type
REMARK                         _______ _______ _______ _____ _____    ______ ____
ROOT
ATOM      1  C   LIG    1       -2.235  -1.475  -1.448  0.00  0.00    +0.015 C 
ATOM      2  C   LIG    1       -2.166  -0.300  -0.533  0.00  0.00    +0.011 C 
ATOM      3  C   LIG    1       -1.357  -0.596   0.738  0.00  0.00    +0.002 C 
ATOM      4  C   LIG    1       -2.111  -1.768   1.257  0.00  0.00    +0.008 C 
ATOM      5  C   LIG    1       -3.563  -1.346   1.049  0.00  0.00    +0.049 C 
ATOM      6  C   LIG    1        0.080  -0.819   0.455  0.00  0.00    -0.003 C 
ATOM      7  C   LIG    1        0.810  -1.101   1.711  0.00  0.00    +0.008 C 
ATOM      8  C   LIG    1        2.236  -0.746   1.750  0.00  0.00    +0.031 C 
ATOM      9  C   LIG    1        2.807  -0.189   0.529  0.00  0.00    -0.070 C 
ATOM     10  C   LIG    1        4.146  -0.096   0.454  0.00  0.00    -0.027 C 
ATOM     11  C   LIG    1        4.691   0.484  -0.820  0.00  0.00    +0.027 C 
ATOM     12  C   LIG    1        4.002   1.803  -1.036  0.00  0.00    +0.005 C 
ATOM     13  C   LIG    1        2.516   1.627  -1.147  0.00  0.00    +0.008 C 
ATOM     14  C   LIG    1        2.045   0.288  -0.645  0.00  0.00    +0.018 C 
ATOM     15  C   LIG    1        0.603   0.458  -0.208  0.00  0.00    -0.000 C 
ATOM     16  C   LIG    1       -0.195   0.803  -1.435  0.00  0.00    +0.005 C 
ATOM     17  C   LIG    1       -3.535  -0.154   0.127  0.00  0.00    +0.132 C 
ATOM     18  C   LIG    1       -1.674   0.954  -1.154  0.00  0.00    +0.011 C 
ENDROOT
BRANCH  17  19
ATOM     19  C   LIG    1       -3.456   1.093   0.921  0.00  0.00    -0.070 C 
ATOM     20  C   LIG    1       -3.378   2.103   1.578  0.00  0.00    +0.007 C 
ENDBRANCH  17  19
BRANCH  17  21
ATOM     21  O   LIG    1       -4.562  -0.127  -0.780  0.00  0.00    -0.376 OA
ATOM     22  H   LIG    1       -5.273   0.547  -0.540  0.00  0.00    +0.211 HD
ENDBRANCH  17  21
TORSDOF 2
