REMARK  Name = molecules/YNZFUWZUGRBMHL-UHFFFAOYSA-N.pdb
REMARK                            x       y       z     vdW  Elec       q    Type
REMARK                         _______ _______ _______ _____ _____    ______ ____
ROOT
ATOM      1  N   LIG    1       -2.561  -0.471  -0.955  0.00  0.00    -0.299 N 
ATOM      2  C   LIG    1       -3.265  -1.443  -0.143  0.00  0.00    +0.041 A 
ATOM      3  C   LIG    1       -3.671  -1.252   1.180  0.00  0.00    -0.004 A 
ATOM      4  C   LIG    1       -3.519  -0.064   2.023  0.00  0.00    +0.010 C 
ATOM      5  C   LIG    1       -3.218   1.182   1.645  0.00  0.00    +0.010 C 
ATOM      6  C   LIG    1       -2.959   1.674   0.274  0.00  0.00    -0.004 A 
ATOM      7  C   LIG    1       -3.034   3.061   0.193  0.00  0.00    +0.010 A 
ATOM      8  C   LIG    1       -2.808   3.646  -1.037  0.00  0.00    +0.001 A 
ATOM      9  C   LIG    1       -2.518   2.924  -2.167  0.00  0.00    +0.002 A 
ATOM     10  C   LIG    1       -2.446   1.542  -2.076  0.00  0.00    +0.024 A 
ATOM     11  C   LIG    1       -4.321  -2.284   1.809  0.00  0.00    +0.010 A 
ATOM     12  C   LIG    1       -4.555  -3.460   1.134  0.00  0.00    +0.001 A 
ATOM     13  C   LIG    1       -4.139  -3.617  -0.186  0.00  0.00    +0.002 A 
ATOM     14  C   LIG    1       -3.486  -2.605  -0.844  0.00  0.00    +0.024 A 
ATOM     15  C   LIG    1       -2.669   0.960  -0.860  0.00  0.00    +0.041 A 
ENDROOT
BRANCH   1  16
ATOM     16  C   LIG    1       -1.678  -0.970  -1.929  0.00  0.00    +0.112 C 
BRANCH  16  17
ATOM     17  C   LIG    1       -0.231  -0.422  -1.699  0.00  0.00    +0.035 C 
BRANCH  17  18
ATOM     18  C   LIG    1        0.230  -0.901  -0.315  0.00  0.00    +0.086 C 
BRANCH  18  19
ATOM     19  N   LIG    1        1.525  -0.424  -0.055  0.00  0.00    -0.300 NA
ATOM     20  C   LIG    1        1.751   0.933   0.168  0.00  0.00    +0.100 C 
ATOM     21  C   LIG    1        3.248   1.218   0.093  0.00  0.00    +0.100 C 
ATOM     22  N   LIG    1        3.879   0.477   1.131  0.00  0.00    -0.298 NA
ATOM     23  C   LIG    1        3.669  -0.914   1.051  0.00  0.00    +0.100 C 
ATOM     24  C   LIG    1        2.567  -1.343   0.127  0.00  0.00    +0.100 C 
BRANCH  22  25
ATOM     25  C   LIG    1        5.244   0.878   1.380  0.00  0.00    +0.112 C 
BRANCH  25  26
ATOM     26  C   LIG    1        6.169   0.543   0.245  0.00  0.00    +0.171 C 
BRANCH  26  27
ATOM     27  O   LIG    1        7.447   0.972   0.596  0.00  0.00    -0.394 OA
ATOM     28  H   LIG    1        7.958   0.169   0.874  0.00  0.00    +0.209 HD
ENDBRANCH  26  27
ENDBRANCH  25  26
ENDBRANCH  22  25
ENDBRANCH  18  19
ENDBRANCH  17  18
ENDBRANCH  16  17
ENDBRANCH   1  16
TORSDOF 7
