REMARK  Name = molecules/YNZXWQJZEDLQEG-UHFFFAOYSA-N.pdb
REMARK                            x       y       z     vdW  Elec       q    Type
REMARK                         _______ _______ _______ _____ _____    ______ ____
ROOT
ATOM      1  C   LIG    1        4.213   0.828   0.666  0.00  0.00    +0.191 A 
ATOM      2  C   LIG    1        5.537   0.476   0.794  0.00  0.00    +0.206 A 
ATOM      3  C   LIG    1        5.986  -0.790   0.403  0.00  0.00    +0.166 A 
ATOM      4  C   LIG    1        5.105  -1.698  -0.113  0.00  0.00    +0.063 A 
ATOM      5  C   LIG    1        3.767  -1.348  -0.245  0.00  0.00    +0.047 A 
ATOM      6  C   LIG    1        2.882  -2.281  -0.772  0.00  0.00    +0.129 A 
ATOM      7  N   LIG    1        1.604  -1.885  -0.874  0.00  0.00    -0.199 NA
ATOM      8  C   LIG    1        1.143  -0.683  -0.510  0.00  0.00    +0.220 A 
ATOM      9  N   LIG    1        2.039   0.196  -0.001  0.00  0.00    -0.210 NA
ATOM     10  C   LIG    1        3.338  -0.098   0.144  0.00  0.00    +0.123 A 
ENDROOT
BRANCH   8  11
ATOM     11  N   LIG    1       -0.234  -0.326  -0.648  0.00  0.00    -0.297 N 
ATOM     12  C   LIG    1       -0.759   0.942  -0.269  0.00  0.00    +0.127 C 
ATOM     13  C   LIG    1       -2.169   0.952   0.208  0.00  0.00    +0.130 C 
ATOM     14  N   LIG    1       -2.938  -0.203  -0.153  0.00  0.00    -0.264 N 
ATOM     15  C   LIG    1       -2.261  -1.480  -0.186  0.00  0.00    +0.130 C 
ATOM     16  C   LIG    1       -4.318  -0.166  -0.480  0.00  0.00    +0.403 C 
ATOM     17  O   LIG    1       -4.898  -1.237  -0.784  0.00  0.00    -0.226 OA
ATOM     18  C   LIG    1       -1.125  -1.322  -1.205  0.00  0.00    +0.127 C 
BRANCH  16  19
ATOM     19  O   LIG    1       -5.084   0.962  -0.491  0.00  0.00    -0.447 OA
BRANCH  19  20
ATOM     20  C   LIG    1       -6.422   1.126  -0.786  0.00  0.00    +0.267 C 
BRANCH  20  21
ATOM     21  C   LIG    1       -7.411   0.415   0.063  0.00  0.00    +0.094 C 
ATOM     22  C   LIG    1       -7.435   0.918   1.494  0.00  0.00    +0.044 C 
ATOM     23  C   LIG    1       -8.801   0.750  -0.504  0.00  0.00    +0.044 C 
BRANCH  21  24
ATOM     24  O   LIG    1       -7.329  -0.952   0.092  0.00  0.00    -0.386 OA
ATOM     25  H   LIG    1       -7.919  -1.356  -0.594  0.00  0.00    +0.210 HD
ENDBRANCH  21  24
ENDBRANCH  20  21
ENDBRANCH  19  20
ENDBRANCH  16  19
ENDBRANCH   8  11
BRANCH   6  26
ATOM     26  N   LIG    1        3.345  -3.550  -1.161  0.00  0.00    -0.343 N 
ATOM     27  H   LIG    1        3.632  -4.264  -0.485  0.00  0.00    +0.144 HD
ATOM     28  H   LIG    1        3.400  -3.778  -2.175  0.00  0.00    +0.144 HD
ENDBRANCH   6  26
BRANCH   1  29
ATOM     29  O   LIG    1        3.790   2.099   1.064  0.00  0.00    -0.489 OA
ATOM     30  C   LIG    1        3.822   3.125   0.089  0.00  0.00    +0.277 C 
ENDBRANCH   1  29
BRANCH   2  31
ATOM     31  O   LIG    1        6.434   1.389   1.317  0.00  0.00    -0.488 OA
ATOM     32  C   LIG    1        7.163   2.321   0.557  0.00  0.00    +0.277 C 
ENDBRANCH   2  31
BRANCH   3  33
ATOM     33  O   LIG    1        7.327  -1.109   0.547  0.00  0.00    -0.491 OA
ATOM     34  C   LIG    1        7.777  -2.383   0.153  0.00  0.00    +0.277 C 
ENDBRANCH   3  33
TORSDOF 9
