REMARK  Name = molecules/YOSHYTLCDANDAN-UHFFFAOYSA-N.pdb
REMARK                            x       y       z     vdW  Elec       q    Type
REMARK                         _______ _______ _______ _____ _____    ______ ____
ROOT
ATOM      1  C   LIG    1        0.445   0.156   1.339  0.00  0.00    -0.008 A 
ATOM      2  C   LIG    1        0.851  -1.155   1.337  0.00  0.00    +0.008 A 
ATOM      3  C   LIG    1        2.001  -1.568   0.655  0.00  0.00    +0.009 A 
ATOM      4  C   LIG    1        2.768  -0.662  -0.041  0.00  0.00    -0.017 A 
ATOM      5  C   LIG    1        2.372   0.667  -0.050  0.00  0.00    +0.009 A 
ATOM      6  C   LIG    1        1.226   1.050   0.636  0.00  0.00    +0.008 A 
ENDROOT
BRANCH   4   7
ATOM      7  C   LIG    1        3.971  -1.058  -0.766  0.00  0.00    -0.007 A 
ATOM      8  C   LIG    1        5.187  -0.931  -0.138  0.00  0.00    +0.028 A 
ATOM      9  C   LIG    1        6.359  -1.299  -0.813  0.00  0.00    +0.012 A 
ATOM     10  C   LIG    1        6.316  -1.789  -2.099  0.00  0.00    +0.001 A 
ATOM     11  C   LIG    1        5.083  -1.913  -2.721  0.00  0.00    +0.001 A 
ATOM     12  C   LIG    1        3.928  -1.548  -2.053  0.00  0.00    +0.009 A 
BRANCH   8  13
ATOM     13  C   LIG    1        5.303  -0.423   1.212  0.00  0.00    +0.180 A 
ATOM     14  N   LIG    1        4.288  -0.026   1.991  0.00  0.00    -0.108 NA
ATOM     15  N   LIG    1        4.767   0.378   3.162  0.00  0.00    -0.023 NA
ATOM     16  N   LIG    1        6.086   0.238   3.127  0.00  0.00    -0.046 NA
ATOM     17  N   LIG    1        6.417  -0.250   1.940  0.00  0.00    -0.239 N 
ATOM     18  H   LIG    1        7.412  -0.452   1.667  0.00  0.00    +0.192 HD
ENDBRANCH   8  13
ENDBRANCH   4   7
BRANCH   1  19
ATOM     19  C   LIG    1       -0.757   0.567   2.065  0.00  0.00    +0.270 C 
BRANCH  19  21
ATOM     20  C   LIG    1       -3.016  -0.010   0.989  0.00  0.00    +0.292 C 
ATOM     21  N   LIG    1       -1.924   0.847   1.290  0.00  0.00    -0.153 N 
ATOM     22  C   LIG    1       -2.186   2.139   0.700  0.00  0.00    +0.356 C 
ATOM     23  O   LIG    1       -1.505   3.189   0.711  0.00  0.00    -0.242 OA
ATOM     24  C   LIG    1       -3.489   2.010   0.031  0.00  0.00    +0.249 C 
ATOM     25  C   LIG    1       -4.481   3.022   0.594  0.00  0.00    +0.069 C 
ATOM     26  C   LIG    1       -4.337   4.247  -0.278  0.00  0.00    +0.005 C 
ATOM     27  C   LIG    1       -3.853   3.753  -1.622  0.00  0.00    +0.005 C 
ATOM     28  C   LIG    1       -3.414   2.337  -1.444  0.00  0.00    +0.069 C 
ATOM     29  N   LIG    1       -3.856   0.672   0.293  0.00  0.00    -0.069 NA
BRANCH  20  30
ATOM     30  C   LIG    1       -3.209  -1.459   1.383  0.00  0.00    +0.128 C 
BRANCH  30  31
ATOM     31  C   LIG    1       -2.584  -2.414   0.431  0.00  0.00    +0.012 C 
BRANCH  31  33
ATOM     32  C   LIG    1       -2.471  -3.280  -1.880  0.00  0.00    +0.004 C 
ATOM     33  C   LIG    1       -3.158  -2.280  -0.975  0.00  0.00    -0.003 C 
ENDBRANCH  31  33
ENDBRANCH  30  31
ENDBRANCH  20  30
ENDBRANCH  19  21
ENDBRANCH   1  19
TORSDOF 7
