REMARK  Name = molecules/YPELFRMCRYSPKZ-MRXNPFEDSA-N.pdb
REMARK                            x       y       z     vdW  Elec       q    Type
REMARK                         _______ _______ _______ _____ _____    ______ ____
ROOT
ATOM      1  C   LIG    1        1.675  -1.087  -0.399  0.00  0.00    +0.248 C 
ATOM      2  O   LIG    1        0.778  -1.986  -0.159  0.00  0.00    -0.270 OA
ATOM      3  N   LIG    1        1.251   0.142  -0.955  0.00  0.00    -0.309 N 
ATOM      4  H   LIG    1        1.927   0.900  -1.176  0.00  0.00    +0.149 HD
ENDROOT
BRANCH   1   5
ATOM      5  C   LIG    1        3.041  -1.462  -0.058  0.00  0.00    +0.080 A 
ATOM      6  C   LIG    1        3.280  -2.737   0.490  0.00  0.00    +0.038 A 
ATOM      7  C   LIG    1        4.501  -3.202   0.847  0.00  0.00    +0.062 A 
ATOM      8 CL   LIG    1        4.637  -4.813   1.517  0.00  0.00    -0.082 Cl
ATOM      9  C   LIG    1        5.582  -2.381   0.664  0.00  0.00    +0.047 A 
ATOM     10  C   LIG    1        5.397  -1.126   0.132  0.00  0.00    +0.070 A 
ATOM     11  C   LIG    1        4.143  -0.656  -0.232  0.00  0.00    +0.134 A 
BRANCH   9  12
ATOM     12  N   LIG    1        6.865  -2.853   1.032  0.00  0.00    -0.357 N 
ATOM     13  H   LIG    1        7.222  -2.584   1.982  0.00  0.00    +0.142 HD
ATOM     14  H   LIG    1        7.412  -3.443   0.369  0.00  0.00    +0.142 HD
ENDBRANCH   9  12
BRANCH  11  15
ATOM     15  O   LIG    1        3.981   0.599  -0.761  0.00  0.00    -0.491 OA
BRANCH  15  16
ATOM     16  C   LIG    1        4.957   1.554  -1.012  0.00  0.00    +0.226 C 
ATOM     17  C   LIG    1        5.732   2.017   0.175  0.00  0.00    +0.048 C 
ENDBRANCH  15  16
ENDBRANCH  11  15
ENDBRANCH   1   5
BRANCH   3  18
ATOM     18  C   LIG    1       -0.171   0.391  -1.241  0.00  0.00    +0.137 C 
BRANCH  18  19
ATOM     19  C   LIG    1       -0.985   0.358   0.023  0.00  0.00    +0.149 C 
ATOM     20  O   LIG    1       -0.476   1.349   0.847  0.00  0.00    -0.372 OA
ATOM     21  C   LIG    1       -1.184   2.524   0.616  0.00  0.00    +0.175 C 
ATOM     22  C   LIG    1       -2.525   2.319   1.330  0.00  0.00    +0.113 C 
ATOM     23  N   LIG    1       -3.191   1.182   0.766  0.00  0.00    -0.293 NA
ATOM     24  C   LIG    1       -2.454   0.477  -0.231  0.00  0.00    +0.118 C 
BRANCH  23  25
ATOM     25  C   LIG    1       -4.519   1.553   0.338  0.00  0.00    +0.119 C 
BRANCH  25  26
ATOM     26  C   LIG    1       -5.355   0.405  -0.022  0.00  0.00    -0.033 A 
ATOM     27  C   LIG    1       -6.146  -0.227   0.935  0.00  0.00    +0.008 A 
ATOM     28  C   LIG    1       -6.943  -1.307   0.636  0.00  0.00    +0.038 A 
ATOM     29  C   LIG    1       -6.982  -1.803  -0.643  0.00  0.00    +0.123 A 
ATOM     30  F   LIG    1       -7.766  -2.877  -0.967  0.00  0.00    -0.205 F 
ATOM     31  C   LIG    1       -6.211  -1.199  -1.606  0.00  0.00    +0.038 A 
ATOM     32  C   LIG    1       -5.415  -0.117  -1.298  0.00  0.00    +0.008 A 
ENDBRANCH  25  26
ENDBRANCH  23  25
ENDBRANCH  18  19
ENDBRANCH   3  18
TORSDOF 8
