REMARK  Name = molecules/YPQVDFLBDPTGLB-BJKOFHAPSA-N.pdb
REMARK                            x       y       z     vdW  Elec       q    Type
REMARK                         _______ _______ _______ _____ _____    ______ ____
ROOT
ATOM      1  C   LIG    1       -2.348  -1.847  -0.538  0.00  0.00    -0.002 C 
ENDROOT
BRANCH   1   2
ATOM      2  C   LIG    1       -2.668  -0.388  -0.569  0.00  0.00    -0.018 C 
BRANCH   2   3
ATOM      3  C   LIG    1       -4.096  -0.014  -0.478  0.00  0.00    -0.075 C 
BRANCH   3   4
ATOM      4  N   LIG    1       -4.767  -0.404   0.707  0.00  0.00    +0.380 N 
ATOM      5  C   LIG    1       -3.899  -0.047   1.840  0.00  0.00    -0.092 C 
ATOM      6  C   LIG    1       -5.091  -1.783   0.843  0.00  0.00    -0.092 C 
BRANCH   4   7
ATOM      7  C   LIG    1       -5.974   0.364   0.960  0.00  0.00    -0.037 C 
ATOM      8  C   LIG    1       -5.687   1.787   1.379  0.00  0.00    -0.012 C 
ATOM      9  C   LIG    1       -7.071   2.416   1.613  0.00  0.00    -0.001 C 
ATOM     10  C   LIG    1       -7.659   2.692   0.251  0.00  0.00    +0.002 C 
ATOM     11  C   LIG    1       -7.144   1.736  -0.801  0.00  0.00    +0.030 C 
ATOM     12  C   LIG    1       -6.983   0.375  -0.118  0.00  0.00    +0.102 C 
BRANCH  12  13
ATOM     13  O   LIG    1       -6.862  -0.645  -1.052  0.00  0.00    -0.393 OA
ATOM     14  H   LIG    1       -7.617  -1.284  -1.053  0.00  0.00    +0.210 HD
ENDBRANCH  12  13
ENDBRANCH   4   7
ENDBRANCH   3   4
ENDBRANCH   2   3
ENDBRANCH   1   2
BRANCH   1  15
ATOM     15  C   LIG    1       -0.842  -2.031  -0.632  0.00  0.00    -0.000 C 
BRANCH  15  16
ATOM     16  C   LIG    1       -0.246  -1.474  -1.889  0.00  0.00    -0.000 C 
BRANCH  16  17
ATOM     17  C   LIG    1        1.233  -1.728  -1.924  0.00  0.00    -0.000 C 
BRANCH  17  18
ATOM     18  C   LIG    1        1.987  -1.109  -0.793  0.00  0.00    -0.000 C 
BRANCH  18  19
ATOM     19  C   LIG    1        3.490  -1.403  -0.911  0.00  0.00    -0.000 C 
BRANCH  19  20
ATOM     20  C   LIG    1        4.163  -0.743   0.263  0.00  0.00    -0.000 C 
BRANCH  20  21
ATOM     21  C   LIG    1        5.645  -0.948   0.277  0.00  0.00    -0.000 C 
BRANCH  21  22
ATOM     22  C   LIG    1        6.307  -0.381  -0.973  0.00  0.00    -0.000 C 
BRANCH  22  23
ATOM     23  C   LIG    1        7.769  -0.550  -0.973  0.00  0.00    -0.000 C 
BRANCH  23  24
ATOM     24  C   LIG    1        8.625   0.070   0.040  0.00  0.00    -0.000 C 
BRANCH  24  25
ATOM     25  C   LIG    1        8.772   1.527   0.157  0.00  0.00    -0.000 C 
BRANCH  25  26
ATOM     26  C   LIG    1        7.583   2.349   0.501  0.00  0.00    -0.003 C 
ATOM     27  C   LIG    1        6.962   2.016   1.845  0.00  0.00    +0.004 C 
ENDBRANCH  25  26
ENDBRANCH  24  25
ENDBRANCH  23  24
ENDBRANCH  22  23
ENDBRANCH  21  22
ENDBRANCH  20  21
ENDBRANCH  19  20
ENDBRANCH  18  19
ENDBRANCH  17  18
ENDBRANCH  16  17
ENDBRANCH  15  16
ENDBRANCH   1  15
TORSDOF 17
