REMARK  Name = molecules/YPTFHLJNWSJXKG-UHFFFAOYSA-N.pdb
REMARK                            x       y       z     vdW  Elec       q    Type
REMARK                         _______ _______ _______ _____ _____    ______ ____
ROOT
ATOM      1  C   LIG    1        0.660  -0.623   0.168  0.00  0.00    +0.063 A 
ATOM      2  C   LIG    1       -0.479  -1.382   0.383  0.00  0.00    +0.064 A 
ATOM      3  C   LIG    1       -1.750  -0.849   0.337  0.00  0.00    +0.163 A 
ATOM      4  C   LIG    1       -1.920   0.508   0.068  0.00  0.00    +0.165 A 
ATOM      5  C   LIG    1       -0.795   1.262  -0.145  0.00  0.00    +0.095 A 
ATOM      6  C   LIG    1        0.494   0.715  -0.098  0.00  0.00    +0.135 A 
ENDROOT
BRANCH   1   7
ATOM      7  C   LIG    1        1.958  -1.254   0.234  0.00  0.00    +0.167 C 
ATOM      8  O   LIG    1        2.014  -2.505   0.481  0.00  0.00    -0.292 OA
BRANCH   7   9
ATOM      9  C   LIG    1        3.198  -0.501   0.027  0.00  0.00    +0.091 C 
BRANCH   9  10
ATOM     10  C   LIG    1        4.456  -1.309   0.131  0.00  0.00    +0.128 C 
BRANCH  10  11
ATOM     11  C   LIG    1        4.688  -1.947   1.422  0.00  0.00    +0.305 C 
ATOM     12  O   LIG    1        4.242  -3.083   1.660  0.00  0.00    -0.251 OA
BRANCH  11  13
ATOM     13  O   LIG    1        5.414  -1.295   2.413  0.00  0.00    -0.481 OA
ATOM     14  H   LIG    1        6.000  -1.852   3.003  0.00  0.00    +0.295 HD
ENDBRANCH  11  13
ENDBRANCH  10  11
ENDBRANCH   9  10
ENDBRANCH   7   9
ENDBRANCH   1   7
BRANCH   3  15
ATOM     15  O   LIG    1       -2.828  -1.664   0.557  0.00  0.00    -0.489 OA
BRANCH  15  16
ATOM     16  C   LIG    1       -2.736  -3.034   0.805  0.00  0.00    +0.226 C 
ATOM     17  C   LIG    1       -2.139  -3.771  -0.348  0.00  0.00    +0.048 C 
ENDBRANCH  15  16
ENDBRANCH   3  15
BRANCH   4  18
ATOM     18  O   LIG    1       -3.190   0.999   0.032  0.00  0.00    -0.488 OA
BRANCH  18  19
ATOM     19  C   LIG    1       -3.538   2.340  -0.226  0.00  0.00    +0.226 C 
ATOM     20  C   LIG    1       -5.028   2.558  -0.195  0.00  0.00    +0.048 C 
ENDBRANCH  18  19
ENDBRANCH   4  18
BRANCH   6  21
ATOM     21  O   LIG    1        1.611   1.490  -0.315  0.00  0.00    -0.491 OA
BRANCH  21  22
ATOM     22  C   LIG    1        1.659   2.848  -0.599  0.00  0.00    +0.226 C 
ATOM     23  C   LIG    1        0.944   3.244  -1.862  0.00  0.00    +0.048 C 
ENDBRANCH  21  22
ENDBRANCH   6  21
TORSDOF 11
