REMARK  Name = molecules/YRCWQPVGYLYSOX-SECBINFHSA-N.pdb
REMARK                            x       y       z     vdW  Elec       q    Type
REMARK                         _______ _______ _______ _____ _____    ______ ____
ROOT
ATOM      1  C   LIG    1       -0.521   0.632  -0.163  0.00  0.00    -0.018 A 
ATOM      2  C   LIG    1       -0.845  -0.536   0.470  0.00  0.00    +0.010 A 
ATOM      3  C   LIG    1       -2.178  -0.855   0.746  0.00  0.00    +0.046 A 
ATOM      4  C   LIG    1       -3.196  -0.002   0.389  0.00  0.00    +0.117 A 
ATOM      5  C   LIG    1       -2.880   1.179  -0.250  0.00  0.00    +0.046 A 
ATOM      6  C   LIG    1       -1.577   1.468  -0.508  0.00  0.00    +0.010 A 
ENDROOT
BRANCH   4   7
ATOM      7  O   LIG    1       -4.542  -0.297   0.654  0.00  0.00    -0.507 OA
ATOM      8  H   LIG    1       -4.809  -1.142   1.114  0.00  0.00    +0.292 HD
ENDBRANCH   4   7
BRANCH   1   9
ATOM      9  C   LIG    1        0.825   1.076  -0.502  0.00  0.00    +0.158 C 
BRANCH   9  10
ATOM     10  O   LIG    1        0.757   1.521  -1.845  0.00  0.00    -0.386 OA
ATOM     11  H   LIG    1        0.627   0.703  -2.403  0.00  0.00    +0.210 HD
ENDBRANCH   9  10
BRANCH   9  12
ATOM     12  C   LIG    1        1.909   0.066  -0.412  0.00  0.00    +0.116 C 
BRANCH  12  13
ATOM     13  N   LIG    1        2.145  -0.495   0.880  0.00  0.00    -0.316 NA
ATOM     14  H   LIG    1        2.402   0.241   1.562  0.00  0.00    +0.122 HD
ATOM     15  C   LIG    1        3.229  -1.452   0.771  0.00  0.00    +0.101 C 
ENDBRANCH  12  13
ENDBRANCH   9  12
ENDBRANCH   1   9
TORSDOF 5
