REMARK  Name = molecules/YREYEVIYCVEVJK-RUZDIDTESA-N.pdb
REMARK                            x       y       z     vdW  Elec       q    Type
REMARK                         _______ _______ _______ _____ _____    ______ ____
ROOT
ATOM      1  C   LIG    1        1.815  -0.641  -2.918  0.00  0.00    +0.153 C 
ENDROOT
BRANCH   1   2
ATOM      2  C   LIG    1        0.820  -0.739  -1.851  0.00  0.00    +0.059 A 
ATOM      3  N   LIG    1        1.046  -1.441  -0.740  0.00  0.00    -0.259 NA
ATOM      4  C   LIG    1        0.138  -1.538   0.240  0.00  0.00    +0.114 A 
ATOM      5  C   LIG    1       -1.103  -0.897   0.138  0.00  0.00    +0.065 A 
ATOM      6  C   LIG    1       -1.384  -0.168  -0.976  0.00  0.00    +0.127 A 
ATOM      7  C   LIG    1       -0.385  -0.106  -1.971  0.00  0.00    +0.013 A 
ATOM      8  C   LIG    1       -0.680   0.678  -3.173  0.00  0.00    +0.049 C 
BRANCH   6   9
ATOM      9  O   LIG    1       -2.544   0.484  -1.166  0.00  0.00    -0.492 OA
BRANCH   9  10
ATOM     10  C   LIG    1       -3.664   0.581  -0.409  0.00  0.00    +0.231 C 
BRANCH  10  11
ATOM     11  C   LIG    1       -4.465  -0.666  -0.157  0.00  0.00    +0.069 C 
BRANCH  11  12
ATOM     12  C   LIG    1       -5.651  -0.215   0.717  0.00  0.00    +0.163 C 
BRANCH  12  13
ATOM     13  O   LIG    1       -5.075   0.317   1.872  0.00  0.00    -0.383 OA
ATOM     14  C   LIG    1       -6.046   0.771   2.766  0.00  0.00    +0.193 C 
ENDBRANCH  12  13
ENDBRANCH  11  12
ENDBRANCH  10  11
ENDBRANCH   9  10
ENDBRANCH   6   9
ENDBRANCH   1   2
BRANCH   1  15
ATOM     15  S   LIG    1        3.345  -1.552  -2.548  0.00  0.00    +0.030 S 
ATOM     16  O   LIG    1        4.316  -1.002  -3.617  0.00  0.00    -0.154 OA
BRANCH  15  17
ATOM     17  C   LIG    1        3.945  -0.770  -1.049  0.00  0.00    +0.186 A 
ATOM     18  N   LIG    1        3.816  -1.308   0.170  0.00  0.00    -0.332 N 
ATOM     19  C   LIG    1        4.393  -0.470   1.074  0.00  0.00    +0.067 A 
ATOM     20  C   LIG    1        4.549  -0.518   2.441  0.00  0.00    +0.028 A 
ATOM     21  C   LIG    1        5.187   0.486   3.127  0.00  0.00    +0.002 A 
ATOM     22  C   LIG    1        5.671   1.550   2.420  0.00  0.00    +0.002 A 
ATOM     23  C   LIG    1        5.529   1.624   1.059  0.00  0.00    +0.030 A 
ATOM     24  C   LIG    1        4.883   0.603   0.376  0.00  0.00    +0.090 A 
ATOM     25  H   LIG    1        3.377  -2.208   0.493  0.00  0.00    +0.168 HD
ATOM     26  N   LIG    1        4.596   0.393  -0.914  0.00  0.00    -0.221 NA
ENDBRANCH  15  17
ENDBRANCH   1  15
TORSDOF 8
