REMARK  Name = molecules/YREYLAVBNPACJM-NSHDSACASA-N.pdb
REMARK                            x       y       z     vdW  Elec       q    Type
REMARK                         _______ _______ _______ _____ _____    ______ ____
ROOT
ATOM      1  C   LIG    1        0.906  -0.110   0.691  0.00  0.00    +0.160 C 
ENDROOT
BRANCH   1   2
ATOM      2  C   LIG    1        2.255  -0.160   0.089  0.00  0.00    +0.000 A 
ATOM      3  C   LIG    1        3.148   0.870   0.468  0.00  0.00    +0.047 A 
ATOM      4 CL   LIG    1        2.425   2.263   1.291  0.00  0.00    -0.083 Cl
ATOM      5  C   LIG    1        4.454   0.872   0.142  0.00  0.00    +0.020 A 
ATOM      6  C   LIG    1        4.958  -0.199  -0.615  0.00  0.00    +0.001 A 
ATOM      7  C   LIG    1        4.111  -1.223  -1.010  0.00  0.00    +0.000 A 
ATOM      8  C   LIG    1        2.734  -1.200  -0.654  0.00  0.00    +0.007 A 
ENDBRANCH   1   2
BRANCH   1   9
ATOM      9  O   LIG    1        0.765   0.969   1.550  0.00  0.00    -0.386 OA
ATOM     10  H   LIG    1        0.589   0.667   2.474  0.00  0.00    +0.210 HD
ENDBRANCH   1   9
BRANCH   1  11
ATOM     11  C   LIG    1       -0.234  -0.190  -0.343  0.00  0.00    +0.117 C 
BRANCH  11  12
ATOM     12  N   LIG    1       -1.429  -0.185   0.483  0.00  0.00    -0.309 NA
ATOM     13  H   LIG    1       -1.462  -1.068   1.099  0.00  0.00    +0.123 HD
BRANCH  12  14
ATOM     14  C   LIG    1       -2.657   0.049  -0.180  0.00  0.00    +0.011 C 
ATOM     15  C   LIG    1       -3.740   0.323   0.821  0.00  0.00    +0.027 C 
ATOM     16  C   LIG    1       -3.027  -1.115  -1.066  0.00  0.00    +0.027 C 
ATOM     17  C   LIG    1       -2.565   1.301  -1.101  0.00  0.00    +0.027 C 
ENDBRANCH  12  14
ENDBRANCH  11  12
ENDBRANCH   1  11
TORSDOF 5
