REMARK  Name = molecules/YRZQHIVOIFJEEE-UHFFFAOYSA-N.pdb
REMARK                            x       y       z     vdW  Elec       q    Type
REMARK                         _______ _______ _______ _____ _____    ______ ____
ROOT
ATOM      1  N   LIG    1        0.028  -1.447   0.003  0.00  0.00    -0.284 N 
ATOM      2  H   LIG    1       -0.035  -2.507   0.018  0.00  0.00    +0.155 HD
ENDROOT
BRANCH   1   3
ATOM      3  C   LIG    1       -1.159  -0.716   0.204  0.00  0.00    +0.034 A 
ATOM      4  C   LIG    1       -2.364  -1.415   0.415  0.00  0.00    +0.025 A 
ATOM      5  C   LIG    1       -3.566  -0.787   0.620  0.00  0.00    +0.022 A 
ATOM      6  C   LIG    1       -3.657   0.586   0.630  0.00  0.00    +0.041 A 
ATOM      7 CL   LIG    1       -5.183   1.418   0.889  0.00  0.00    -0.084 Cl
ATOM      8  C   LIG    1       -2.499   1.295   0.427  0.00  0.00    +0.022 A 
ATOM      9  C   LIG    1       -1.267   0.654   0.217  0.00  0.00    +0.025 A 
ENDBRANCH   1   3
BRANCH   1  10
ATOM     10  C   LIG    1        1.310  -0.915  -0.221  0.00  0.00    +0.224 A 
ATOM     11  N   LIG    1        1.596   0.381  -0.276  0.00  0.00    -0.181 NA
ATOM     12  C   LIG    1        2.825   0.868  -0.491  0.00  0.00    +0.217 A 
ATOM     13  N   LIG    1        3.846   0.013  -0.663  0.00  0.00    -0.203 NA
ATOM     14  C   LIG    1        3.622  -1.311  -0.618  0.00  0.00    +0.228 A 
ATOM     15  N   LIG    1        2.384  -1.753  -0.403  0.00  0.00    -0.203 NA
BRANCH  12  16
ATOM     16  N   LIG    1        3.090   2.274  -0.542  0.00  0.00    -0.327 N 
ATOM     17  H   LIG    1        4.040   2.648  -0.388  0.00  0.00    +0.145 HD
ATOM     18  H   LIG    1        2.270   2.911  -0.746  0.00  0.00    +0.145 HD
ENDBRANCH  12  16
ENDBRANCH   1  10
TORSDOF 3
