REMARK  Name = molecules/YSAUAVHXTIETRK-AATRIKPKSA-N.pdb
REMARK                            x       y       z     vdW  Elec       q    Type
REMARK                         _______ _______ _______ _____ _____    ______ ____
ROOT
ATOM      1  C   LIG    1        0.513  -0.074  -0.076  0.00  0.00    +0.100 C 
ATOM      2  C   LIG    1        1.494   0.561  -0.691  0.00  0.00    +0.023 C 
ENDROOT
BRANCH   1   3
ATOM      3  C   LIG    1       -0.897   0.245  -0.298  0.00  0.00    +0.307 C 
ATOM      4  N   LIG    1       -1.891  -0.488   0.406  0.00  0.00    -0.224 N 
ATOM      5  C   LIG    1       -1.458  -1.633   1.182  0.00  0.00    +0.276 C 
ATOM      6  C   LIG    1       -3.312  -0.116   0.360  0.00  0.00    +0.229 C 
ATOM      7  C   LIG    1       -3.406   1.339  -0.026  0.00  0.00    +0.093 C 
ATOM      8  C   LIG    1       -2.671   1.504  -1.348  0.00  0.00    +0.294 C 
ATOM      9  N   LIG    1       -1.266   1.174  -1.115  0.00  0.00    -0.083 NA
ENDBRANCH   1   3
BRANCH   2  10
ATOM     10  C   LIG    1        2.906   0.223  -0.451  0.00  0.00    +0.012 A 
ATOM     11  C   LIG    1        3.444  -0.716   0.367  0.00  0.00    +0.015 A 
ATOM     12  C   LIG    1        4.790  -0.819   0.399  0.00  0.00    +0.008 A 
ATOM     13  C   LIG    1        5.496   0.038  -0.403  0.00  0.00    +0.046 A 
ATOM     14  S   LIG    1        4.269   0.949  -1.165  0.00  0.00    -0.097 S 
ENDBRANCH   2  10
TORSDOF 2
