REMARK  Name = molecules/YSDQQAXHVYUZIW-QCIJIYAXSA-N.pdb
REMARK                            x       y       z     vdW  Elec       q    Type
REMARK                         _______ _______ _______ _____ _____    ______ ____
ROOT
ATOM      1  C   LIG    1       40.505 -30.323   0.000  0.00  0.00    +0.063 A 
ATOM      2  C   LIG    1       41.386 -31.536   0.000  0.00  0.00    +0.135 A 
ATOM      3  N   LIG    1       40.505 -32.750   0.000  0.00  0.00    -0.242 NA
ATOM      4  C   LIG    1       39.078 -32.286   0.000  0.00  0.00    +0.221 A 
ATOM      5  N   LIG    1       39.078 -30.786   0.000  0.00  0.00    -0.239 NA
ENDROOT
BRANCH   1   6
ATOM      6  C   LIG    1       40.968 -28.896   0.000  0.00  0.00    +0.080 C 
BRANCH   6   8
ATOM      7  N   LIG    1       40.005 -27.006   0.000  0.00  0.00    -0.138 NA
ATOM      8  C   LIG    1       41.431 -27.470   0.000  0.00  0.00    +0.119 C 
ENDBRANCH   6   8
ENDBRANCH   1   6
TORSDOF 2
REMARK  Name = molecules/YSDQQAXHVYUZIW-QCIJIYAXSA-N.pdb
REMARK                            x       y       z     vdW  Elec       q    Type
REMARK                         _______ _______ _______ _____ _____    ______ ____
ROOT
ATOM      1  C   LIG    1       43.826 -24.305   0.000  0.00  0.00    +0.082 C 
ATOM      2  C   LIG    1       45.252 -24.768   0.000  0.00  0.00    +0.013 C 
ATOM      3  C   LIG    1       42.399 -23.841   0.000  0.00  0.00    +0.022 C 
ENDROOT
BRANCH   1   4
ATOM      4  N   LIG    1       43.362 -25.731   0.000  0.00  0.00    -0.224 NA
ATOM      5  C   LIG    1       41.895 -26.043   0.000  0.00  0.00    +0.107 C 
ENDBRANCH   1   4
TORSDOF 1
REMARK  Name = molecules/YSDQQAXHVYUZIW-QCIJIYAXSA-N.pdb
REMARK                            x       y       z     vdW  Elec       q    Type
REMARK                         _______ _______ _______ _____ _____    ______ ____
ROOT
ATOM      1  C   LIG    1       50.111 -17.095   0.000  0.00  0.00    +0.193 C 
ENDROOT
BRANCH   1   2
ATOM      2  C   LIG    1       51.538 -17.558   0.000  0.00  0.00    +0.163 C 
ATOM      3  C   LIG    1       52.965 -18.022   0.000  0.00  0.00    +0.051 C 
ATOM      4  O   LIG    1       52.001 -16.132   0.000  0.00  0.00    -0.222 OA
ENDBRANCH   1   2
BRANCH   1   6
ATOM      5  C   LIG    1       50.651 -19.636   0.000  0.00  0.00    +0.078 C 
ATOM      6  N   LIG    1       49.648 -18.522   0.000  0.00  0.00    -0.272 NA
BRANCH   5   7
ATOM      7  C   LIG    1       50.188 -21.063   0.000  0.00  0.00    +0.187 C 
BRANCH   7  10
ATOM      8  C   LIG    1       48.257 -22.801   0.000  0.00  0.00    +0.253 C 
ATOM      9  O   LIG    1       47.397 -21.573   0.000  0.00  0.00    -0.272 OA
ATOM     10  N   LIG    1       49.724 -22.489   0.000  0.00  0.00    -0.210 NA
BRANCH   8  12
ATOM     11  N   LIG    1       46.367 -23.764   0.000  0.00  0.00    -0.130 NA
ATOM     12  C   LIG    1       47.794 -24.228   0.000  0.00  0.00    +0.184 C 
BRANCH  12  13
ATOM     13  C   LIG    1       47.330 -25.654   0.000  0.00  0.00    +0.034 C 
BRANCH  13  14
ATOM     14  C   LIG    1       46.867 -27.081   0.000  0.00  0.00    +0.131 C 
BRANCH  14  15
ATOM     15  C   LIG    1       46.403 -28.508   0.000  0.00  0.00    +0.356 C 
ATOM     16  O   LIG    1       47.407 -29.622   0.000  0.00  0.00    -0.246 OA
ATOM     17  O   LIG    1       44.936 -28.820   0.000  0.00  0.00    -0.246 OA
ENDBRANCH  14  15
ENDBRANCH  13  14
ENDBRANCH  12  13
ENDBRANCH   8  12
ENDBRANCH   7  10
ENDBRANCH   5   7
ENDBRANCH   1   6
BRANCH   1  18
ATOM     18  C   LIG    1       48.685 -16.631   0.000  0.00  0.00    +0.092 C 
ATOM     19  N   LIG    1       48.373 -15.164   0.000  0.00  0.00    -0.256 NA
BRANCH  19  20
ATOM     20  C   LIG    1       46.946 -14.701   0.000  0.00  0.00    +0.108 C 
ATOM     21  C   LIG    1       46.483 -16.127   0.000  0.00  0.00    +0.006 C 
BRANCH  21  22
ATOM     22  C   LIG    1       46.019 -17.554   0.000  0.00  0.00    +0.036 C 
BRANCH  22  23
ATOM     23  C   LIG    1       44.552 -17.866   0.000  0.00  0.00    -0.014 C 
ATOM     24  C   LIG    1       44.089 -19.292   0.000  0.00  0.00    -0.004 C 
BRANCH  24  25
ATOM     25  C   LIG    1       45.092 -20.407   0.000  0.00  0.00    -0.004 C 
ATOM     26  C   LIG    1       46.559 -20.095   0.000  0.00  0.00    -0.022 C 
ATOM     27  C   LIG    1       47.023 -18.669   0.000  0.00  0.00    +0.026 C 
ENDBRANCH  24  25
ENDBRANCH  22  23
ENDBRANCH  21  22
ENDBRANCH  19  20
ENDBRANCH   1  18
TORSDOF 13
REMARK  Name = molecules/YSDQQAXHVYUZIW-QCIJIYAXSA-N.pdb
REMARK                            x       y       z     vdW  Elec       q    Type
REMARK                         _______ _______ _______ _____ _____    ______ ____
ROOT
ATOM      1  N   LIG    1       46.406 -12.159   0.000  0.00  0.00    -0.134 NA
ATOM      2  C   LIG    1       46.870 -10.733   0.000  0.00  0.00    +0.163 C 
ATOM      3  C   LIG    1       48.296 -11.196   0.000  0.00  0.00    +0.170 C 
ATOM      4  C   LIG    1       49.723 -11.660   0.000  0.00  0.00    +0.092 C 
ATOM      5  O   LIG    1       48.760  -9.770   0.000  0.00  0.00    -0.292 OA
ENDROOT
TORSDOF 0
REMARK  Name = molecules/YSDQQAXHVYUZIW-QCIJIYAXSA-N.pdb
REMARK                            x       y       z     vdW  Elec       q    Type
REMARK                         _______ _______ _______ _____ _____    ______ ____
ROOT
ATOM      1  N   LIG    1       45.131  -8.802   0.000  0.00  0.00    -0.279 NA
ATOM      2  C   LIG    1       45.443 -10.269   0.000  0.00  0.00    +0.151 C 
ATOM      3  C   LIG    1       43.705  -8.339   0.000  0.00  0.00    +0.116 C 
ENDROOT
BRANCH   3   4
ATOM      4  C   LIG    1       43.241  -9.765   0.000  0.00  0.00    +0.234 C 
ATOM      5  O   LIG    1       42.778 -11.192   0.000  0.00  0.00    -0.222 OA
ENDBRANCH   3   4
TORSDOF 1
REMARK  Name = molecules/YSDQQAXHVYUZIW-QCIJIYAXSA-N.pdb
REMARK                            x       y       z     vdW  Elec       q    Type
REMARK                         _______ _______ _______ _____ _____    ______ ____
ROOT
ATOM      1  N   LIG    1       43.164  -5.797   0.000  0.00  0.00    -0.138 NA
ATOM      2  C   LIG    1       43.628  -4.371   0.000  0.00  0.00    +0.117 C 
ATOM      3  C   LIG    1       45.054  -4.834   0.000  0.00  0.00    +0.036 C 
ENDROOT
BRANCH   3   4
ATOM      4  C   LIG    1       46.481  -5.298   0.000  0.00  0.00    +0.201 C 
ATOM      5  O   LIG    1       47.596  -4.294   0.000  0.00  0.00    -0.216 OA
ENDBRANCH   3   4
TORSDOF 1
REMARK  Name = molecules/YSDQQAXHVYUZIW-QCIJIYAXSA-N.pdb
REMARK                            x       y       z     vdW  Elec       q    Type
REMARK                         _______ _______ _______ _____ _____    ______ ____
ROOT
ATOM      1  CA  LIG    1       40.386   1.992   0.000  0.00  0.00    +0.190 C 
ENDROOT
BRANCH   1   3
ATOM      2  C   ACE A  0       40.926  -0.550   0.000  0.00  0.00    +0.079 C 
ATOM      3  N   LIG    1       39.923   0.565   0.000  0.00  0.00    -0.272 NA
BRANCH   2   5
ATOM      4  N   LIG    1       41.889  -2.440   0.000  0.00  0.00    -0.133 NA
ATOM      5  C   LIG    1       40.463  -1.976   0.000  0.00  0.00    +0.147 C 
ATOM      6  C   LIG    1       39.999  -3.403   0.000  0.00  0.00    +0.026 C 
ENDBRANCH   2   5
ENDBRANCH   1   3
BRANCH   1   7
ATOM      7  C   LIG    1       41.813   1.528   0.000  0.00  0.00    +0.221 C 
ATOM      8  O   LIG    1       43.239   1.064   0.000  0.00  0.00    -0.226 OA
ENDBRANCH   1   7
BRANCH   1   9
ATOM      9  C   LIG    1       38.960   2.455   0.000  0.00  0.00    +0.086 C 
ATOM     10  N   LIG    1       38.648   3.922   0.000  0.00  0.00    -0.277 NA
BRANCH  10  11
ATOM     11  CA  LIG    1       37.221   4.386   0.000  0.00  0.00    +0.148 C 
ATOM     12  CB  LIG    1       37.685   5.812   0.000  0.00  0.00    +0.022 C 
BRANCH  11  13
ATOM     13  C   LIG    1       36.758   2.959   0.000  0.00  0.00    +0.215 C 
ATOM     14  O   LIG    1       36.294   1.533   0.000  0.00  0.00    -0.226 OA
ENDBRANCH  11  13
ENDBRANCH  10  11
ENDBRANCH   1   9
TORSDOF 6
REMARK  Name = molecules/YSDQQAXHVYUZIW-QCIJIYAXSA-N.pdb
REMARK                            x       y       z     vdW  Elec       q    Type
REMARK                         _______ _______ _______ _____ _____    ______ ____
ROOT
ATOM      1  C   LIG    1       39.998   7.427   0.000  0.00  0.00    -0.020 C 
ATOM      2  C   LIG    1       41.112   8.430   0.000  0.00  0.00    -0.006 C 
ENDROOT
BRANCH   1   5
ATOM      3  N   LIG    1       36.681   6.927   0.000  0.00  0.00    -0.138 NA
ATOM      4  C   LIG    1       37.145   8.354   0.000  0.00  0.00    +0.118 C 
ATOM      5  C   LIG    1       38.571   7.890   0.000  0.00  0.00    +0.027 C 
ENDBRANCH   1   5
BRANCH   2   6
ATOM      6  C   LIG    1       42.539   7.967   0.000  0.00  0.00    +0.097 C 
BRANCH   6   7
ATOM      7  C   LIG    1       42.851   6.500   0.000  0.00  0.00    +0.160 C 
ATOM      8  C   LIG    1       41.736   5.496   0.000  0.00  0.00    +0.024 C 
ATOM      9  C   LIG    1       40.310   5.959   0.000  0.00  0.00    +0.030 C 
ATOM     10  O   LIG    1       44.278   6.036   0.000  0.00  0.00    -0.292 OA
ENDBRANCH   6   7
ENDBRANCH   2   6
TORSDOF 3
REMARK  Name = molecules/YSDQQAXHVYUZIW-QCIJIYAXSA-N.pdb
REMARK                            x       y       z     vdW  Elec       q    Type
REMARK                         _______ _______ _______ _____ _____    ______ ____
ROOT
ATOM      1  N   LIG    1       35.406  10.284   0.000  0.00  0.00    -0.163 NA
ATOM      2  H   LIG    1       34.331  10.675   0.000  0.00  0.00    +0.163 HD
ENDROOT
TORSDOF 0
REMARK  Name = molecules/YSDQQAXHVYUZIW-QCIJIYAXSA-N.pdb
REMARK                            x       y       z     vdW  Elec       q    Type
REMARK                         _______ _______ _______ _____ _____    ______ ____
ROOT
ATOM      1  C   LIG    1       35.330  14.252   0.000  0.00  0.00    +0.038 C 
ENDROOT
BRANCH   1   2
ATOM      2  C   LIG    1       33.986  14.323   0.000  0.00  0.00    +0.076 C 
BRANCH   2   3
ATOM      3  N   LIG    1       33.439  13.289   0.000  0.00  0.00    -0.246 NA
ATOM      4  H   LIG    1       32.050  13.182   0.000  0.00  0.00    +0.141 HD
ENDBRANCH   2   3
ENDBRANCH   1   2
BRANCH   1   5
ATOM      5  C   LIG    1       36.756  13.789   0.000  0.00  0.00    +0.127 C 
BRANCH   5   6
ATOM      6  C   LIG    1       38.183  13.325   0.000  0.00  0.00    +0.356 C 
ATOM      7  O   LIG    1       38.495  11.858   0.000  0.00  0.00    -0.246 OA
ATOM      8  O   LIG    1       39.297  14.329   0.000  0.00  0.00    -0.246 OA
ENDBRANCH   5   6
ENDBRANCH   1   5
TORSDOF 4
REMARK  Name = molecules/YSDQQAXHVYUZIW-QCIJIYAXSA-N.pdb
REMARK                            x       y       z     vdW  Elec       q    Type
REMARK                         _______ _______ _______ _____ _____    ______ ____
ROOT
ATOM      1  N   LIG    1       32.164  16.646   0.000  0.00  0.00    -0.255 NA
ATOM      2  C   LIG    1       30.738  17.110   0.000  0.00  0.00    +0.115 C 
ATOM      3  H   LIG    1       33.023  16.213   0.000  0.00  0.00    +0.141 HD
ENDROOT
TORSDOF 0
REMARK  Name = molecules/YSDQQAXHVYUZIW-QCIJIYAXSA-N.pdb
REMARK                            x       y       z     vdW  Elec       q    Type
REMARK                         _______ _______ _______ _____ _____    ______ ____
ROOT
ATOM      1  N   LIG    1       28.197  16.570   0.000  0.00  0.00    -0.133 NA
ATOM      2  C   LIG    1       26.770  17.033   0.000  0.00  0.00    +0.147 C 
ENDROOT
BRANCH   2   3
ATOM      3  C   LIG    1       26.306  15.607   0.000  0.00  0.00    +0.084 C 
ATOM      4  N   LIG    1       24.839  15.295   0.000  0.00  0.00    -0.257 NA
BRANCH   4   5
ATOM      5  C   LIG    1       24.376  13.868   0.000  0.00  0.00    +0.103 C 
ATOM      6  C   LIG    1       25.802  13.405   0.000  0.00  0.00    +0.029 C 
ENDBRANCH   4   5
ENDBRANCH   2   3
BRANCH   2   7
ATOM      7  C   LIG    1       27.233  18.460   0.000  0.00  0.00    +0.029 C 
BRANCH   7   8
ATOM      8  C   LIG    1       27.697  19.887   0.000  0.00  0.00    +0.105 C 
BRANCH   8   9
ATOM      9  C   LIG    1       28.161  21.313   0.000  0.00  0.00    +0.252 C 
ATOM     10  N   LIG    1       27.157  22.428   0.000  0.00  0.00    -0.088 NA
ATOM     11  O   LIG    1       29.628  21.625   0.000  0.00  0.00    -0.272 OA
ENDBRANCH   8   9
ENDBRANCH   7   8
ENDBRANCH   2   7
TORSDOF 5
REMARK  Name = molecules/YSDQQAXHVYUZIW-QCIJIYAXSA-N.pdb
REMARK                            x       y       z     vdW  Elec       q    Type
REMARK                         _______ _______ _______ _____ _____    ______ ____
ROOT
ATOM      1  N   LIG    1       21.834  13.328   0.000  0.00  0.00    -0.138 NA
ATOM      2  C   LIG    1       20.408  13.792   0.000  0.00  0.00    +0.110 C 
ATOM      3  C   LIG    1       20.871  15.218   0.000  0.00  0.00    +0.028 C 
ENDROOT
TORSDOF 0
REMARK  Name = molecules/YSDQQAXHVYUZIW-QCIJIYAXSA-N.pdb
REMARK                            x       y       z     vdW  Elec       q    Type
REMARK                         _______ _______ _______ _____ _____    ______ ____
ROOT
ATOM      1  C   LIG    1       18.014  10.627   0.000  0.00  0.00    +0.128 C 
ENDROOT
BRANCH   1   2
ATOM      2  N   LIG    1       18.477  12.053   0.000  0.00  0.00    -0.218 NA
ATOM      3  C   LIG    1       19.944  12.365   0.000  0.00  0.00    +0.107 C 
ENDBRANCH   1   2
BRANCH   1   4
ATOM      4  C   LIG    1       16.587  11.090   0.000  0.00  0.00    +0.083 C 
ATOM      5  N   LIG    1       15.472  10.086   0.000  0.00  0.00    -0.257 NA
BRANCH   5   6
ATOM      6  C   LIG    1       14.046  10.550   0.000  0.00  0.00    +0.107 C 
ATOM      7  C   LIG    1       14.509  11.977   0.000  0.00  0.00    +0.004 C 
BRANCH   7   8
ATOM      8  C   LIG    1       14.973  13.403   0.000  0.00  0.00    +0.153 C 
BRANCH   8   9
ATOM      9  C   LIG    1       15.436  14.830   0.000  0.00  0.00    +0.360 C 
ATOM     10  O   LIG    1       14.432  15.944   0.000  0.00  0.00    -0.246 OA
ATOM     11  O   LIG    1       16.904  15.142   0.000  0.00  0.00    -0.246 OA
ENDBRANCH   8   9
ENDBRANCH   7   8
ENDBRANCH   5   6
ENDBRANCH   1   4
BRANCH   1  12
ATOM     12  C   LIG    1       19.440  10.163   0.000  0.00  0.00    +0.019 C 
BRANCH  12  13
ATOM     13  C   LIG    1       20.867   9.700   0.000  0.00  0.00    +0.007 C 
BRANCH  13  14
ATOM     14  C   LIG    1       22.293   9.236   0.000  0.00  0.00    +0.021 C 
BRANCH  14  15
ATOM     15  C   LIG    1       23.720   8.773   0.000  0.00  0.00    +0.131 C 
BRANCH  15  16
ATOM     16  N   LIG    1       25.146   8.309   0.000  0.00  0.00    -0.218 NA
ATOM     17  C   LIG    1       25.458   6.842   0.000  0.00  0.00    +0.232 C 
ATOM     18  O   LIG    1       24.344   5.838   0.000  0.00  0.00    -0.274 OA
BRANCH  17  19
ATOM     19  C   LIG    1       26.885   6.378   0.000  0.00  0.00    +0.098 C 
BRANCH  19  20
ATOM     20  C   LIG    1       28.311   5.915   0.000  0.00  0.00    +0.013 C 
ATOM     21  C   LIG    1       29.738   5.451   0.000  0.00  0.00    -0.004 C 
ENDBRANCH  19  20
ENDBRANCH  17  19
ENDBRANCH  15  16
ENDBRANCH  14  15
ENDBRANCH  13  14
ENDBRANCH  12  13
ENDBRANCH   1  12
TORSDOF 12
REMARK  Name = molecules/YSDQQAXHVYUZIW-QCIJIYAXSA-N.pdb
REMARK                            x       y       z     vdW  Elec       q    Type
REMARK                         _______ _______ _______ _____ _____    ______ ____
ROOT
ATOM      1  C   LIG    1       11.651   7.385   0.000  0.00  0.00    +0.132 C 
ENDROOT
BRANCH   1   2
ATOM      2  N   LIG    1       12.115   8.812   0.000  0.00  0.00    -0.218 NA
ATOM      3  C   LIG    1       13.582   9.123   0.000  0.00  0.00    +0.107 C 
ENDBRANCH   1   2
BRANCH   1   4
ATOM      4  C   LIG    1       10.225   7.848   0.000  0.00  0.00    +0.083 C 
ATOM      5  N   LIG    1        9.110   6.845   0.000  0.00  0.00    -0.252 NA
BRANCH   5   6
ATOM      6  C   LIG    1        7.684   7.308   0.000  0.00  0.00    +0.141 C 
ATOM      7  C   LIG    1        8.147   8.735   0.000  0.00  0.00    -0.119 C 
ATOM      8  C   LIG    1        8.611  10.162   0.000  0.00  0.00    +0.077 C 
BRANCH   6   9
ATOM      9  C   LIG    1        7.220   5.882   0.000  0.00  0.00    +0.153 C 
ATOM     10  N   LIG    1        5.753   5.570   0.000  0.00  0.00    -0.125 NA
ENDBRANCH   6   9
ENDBRANCH   5   6
ENDBRANCH   1   4
BRANCH   1  11
ATOM     11  C   LIG    1       13.078   6.921   0.000  0.00  0.00    +0.053 C 
BRANCH  11  12
ATOM     12  C   LIG    1       14.505   6.458   0.000  0.00  0.00    -0.042 C 
ATOM     13  C   LIG    1       14.816   4.991   0.000  0.00  0.00    -0.014 C 
BRANCH  13  14
ATOM     14  C   LIG    1       16.243   4.527   0.000  0.00  0.00    +0.045 C 
BRANCH  14  15
ATOM     15  C   LIG    1       17.358   5.531   0.000  0.00  0.00    -0.018 C 
ATOM     16  C   LIG    1       17.046   6.998   0.000  0.00  0.00    -0.004 C 
ENDBRANCH  14  15
ENDBRANCH  13  14
ENDBRANCH  11  12
ENDBRANCH   1  11
TORSDOF 8
REMARK  Name = molecules/YSDQQAXHVYUZIW-QCIJIYAXSA-N.pdb
REMARK                            x       y       z     vdW  Elec       q    Type
REMARK                         _______ _______ _______ _____ _____    ______ ____
ROOT
ATOM      1  N   LIG    1        3.551   6.074   0.000  0.00  0.00    +0.000 NA
ENDROOT
TORSDOF 0
REMARK  Name = molecules/YSDQQAXHVYUZIW-QCIJIYAXSA-N.pdb
REMARK                            x       y       z     vdW  Elec       q    Type
REMARK                         _______ _______ _______ _____ _____    ______ ____
ROOT
ATOM      1  N   LIG    1        0.194   4.799   0.000  0.00  0.00    +0.000 NA
ENDROOT
TORSDOF 0
REMARK  Name = molecules/YSDQQAXHVYUZIW-QCIJIYAXSA-N.pdb
REMARK                            x       y       z     vdW  Elec       q    Type
REMARK                         _______ _______ _______ _____ _____    ______ ____
ROOT
ATOM      1  N   LIG    1        1.468   1.442   0.000  0.00  0.00    -0.102 NA
ATOM      2  C   LIG    1        1.932   2.868   0.000  0.00  0.00    +0.190 C 
ATOM      3  C   LIG    1        1.157   2.909   0.000  0.00  0.00    +0.062 C 
ATOM      4  O   LIG    1        1.995   4.153   0.000  0.00  0.00    -0.207 OA
ATOM      5  C   LIG    1        3.358   2.405   0.000  0.00  0.00    +0.057 C 
ENDROOT
TORSDOF 0
REMARK  Name = molecules/YSDQQAXHVYUZIW-QCIJIYAXSA-N.pdb
REMARK                            x       y       z     vdW  Elec       q    Type
REMARK                         _______ _______ _______ _____ _____    ______ ____
ROOT
ATOM      1  N   LIG    1        3.435  -1.563   0.000  0.00  0.00    -0.130 NA
ATOM      2  C   LIG    1        2.972  -2.990   0.000  0.00  0.00    +0.181 C 
ENDROOT
BRANCH   2   3
ATOM      3  C   LIG    1        1.545  -2.526   0.000  0.00  0.00    +0.259 C 
ATOM      4  O   LIG    1        0.430  -3.530   0.000  0.00  0.00    -0.272 OA
ATOM      5  N   LIG    1        1.233  -1.059   0.000  0.00  0.00    -0.172 N 
ATOM      6  C   LIG    1        2.431  -0.448   0.000  0.00  0.00    +0.155 C 
BRANCH   5   7
ATOM      7  O   LIG    1        0.932  -0.396   0.000  0.00  0.00    -0.268 OA
ATOM      8  C   LIG    1       -0.193  -0.595   0.000  0.00  0.00    +0.214 C 
ENDBRANCH   5   7
ENDBRANCH   2   3
BRANCH   2   9
ATOM      9  C   LIG    1        4.398  -3.453   0.000  0.00  0.00    +0.034 C 
BRANCH   9  10
ATOM     10  C   LIG    1        5.825  -3.917   0.000  0.00  0.00    +0.043 C 
BRANCH  10  11
ATOM     11  C   LIG    1        7.251  -4.380   0.000  0.00  0.00    +0.244 C 
BRANCH  11  12
ATOM     12  N   LIG    1        8.678  -4.844   0.000  0.00  0.00    -0.102 NA
BRANCH  12  13
ATOM     13  C   LIG    1        9.793  -3.840   0.000  0.00  0.00    +0.534 C 
ATOM     14  N   LIG    1        9.481  -2.373   0.000  0.00  0.00    +0.135 NA
ATOM     15  N   LIG    1       11.219  -4.303   0.000  0.00  0.00    +0.135 NA
ENDBRANCH  12  13
ENDBRANCH  11  12
ENDBRANCH  10  11
ENDBRANCH   9  10
ENDBRANCH   2   9
TORSDOF 7
REMARK  Name = molecules/YSDQQAXHVYUZIW-QCIJIYAXSA-N.pdb
REMARK                            x       y       z     vdW  Elec       q    Type
REMARK                         _______ _______ _______ _____ _____    ______ ____
ROOT
ATOM      1  N   LIG    1       -1.932   1.335   0.000  0.00  0.00    -0.214 NA
ATOM      2  H   LIG    1       -1.983   2.364   0.000  0.00  0.00    +0.144 HD
ENDROOT
BRANCH   1   3
ATOM      3  C   LIG    1       -1.620  -0.132   0.000  0.00  0.00    +0.269 C 
ATOM      4  O   LIG    1       -2.604  -1.264   0.000  0.00  0.00    -0.199 OA
ENDBRANCH   1   3
TORSDOF 1
REMARK  Name = molecules/YSDQQAXHVYUZIW-QCIJIYAXSA-N.pdb
REMARK                            x       y       z     vdW  Elec       q    Type
REMARK                         _______ _______ _______ _____ _____    ______ ____
ROOT
ATOM      1  C   LIG    1       -5.753  -1.366   0.000  0.00  0.00    +0.230 C 
ENDROOT
BRANCH   1   2
ATOM      2  C   LIG    1       -6.216  -2.793   0.000  0.00  0.00    +0.371 C 
ATOM      3  O   LIG    1       -7.684  -3.104   0.000  0.00  0.00    -0.245 OA
ATOM      4  O   LIG    1       -5.213  -3.907   0.000  0.00  0.00    -0.245 OA
ENDBRANCH   1   2
BRANCH   1   5
ATOM      5  N   LIG    1       -5.289   0.060   0.000  0.00  0.00    -0.186 NA
BRANCH   5   6
ATOM      6  C   LIG    1       -3.822   0.372   0.000  0.00  0.00    +0.273 C 
ATOM      7  O   LIG    1       -2.962  -0.856   0.000  0.00  0.00    -0.199 OA
ENDBRANCH   5   6
ENDBRANCH   1   5
TORSDOF 3
REMARK  Name = molecules/YSDQQAXHVYUZIW-QCIJIYAXSA-N.pdb
REMARK                            x       y       z     vdW  Elec       q    Type
REMARK                         _______ _______ _______ _____ _____    ______ ____
ROOT
ATOM      1  N   LIG    1       30.202   6.878   0.000  0.00  0.00    -0.163 NA
ATOM      2  H   LIG    1       31.230   7.102   0.000  0.00  0.00    +0.163 HD
ENDROOT
TORSDOF 0
REMARK  Name = molecules/YSDQQAXHVYUZIW-QCIJIYAXSA-N.pdb
REMARK                            x       y       z     vdW  Elec       q    Type
REMARK                         _______ _______ _______ _____ _____    ______ ____
ROOT
ATOM      1  C   LIG    1       31.669   7.190   0.000  0.00  0.00    +0.009 C 
ATOM      2  C   LIG    1       31.626   8.358   0.000  0.00  0.00    +0.039 C 
ATOM      3  C   LIG    1       32.589   6.468   0.000  0.00  0.00    +0.162 C 
ENDROOT
BRANCH   3   4
ATOM      4  O   LIG    1       32.565   5.525   0.000  0.00  0.00    -0.503 OA
ATOM      5  H   LIG    1       32.126   5.042   0.000  0.00  0.00    +0.292 HD
ENDBRANCH   3   4
TORSDOF 1
REMARK  Name = molecules/YSDQQAXHVYUZIW-QCIJIYAXSA-N.pdb
REMARK                            x       y       z     vdW  Elec       q    Type
REMARK                         _______ _______ _______ _____ _____    ______ ____
ROOT
ATOM      1  O   HOH    1       31.477   3.521   0.000  0.00  0.00    +0.000 OA
ENDROOT
TORSDOF 0
REMARK  Name = molecules/YSDQQAXHVYUZIW-QCIJIYAXSA-N.pdb
REMARK                            x       y       z     vdW  Elec       q    Type
REMARK                         _______ _______ _______ _____ _____    ______ ____
ROOT
ATOM      1  O   HOH    1       40.891 -24.928   0.000  0.00  0.00    -0.410 OA
ATOM      2  H   HOH    0       41.604 -25.113   0.000  0.00  0.00    +0.205 HD
ATOM      3  H   HOH    0       39.693 -25.539   0.000  0.00  0.00    +0.205 HD
ENDROOT
TORSDOF 0
REMARK  Name = molecules/YSDQQAXHVYUZIW-QCIJIYAXSA-N.pdb
REMARK                            x       y       z     vdW  Elec       q    Type
REMARK                         _______ _______ _______ _____ _____    ______ ____
ROOT
ATOM      1  O   HOH    1       45.383 -26.262   0.000  0.00  0.00    -0.410 OA
ATOM      2  H   HOH    0       45.834 -25.550   0.000  0.00  0.00    +0.205 HD
ATOM      3  H   HOH    0       44.366 -26.846   0.000  0.00  0.00    +0.205 HD
ENDROOT
TORSDOF 0
REMARK  Name = molecules/YSDQQAXHVYUZIW-QCIJIYAXSA-N.pdb
REMARK                            x       y       z     vdW  Elec       q    Type
REMARK                         _______ _______ _______ _____ _____    ______ ____
ROOT
ATOM      1  O   HOH    1       52.146 -19.506   0.000  0.00  0.00    -0.253 OA
ATOM      2  H   HOH    0       51.433 -19.055   0.000  0.00  0.00    +0.253 HD
ENDROOT
TORSDOF 0
REMARK  Name = molecules/YSDQQAXHVYUZIW-QCIJIYAXSA-N.pdb
REMARK                            x       y       z     vdW  Elec       q    Type
REMARK                         _______ _______ _______ _____ _____    ______ ____
ROOT
ATOM      1  O   HOH    1       47.570 -17.635   0.000  0.00  0.00    -0.410 OA
ATOM      2  H   HOH    0       47.755 -16.922   0.000  0.00  0.00    +0.205 HD
ATOM      3  H   HOH    0       48.441 -18.180   0.000  0.00  0.00    +0.205 HD
ENDROOT
TORSDOF 0
REMARK  Name = molecules/YSDQQAXHVYUZIW-QCIJIYAXSA-N.pdb
REMARK                            x       y       z     vdW  Elec       q    Type
REMARK                         _______ _______ _______ _____ _____    ______ ____
ROOT
ATOM      1  C   LIG    1       47.410 -13.274   0.000  0.00  0.00    +0.000 C 
ENDROOT
TORSDOF 0
REMARK  Name = molecules/YSDQQAXHVYUZIW-QCIJIYAXSA-N.pdb
REMARK                            x       y       z     vdW  Elec       q    Type
REMARK                         _______ _______ _______ _____ _____    ______ ____
ROOT
ATOM      1  O   HOH    1       48.904 -13.143   0.000  0.00  0.00    -0.410 OA
ATOM      2  H   HOH    0       49.488 -14.161   0.000  0.00  0.00    +0.205 HD
ATOM      3  H   HOH    0       48.192 -12.693   0.000  0.00  0.00    +0.205 HD
ENDROOT
TORSDOF 0
REMARK  Name = molecules/YSDQQAXHVYUZIW-QCIJIYAXSA-N.pdb
REMARK                            x       y       z     vdW  Elec       q    Type
REMARK                         _______ _______ _______ _____ _____    ______ ____
ROOT
ATOM      1  O   HOH    1       44.328 -11.273   0.000  0.00  0.00    -0.410 OA
ATOM      2  H   HOH    0       44.939 -12.471   0.000  0.00  0.00    +0.205 HD
ATOM      3  H   HOH    0       44.513 -10.560   0.000  0.00  0.00    +0.205 HD
ENDROOT
TORSDOF 0
REMARK  Name = molecules/YSDQQAXHVYUZIW-QCIJIYAXSA-N.pdb
REMARK                            x       y       z     vdW  Elec       q    Type
REMARK                         _______ _______ _______ _____ _____    ______ ____
ROOT
ATOM      1  C   LIG    1       44.168  -6.912   0.000  0.00  0.00    +0.000 C 
ENDROOT
TORSDOF 0
REMARK  Name = molecules/YSDQQAXHVYUZIW-QCIJIYAXSA-N.pdb
REMARK                            x       y       z     vdW  Elec       q    Type
REMARK                         _______ _______ _______ _____ _____    ______ ____
ROOT
ATOM      1  O   LIG    1       45.635  -6.600   0.000  0.00  0.00    -0.253 OA
ATOM      2  H   LIG    1       44.950  -6.331   0.000  0.00  0.00    +0.253 HD
ENDROOT
BRANCH   1   3
ATOM      3  O   LIG    1       46.793  -6.765   0.000  0.00  0.00    -0.253 OA
ATOM      4  H   LIG    1       46.246  -7.798   0.000  0.00  0.00    +0.253 HD
ENDBRANCH   1   3
TORSDOF 1
REMARK  Name = molecules/YSDQQAXHVYUZIW-QCIJIYAXSA-N.pdb
REMARK                            x       y       z     vdW  Elec       q    Type
REMARK                         _______ _______ _______ _____ _____    ______ ____
ROOT
ATOM      1  C   LIG    1       42.201  -3.907   0.000  0.00  0.00    +0.018 C 
ATOM      2  C   LIG    1       41.426  -3.866   0.000  0.00  0.00    -0.018 C 
ENDROOT
TORSDOF 0
REMARK  Name = molecules/YSDQQAXHVYUZIW-QCIJIYAXSA-N.pdb
REMARK                            x       y       z     vdW  Elec       q    Type
REMARK                         _______ _______ _______ _____ _____    ______ ____
ROOT
ATOM      1  O   HOH    1       41.363  -5.151   0.000  0.00  0.00    -0.410 OA
ATOM      2  H   HOH    0       41.697  -6.109   0.000  0.00  0.00    +0.205 HD
ATOM      3  H   HOH    0       40.808  -5.625   0.000  0.00  0.00    +0.205 HD
ENDROOT
TORSDOF 0
REMARK  Name = molecules/YSDQQAXHVYUZIW-QCIJIYAXSA-N.pdb
REMARK                            x       y       z     vdW  Elec       q    Type
REMARK                         _______ _______ _______ _____ _____    ______ ____
ROOT
ATOM      1  C   LIG    1       39.536  -4.830   0.000  0.00  0.00    -0.000 C 
ENDROOT
TORSDOF 0
REMARK  Name = molecules/YSDQQAXHVYUZIW-QCIJIYAXSA-N.pdb
REMARK                            x       y       z     vdW  Elec       q    Type
REMARK                         _______ _______ _______ _____ _____    ______ ____
ROOT
ATOM      1  O   HOH    1       42.394  -0.238   0.000  0.00  0.00    -0.410 OA
ATOM      2  H   HOH    0       43.004  -1.436   0.000  0.00  0.00    +0.205 HD
ATOM      3  H   HOH    0       41.708   0.032   0.000  0.00  0.00    +0.205 HD
ENDROOT
TORSDOF 0
REMARK  Name = molecules/YSDQQAXHVYUZIW-QCIJIYAXSA-N.pdb
REMARK                            x       y       z     vdW  Elec       q    Type
REMARK                         _______ _______ _______ _____ _____    ______ ____
ROOT
ATOM      1  O   HOH    1       37.845   1.451   0.000  0.00  0.00    -0.410 OA
ATOM      2  H   HOH    0       37.298   0.418   0.000  0.00  0.00    +0.205 HD
ATOM      3  H   HOH    0       38.030   2.164   0.000  0.00  0.00    +0.205 HD
ENDROOT
TORSDOF 0
REMARK  Name = molecules/YSDQQAXHVYUZIW-QCIJIYAXSA-N.pdb
REMARK                            x       y       z     vdW  Elec       q    Type
REMARK                         _______ _______ _______ _____ _____    ______ ____
ROOT
ATOM      1  O   HOH    1       39.152   6.124   0.000  0.00  0.00    -0.410 OA
ATOM      2  H   HOH    0       39.081   5.099   0.000  0.00  0.00    +0.205 HD
ATOM      3  H   HOH    0       38.467   6.394   0.000  0.00  0.00    +0.205 HD
ENDROOT
TORSDOF 0
REMARK  Name = molecules/YSDQQAXHVYUZIW-QCIJIYAXSA-N.pdb
REMARK                            x       y       z     vdW  Elec       q    Type
REMARK                         _______ _______ _______ _____ _____    ______ ____
ROOT
ATOM      1  C   LIG    1       35.718   8.817   0.000  0.00  0.00    +0.000 C 
ENDROOT
TORSDOF 0
REMARK  Name = molecules/YSDQQAXHVYUZIW-QCIJIYAXSA-N.pdb
REMARK                            x       y       z     vdW  Elec       q    Type
REMARK                         _______ _______ _______ _____ _____    ______ ____
ROOT
ATOM      1  O   HOH    1       34.734   7.685   0.000  0.00  0.00    -0.410 OA
ATOM      2  H   HOH    0       35.214   6.615   0.000  0.00  0.00    +0.205 HD
ATOM      3  H   HOH    0       34.788   8.526   0.000  0.00  0.00    +0.205 HD
ENDROOT
TORSDOF 0
REMARK  Name = molecules/YSDQQAXHVYUZIW-QCIJIYAXSA-N.pdb
REMARK                            x       y       z     vdW  Elec       q    Type
REMARK                         _______ _______ _______ _____ _____    ______ ____
ROOT
ATOM      1  C   LIG    1       34.443  12.175   0.000  0.00  0.00    -0.001 C 
ATOM      2  C   LIG    1       33.523  12.896   0.000  0.00  0.00    -0.008 C 
ENDROOT
BRANCH   2   3
ATOM      3  C   LIG    1       33.059  11.470   0.000  0.00  0.00    +0.012 C 
ATOM      4  C   LIG    1       33.980  10.748   0.000  0.00  0.00    -0.004 C 
ENDBRANCH   2   3
TORSDOF 1
REMARK  Name = molecules/YSDQQAXHVYUZIW-QCIJIYAXSA-N.pdb
REMARK                            x       y       z     vdW  Elec       q    Type
REMARK                         _______ _______ _______ _____ _____    ______ ____
ROOT
ATOM      1  C   LIG    1       33.516   9.321   0.000  0.00  0.00    -0.009 C 
ATOM      2  C   LIG    1       32.596  10.043   0.000  0.00  0.00    +0.005 C 
ENDROOT
BRANCH   1   3
ATOM      3  C   LIG    1       33.053   7.895   0.000  0.00  0.00    +0.009 C 
ATOM      4  C   LIG    1       32.132   8.616   0.000  0.00  0.00    -0.005 C 
ENDBRANCH   1   3
TORSDOF 1
REMARK  Name = molecules/YSDQQAXHVYUZIW-QCIJIYAXSA-N.pdb
REMARK                            x       y       z     vdW  Elec       q    Type
REMARK                         _______ _______ _______ _____ _____    ______ ____
ROOT
ATOM      1  O   HOH    1       35.937  12.305   0.000  0.00  0.00    -0.410 OA
ATOM      2  H   HOH    0       36.521  11.288   0.000  0.00  0.00    +0.205 HD
ATOM      3  H   HOH    0       35.408  12.754   0.000  0.00  0.00    +0.205 HD
ENDROOT
TORSDOF 0
REMARK  Name = molecules/YSDQQAXHVYUZIW-QCIJIYAXSA-N.pdb
REMARK                            x       y       z     vdW  Elec       q    Type
REMARK                         _______ _______ _______ _____ _____    ______ ____
ROOT
ATOM      1  C   LIG    1       32.476  15.179   0.000  0.00  0.00    +0.000 C 
ENDROOT
TORSDOF 0
REMARK  Name = molecules/YSDQQAXHVYUZIW-QCIJIYAXSA-N.pdb
REMARK                            x       y       z     vdW  Elec       q    Type
REMARK                         _______ _______ _______ _____ _____    ______ ____
ROOT
ATOM      1  C   LIG    1       33.903  14.716   0.000  0.00  0.00    -0.005 C 
ATOM      2  C   LIG    1       34.450  15.749   0.000  0.00  0.00    +0.005 C 
ENDROOT
TORSDOF 0
REMARK  Name = molecules/YSDQQAXHVYUZIW-QCIJIYAXSA-N.pdb
REMARK                            x       y       z     vdW  Elec       q    Type
REMARK                         _______ _______ _______ _____ _____    ______ ____
ROOT
ATOM      1  O   HOH    1       31.362  14.176   0.000  0.00  0.00    -0.253 OA
ATOM      2  H   HOH    0       31.945  13.159   0.000  0.00  0.00    +0.253 HD
ENDROOT
TORSDOF 0
REMARK  Name = molecules/YSDQQAXHVYUZIW-QCIJIYAXSA-N.pdb
REMARK                            x       y       z     vdW  Elec       q    Type
REMARK                         _______ _______ _______ _____ _____    ______ ____
ROOT
ATOM      1  C   LIG    1       29.311  17.574   0.000  0.00  0.00    +0.000 C 
ENDROOT
TORSDOF 0
REMARK  Name = molecules/YSDQQAXHVYUZIW-QCIJIYAXSA-N.pdb
REMARK                            x       y       z     vdW  Elec       q    Type
REMARK                         _______ _______ _______ _____ _____    ______ ____
ROOT
ATOM      1  O   HOH    1       29.181  19.068   0.000  0.00  0.00    -0.253 OA
ATOM      2  H   HOH    0       28.730  18.355   0.000  0.00  0.00    +0.253 HD
ENDROOT
TORSDOF 0
REMARK  Name = molecules/YSDQQAXHVYUZIW-QCIJIYAXSA-N.pdb
REMARK                            x       y       z     vdW  Elec       q    Type
REMARK                         _______ _______ _______ _____ _____    ______ ____
ROOT
ATOM      1  O   HOH    1       27.310  14.492   0.000  0.00  0.00    -0.410 OA
ATOM      2  H   HOH    0       26.597  14.677   0.000  0.00  0.00    +0.205 HD
ATOM      3  H   HOH    0       28.508  15.103   0.000  0.00  0.00    +0.205 HD
ENDROOT
TORSDOF 0
REMARK  Name = molecules/YSDQQAXHVYUZIW-QCIJIYAXSA-N.pdb
REMARK                            x       y       z     vdW  Elec       q    Type
REMARK                         _______ _______ _______ _____ _____    ______ ____
ROOT
ATOM      1  C   LIG    1       22.949  14.332   0.000  0.00  0.00    +0.000 C 
ENDROOT
TORSDOF 0
REMARK  Name = molecules/YSDQQAXHVYUZIW-QCIJIYAXSA-N.pdb
REMARK                            x       y       z     vdW  Elec       q    Type
REMARK                         _______ _______ _______ _____ _____    ______ ____
ROOT
ATOM      1  O   HOH    1       22.637  15.799   0.000  0.00  0.00    -0.410 OA
ATOM      2  H   HOH    0       22.368  15.114   0.000  0.00  0.00    +0.205 HD
ATOM      3  H   HOH    0       23.835  16.410   0.000  0.00  0.00    +0.205 HD
ENDROOT
TORSDOF 0
REMARK  Name = molecules/YSDQQAXHVYUZIW-QCIJIYAXSA-N.pdb
REMARK                            x       y       z     vdW  Elec       q    Type
REMARK                         _______ _______ _______ _____ _____    ______ ____
ROOT
ATOM      1  O   HOH    1       21.076  11.381   0.000  0.00  0.00    -0.410 OA
ATOM      2  H   HOH    0       20.235  11.435   0.000  0.00  0.00    +0.205 HD
ATOM      3  H   HOH    0       22.146  11.861   0.000  0.00  0.00    +0.205 HD
ENDROOT
TORSDOF 0
REMARK  Name = molecules/YSDQQAXHVYUZIW-QCIJIYAXSA-N.pdb
REMARK                            x       y       z     vdW  Elec       q    Type
REMARK                         _______ _______ _______ _____ _____    ______ ____
ROOT
ATOM      1  O   HOH    1       16.456  12.585   0.000  0.00  0.00    -0.410 OA
ATOM      2  H   HOH    0       16.006  11.872   0.000  0.00  0.00    +0.205 HD
ATOM      3  H   HOH    0       17.473  13.168   0.000  0.00  0.00    +0.205 HD
ENDROOT
TORSDOF 0
REMARK  Name = molecules/YSDQQAXHVYUZIW-QCIJIYAXSA-N.pdb
REMARK                            x       y       z     vdW  Elec       q    Type
REMARK                         _______ _______ _______ _____ _____    ______ ____
ROOT
ATOM      1  O   HOH    1       14.586   8.009   0.000  0.00  0.00    -0.410 OA
ATOM      2  H   HOH    0       15.131   8.880   0.000  0.00  0.00    +0.205 HD
ATOM      3  H   HOH    0       13.873   8.194   0.000  0.00  0.00    +0.205 HD
ENDROOT
TORSDOF 0
REMARK  Name = molecules/YSDQQAXHVYUZIW-QCIJIYAXSA-N.pdb
REMARK                            x       y       z     vdW  Elec       q    Type
REMARK                         _______ _______ _______ _____ _____    ______ ____
ROOT
ATOM      1  C   LIG    1       15.619   7.462   0.000  0.00  0.00    +0.000 C 
ENDROOT
TORSDOF 0
REMARK  Name = molecules/YSDQQAXHVYUZIW-QCIJIYAXSA-N.pdb
REMARK                            x       y       z     vdW  Elec       q    Type
REMARK                         _______ _______ _______ _____ _____    ______ ____
ROOT
ATOM      1  O   HOH    1       10.094   9.343   0.000  0.00  0.00    -0.410 OA
ATOM      2  H   HOH    0        9.643   8.630   0.000  0.00  0.00    +0.205 HD
ATOM      3  H   HOH    0       11.111   9.926   0.000  0.00  0.00    +0.205 HD
ENDROOT
TORSDOF 0
REMARK  Name = molecules/YSDQQAXHVYUZIW-QCIJIYAXSA-N.pdb
REMARK                            x       y       z     vdW  Elec       q    Type
REMARK                         _______ _______ _______ _____ _____    ______ ____
ROOT
ATOM      1  C   LIG    1        5.294   9.662   0.000  0.00  0.00    +0.000 C 
ATOM      2  C   LIG    1        4.478   9.854   0.000  0.00  0.00    +0.000 C 
ENDROOT
TORSDOF 0
REMARK  Name = molecules/YSDQQAXHVYUZIW-QCIJIYAXSA-N.pdb
REMARK                            x       y       z     vdW  Elec       q    Type
REMARK                         _______ _______ _______ _____ _____    ______ ____
ROOT
ATOM      1  C   LIG    1        6.720   9.198   0.000  0.00  0.00    +0.000 C 
ENDROOT
TORSDOF 0
REMARK  Name = molecules/YSDQQAXHVYUZIW-QCIJIYAXSA-N.pdb
REMARK                            x       y       z     vdW  Elec       q    Type
REMARK                         _______ _______ _______ _____ _____    ______ ____
ROOT
ATOM      1  O   HOH    1        8.224   4.767   0.000  0.00  0.00    -0.410 OA
ATOM      2  H   HOH    0        7.511   4.952   0.000  0.00  0.00    +0.205 HD
ATOM      3  H   HOH    0        9.422   5.378   0.000  0.00  0.00    +0.205 HD
ENDROOT
TORSDOF 0
REMARK  Name = molecules/YSDQQAXHVYUZIW-QCIJIYAXSA-N.pdb
REMARK                            x       y       z     vdW  Elec       q    Type
REMARK                         _______ _______ _______ _____ _____    ______ ____
ROOT
ATOM      1  C   LIG    1        3.863   4.607   0.000  0.00  0.00    +0.010 C 
ATOM      2  C   LIG    1        3.822   3.832   0.000  0.00  0.00    -0.010 C 
ENDROOT
TORSDOF 0
REMARK  Name = molecules/YSDQQAXHVYUZIW-QCIJIYAXSA-N.pdb
REMARK                            x       y       z     vdW  Elec       q    Type
REMARK                         _______ _______ _______ _____ _____    ______ ____
ROOT
ATOM      1  C   LIG    1        6.716   3.680   0.000  0.00  0.00    -0.000 C 
ENDROOT
TORSDOF 0
REMARK  Name = molecules/YSDQQAXHVYUZIW-QCIJIYAXSA-N.pdb
REMARK                            x       y       z     vdW  Elec       q    Type
REMARK                         _______ _______ _______ _____ _____    ______ ____
ROOT
ATOM      1  C   LIG    1        5.289   4.143   0.000  0.00  0.00    +0.000 C 
ENDROOT
TORSDOF 0
REMARK  Name = molecules/YSDQQAXHVYUZIW-QCIJIYAXSA-N.pdb
REMARK                            x       y       z     vdW  Elec       q    Type
REMARK                         _______ _______ _______ _____ _____    ______ ____
ROOT
ATOM      1  O   HOH    1        3.159   4.233   0.000  0.00  0.00    -0.253 OA
ATOM      2  H   HOH    0        2.395   4.295   0.000  0.00  0.00    +0.253 HD
ENDROOT
TORSDOF 0
REMARK  Name = molecules/YSDQQAXHVYUZIW-QCIJIYAXSA-N.pdb
REMARK                            x       y       z     vdW  Elec       q    Type
REMARK                         _______ _______ _______ _____ _____    ______ ____
ROOT
ATOM      1  C   LIG    1        1.661   5.111   0.000  0.00  0.00    +0.279 C 
ATOM      2  O   LIG    1        2.194   4.519   0.000  0.00  0.00    -0.279 OA
ENDROOT
TORSDOF 0
REMARK  Name = molecules/YSDQQAXHVYUZIW-QCIJIYAXSA-N.pdb
REMARK                            x       y       z     vdW  Elec       q    Type
REMARK                         _______ _______ _______ _____ _____    ______ ____
ROOT
ATOM      1  C   LIG    1        2.588   7.964   0.000  0.00  0.00    +0.004 C 
ATOM      2  C   LIG    1        2.124   6.538   0.000  0.00  0.00    -0.004 C 
ENDROOT
TORSDOF 0
REMARK  Name = molecules/YSDQQAXHVYUZIW-QCIJIYAXSA-N.pdb
REMARK                            x       y       z     vdW  Elec       q    Type
REMARK                         _______ _______ _______ _____ _____    ______ ____
ROOT
ATOM      1  C   LIG    1        3.051   9.391   0.000  0.00  0.00    +0.032 C 
ATOM      2  C   LIG    1        2.170  10.604   0.000  0.00  0.00    -0.016 A 
ATOM      3  C   LIG    1        0.678  10.761   0.000  0.00  0.00    +0.006 A 
ATOM      4  C   LIG    1        0.068  12.131   0.000  0.00  0.00    +0.000 A 
ATOM      5  C   LIG    1        0.949  13.345   0.000  0.00  0.00    +0.002 A 
ATOM      6  C   LIG    1        2.441  13.188   0.000  0.00  0.00    +0.025 A 
ATOM      7  C   LIG    1        3.051  11.818   0.000  0.00  0.00    +0.048 A 
ENDROOT
BRANCH   7   8
ATOM      8  N   LIG    1        4.478  11.354   0.000  0.00  0.00    -0.266 NA
ATOM      9  H   LIG    1        5.757  11.089   0.000  0.00  0.00    +0.170 HD
ENDBRANCH   7   8
TORSDOF 1
REMARK  Name = molecules/YSDQQAXHVYUZIW-QCIJIYAXSA-N.pdb
REMARK                            x       y       z     vdW  Elec       q    Type
REMARK                         _______ _______ _______ _____ _____    ______ ____
ROOT
ATOM      1  C   LIG    1       -4.550   4.763   0.000  0.00  0.00    +0.000 C 
ENDROOT
TORSDOF 0
REMARK  Name = molecules/YSDQQAXHVYUZIW-QCIJIYAXSA-N.pdb
REMARK                            x       y       z     vdW  Elec       q    Type
REMARK                         _______ _______ _______ _____ _____    ______ ____
ROOT
ATOM      1  C   LIG    1       -1.697   3.836   0.000  0.00  0.00    +0.008 C 
ATOM      2  C   LIG    1       -2.431   4.652   0.000  0.00  0.00    -0.068 C 
ENDROOT
BRANCH   2   3
ATOM      3  C   LIG    1       -2.660   5.726   0.000  0.00  0.00    +0.035 C 
ATOM      4  C   LIG    1       -1.968   6.079   0.000  0.00  0.00    +0.000 C 
ENDBRANCH   2   3
BRANCH   2   5
ATOM      5  C   LIG    1       -3.123   4.300   0.000  0.00  0.00    +0.016 C 
ATOM      6  C   LIG    1       -2.895   3.225   0.000  0.00  0.00    +0.009 C 
ENDBRANCH   2   5
TORSDOF 2
REMARK  Name = molecules/YSDQQAXHVYUZIW-QCIJIYAXSA-N.pdb
REMARK                            x       y       z     vdW  Elec       q    Type
REMARK                         _______ _______ _______ _____ _____    ______ ____
ROOT
ATOM      1  C   LIG    1       -0.270   3.373   0.000  0.00  0.00    +0.000 C 
ENDROOT
TORSDOF 0
REMARK  Name = molecules/YSDQQAXHVYUZIW-QCIJIYAXSA-N.pdb
REMARK                            x       y       z     vdW  Elec       q    Type
REMARK                         _______ _______ _______ _____ _____    ______ ____
ROOT
ATOM      1  C   LIG    1        2.895   0.978   0.000  0.00  0.00    +0.000 C 
ENDROOT
TORSDOF 0
REMARK  Name = molecules/YSDQQAXHVYUZIW-QCIJIYAXSA-N.pdb
REMARK                            x       y       z     vdW  Elec       q    Type
REMARK                         _______ _______ _______ _____ _____    ______ ____
ROOT
ATOM      1  N   LIG    1       -1.504   7.505   0.000  0.00  0.00    -0.163 NA
ATOM      2  H   LIG    1       -2.555   7.223   0.000  0.00  0.00    +0.163 HD
ENDROOT
TORSDOF 0
REMARK  Name = molecules/YSDQQAXHVYUZIW-QCIJIYAXSA-N.pdb
REMARK                            x       y       z     vdW  Elec       q    Type
REMARK                         _______ _______ _______ _____ _____    ______ ____
ROOT
ATOM      1  C   LIG    1       -2.508   8.620   0.000  0.00  0.00    +0.218 C 
ATOM      2  N   LIG    1       -3.975   8.308   0.000  0.00  0.00    -0.109 NA
ATOM      3  N   LIG    1       -2.045  10.047   0.000  0.00  0.00    -0.109 NA
ENDROOT
TORSDOF 0
REMARK  Name = molecules/YSDQQAXHVYUZIW-QCIJIYAXSA-N.pdb
REMARK                            x       y       z     vdW  Elec       q    Type
REMARK                         _______ _______ _______ _____ _____    ______ ____
ROOT
ATOM      1  C   LIG    1       -3.358   1.799   0.000  0.00  0.00    +0.000 C 
ENDROOT
TORSDOF 0
REMARK  Name = molecules/YSDQQAXHVYUZIW-QCIJIYAXSA-N.pdb
REMARK                            x       y       z     vdW  Elec       q    Type
REMARK                         _______ _______ _______ _____ _____    ______ ____
ROOT
ATOM      1  C   LIG    1       31.165   4.988   0.000  0.00  0.00    +0.000 C 
ENDROOT
TORSDOF 0
REMARK  Name = molecules/YSDQQAXHVYUZIW-QCIJIYAXSA-N.pdb
REMARK                            x       y       z     vdW  Elec       q    Type
REMARK                         _______ _______ _______ _____ _____    ______ ____
ROOT
ATOM      1  C   LIG    1       36.768  22.882   0.000  0.00  0.00    -0.000 C 
ENDROOT
BRANCH   1   2
ATOM      2  C   LIG    1       36.304  21.456   0.000  0.00  0.00    -0.000 C 
BRANCH   2   3
ATOM      3  C   LIG    1       35.841  20.029   0.000  0.00  0.00    -0.000 C 
BRANCH   3   5
ATOM      4  C   LIG    1       34.913  17.176   0.000  0.00  0.00    -0.000 C 
ATOM      5  C   LIG    1       35.377  18.602   0.000  0.00  0.00    -0.000 C 
ENDBRANCH   3   5
ENDBRANCH   2   3
ENDBRANCH   1   2
BRANCH   1   6
ATOM      6  C   LIG    1       37.231  24.309   0.000  0.00  0.00    -0.000 C 
BRANCH   6   7
ATOM      7  C   LIG    1       37.695  25.735   0.000  0.00  0.00    -0.000 C 
BRANCH   7   8
ATOM      8  C   LIG    1       38.158  27.162   0.000  0.00  0.00    -0.003 C 
ATOM      9  C   LIG    1       38.622  28.588   0.000  0.00  0.00    +0.004 C 
ENDBRANCH   7   8
ENDBRANCH   6   7
ENDBRANCH   1   6
TORSDOF 6
REMARK  Name = molecules/YSDQQAXHVYUZIW-QCIJIYAXSA-N.pdb
REMARK                            x       y       z     vdW  Elec       q    Type
REMARK                         _______ _______ _______ _____ _____    ______ ____
ROOT
ATOM      1  O   HOH    1       32.529   5.961   0.000  0.00  0.00    +0.000 OA
ENDROOT
TORSDOF 0
REMARK  Name = molecules/YSDQQAXHVYUZIW-QCIJIYAXSA-N.pdb
REMARK                            x       y       z     vdW  Elec       q    Type
REMARK                         _______ _______ _______ _____ _____    ______ ____
ROOT
ATOM      1  H   UNK    1       38.776 -27.866   0.000  0.00  0.00    +0.000 HD
ENDROOT
TORSDOF 0
REMARK  Name = molecules/YSDQQAXHVYUZIW-QCIJIYAXSA-N.pdb
REMARK                            x       y       z     vdW  Elec       q    Type
REMARK                         _______ _______ _______ _____ _____    ______ ____
ROOT
ATOM      1  H   UNK    1       46.055 -22.297   0.000  0.00  0.00    +0.000 HD
ENDROOT
TORSDOF 0
REMARK  Name = molecules/YSDQQAXHVYUZIW-QCIJIYAXSA-N.pdb
REMARK                            x       y       z     vdW  Elec       q    Type
REMARK                         _______ _______ _______ _____ _____    ______ ____
ROOT
ATOM      1  H   UNK    1       50.728 -23.604   0.000  0.00  0.00    +0.000 HD
ENDROOT
TORSDOF 0
REMARK  Name = molecules/YSDQQAXHVYUZIW-QCIJIYAXSA-N.pdb
REMARK                            x       y       z     vdW  Elec       q    Type
REMARK                         _______ _______ _______ _____ _____    ______ ____
ROOT
ATOM      1  H   UNK    1       38.456   0.253   0.000  0.00  0.00    +0.000 HD
ENDROOT
TORSDOF 0
REMARK  Name = molecules/YSDQQAXHVYUZIW-QCIJIYAXSA-N.pdb
REMARK                            x       y       z     vdW  Elec       q    Type
REMARK                         _______ _______ _______ _____ _____    ______ ____
ROOT
ATOM      1  H   UNK    1       33.148  17.779   0.000  0.00  0.00    +0.000 HD
ENDROOT
TORSDOF 0
REMARK  Name = molecules/YSDQQAXHVYUZIW-QCIJIYAXSA-N.pdb
REMARK                            x       y       z     vdW  Elec       q    Type
REMARK                         _______ _______ _______ _____ _____    ______ ____
ROOT
ATOM      1  H   UNK    1        4.892   6.799   0.000  0.00  0.00    +0.000 HD
ENDROOT
TORSDOF 0
REMARK  Name = molecules/YSDQQAXHVYUZIW-QCIJIYAXSA-N.pdb
REMARK                            x       y       z     vdW  Elec       q    Type
REMARK                         _______ _______ _______ _____ _____    ______ ____
ROOT
ATOM      1  H   UNK    1        4.665   7.078   0.000  0.00  0.00    +0.000 HD
ENDROOT
TORSDOF 0
REMARK  Name = molecules/YSDQQAXHVYUZIW-QCIJIYAXSA-N.pdb
REMARK                            x       y       z     vdW  Elec       q    Type
REMARK                         _______ _______ _______ _____ _____    ______ ____
ROOT
ATOM      1  H   UNK    1       -0.667   6.028   0.000  0.00  0.00    +0.000 HD
ENDROOT
TORSDOF 0
REMARK  Name = molecules/YSDQQAXHVYUZIW-QCIJIYAXSA-N.pdb
REMARK                            x       y       z     vdW  Elec       q    Type
REMARK                         _______ _______ _______ _____ _____    ______ ____
ROOT
ATOM      1  H   UNK    1        4.853  -1.075   0.000  0.00  0.00    +0.000 HD
ENDROOT
TORSDOF 0
REMARK  Name = molecules/YSDQQAXHVYUZIW-QCIJIYAXSA-N.pdb
REMARK                            x       y       z     vdW  Elec       q    Type
REMARK                         _______ _______ _______ _____ _____    ______ ____
ROOT
ATOM      1  H   UNK    1       -6.293   1.175   0.000  0.00  0.00    +0.000 HD
ENDROOT
TORSDOF 0
REMARK  Name = molecules/YSDQQAXHVYUZIW-QCIJIYAXSA-N.pdb
REMARK                            x       y       z     vdW  Elec       q    Type
REMARK                         _______ _______ _______ _____ _____    ______ ____
ROOT
ATOM      1  H   UNK    1       -5.676  -5.334   0.000  0.00  0.00    +0.000 HD
ENDROOT
TORSDOF 0
REMARK  Name = molecules/YSDQQAXHVYUZIW-QCIJIYAXSA-N.pdb
REMARK                            x       y       z     vdW  Elec       q    Type
REMARK                         _______ _______ _______ _____ _____    ______ ____
ROOT
ATOM      1  H   UNK    1       29.341   8.107   0.000  0.00  0.00    +0.000 HD
ENDROOT
TORSDOF 0
REMARK  Name = molecules/YSDQQAXHVYUZIW-QCIJIYAXSA-N.pdb
REMARK                            x       y       z     vdW  Elec       q    Type
REMARK                         _______ _______ _______ _____ _____    ______ ____
ROOT
ATOM      1  H   UNK    1       32.903   3.057   0.000  0.00  0.00    +0.000 HD
ENDROOT
TORSDOF 0
REMARK  Name = molecules/YSDQQAXHVYUZIW-QCIJIYAXSA-N.pdb
REMARK                            x       y       z     vdW  Elec       q    Type
REMARK                         _______ _______ _______ _____ _____    ______ ____
ROOT
ATOM      1  H   UNK    1       40.968 -34.176   0.000  0.00  0.00    +0.000 HD
ENDROOT
TORSDOF 0
REMARK  Name = molecules/YSDQQAXHVYUZIW-QCIJIYAXSA-N.pdb
REMARK                            x       y       z     vdW  Elec       q    Type
REMARK                         _______ _______ _______ _____ _____    ______ ____
ROOT
ATOM      1  H   UNK    1       44.472 -30.246   0.000  0.00  0.00    +0.000 HD
ENDROOT
TORSDOF 0
REMARK  Name = molecules/YSDQQAXHVYUZIW-QCIJIYAXSA-N.pdb
REMARK                            x       y       z     vdW  Elec       q    Type
REMARK                         _______ _______ _______ _____ _____    ______ ____
ROOT
ATOM      1  H   UNK    1       53.420 -15.644   0.000  0.00  0.00    +0.000 HD
ENDROOT
TORSDOF 0
REMARK  Name = molecules/YSDQQAXHVYUZIW-QCIJIYAXSA-N.pdb
REMARK                            x       y       z     vdW  Elec       q    Type
REMARK                         _______ _______ _______ _____ _____    ______ ____
ROOT
ATOM      1  H   UNK    1       50.178  -9.281   0.000  0.00  0.00    +0.000 HD
ENDROOT
TORSDOF 0
REMARK  Name = molecules/YSDQQAXHVYUZIW-QCIJIYAXSA-N.pdb
REMARK                            x       y       z     vdW  Elec       q    Type
REMARK                         _______ _______ _______ _____ _____    ______ ____
ROOT
ATOM      1  H   UNK    1       41.310 -11.504   0.000  0.00  0.00    +0.000 HD
ENDROOT
TORSDOF 0
REMARK  Name = molecules/YSDQQAXHVYUZIW-QCIJIYAXSA-N.pdb
REMARK                            x       y       z     vdW  Elec       q    Type
REMARK                         _______ _______ _______ _____ _____    ______ ____
ROOT
ATOM      1  H   UNK    1       49.022  -4.758   0.000  0.00  0.00    +0.000 HD
ENDROOT
TORSDOF 0
REMARK  Name = molecules/YSDQQAXHVYUZIW-QCIJIYAXSA-N.pdb
REMARK                            x       y       z     vdW  Elec       q    Type
REMARK                         _______ _______ _______ _____ _____    ______ ____
ROOT
ATOM      1  H   UNK    1       38.109  -4.366   0.000  0.00  0.00    +0.000 HD
ENDROOT
TORSDOF 0
REMARK  Name = molecules/YSDQQAXHVYUZIW-QCIJIYAXSA-N.pdb
REMARK                            x       y       z     vdW  Elec       q    Type
REMARK                         _______ _______ _______ _____ _____    ______ ____
ROOT
ATOM      1  H   UNK    1       44.354   2.068   0.000  0.00  0.00    +0.000 HD
ENDROOT
TORSDOF 0
REMARK  Name = molecules/YSDQQAXHVYUZIW-QCIJIYAXSA-N.pdb
REMARK                            x       y       z     vdW  Elec       q    Type
REMARK                         _______ _______ _______ _____ _____    ______ ____
ROOT
ATOM      1  H   UNK    1       45.392   7.040   0.000  0.00  0.00    +0.000 HD
ENDROOT
TORSDOF 0
REMARK  Name = molecules/YSDQQAXHVYUZIW-QCIJIYAXSA-N.pdb
REMARK                            x       y       z     vdW  Elec       q    Type
REMARK                         _______ _______ _______ _____ _____    ______ ____
ROOT
ATOM      1  H   UNK    1       34.016   6.005   0.000  0.00  0.00    +0.000 HD
ENDROOT
TORSDOF 0
REMARK  Name = molecules/YSDQQAXHVYUZIW-QCIJIYAXSA-N.pdb
REMARK                            x       y       z     vdW  Elec       q    Type
REMARK                         _______ _______ _______ _____ _____    ______ ____
ROOT
ATOM      1  H   UNK    1       32.708  11.543   0.000  0.00  0.00    +0.000 HD
ENDROOT
TORSDOF 0
REMARK  Name = molecules/YSDQQAXHVYUZIW-QCIJIYAXSA-N.pdb
REMARK                            x       y       z     vdW  Elec       q    Type
REMARK                         _______ _______ _______ _____ _____    ______ ____
ROOT
ATOM      1  H   UNK    1       30.154   8.644   0.000  0.00  0.00    +0.000 HD
ENDROOT
TORSDOF 0
REMARK  Name = molecules/YSDQQAXHVYUZIW-QCIJIYAXSA-N.pdb
REMARK                            x       y       z     vdW  Elec       q    Type
REMARK                         _______ _______ _______ _____ _____    ______ ____
ROOT
ATOM      1  H   UNK    1       31.340   6.886   0.000  0.00  0.00    +0.000 HD
ENDROOT
TORSDOF 0
REMARK  Name = molecules/YSDQQAXHVYUZIW-QCIJIYAXSA-N.pdb
REMARK                            x       y       z     vdW  Elec       q    Type
REMARK                         _______ _______ _______ _____ _____    ______ ____
ROOT
ATOM      1  H   UNK    1       35.964  15.612   0.000  0.00  0.00    +0.000 HD
ENDROOT
TORSDOF 0
REMARK  Name = molecules/YSDQQAXHVYUZIW-QCIJIYAXSA-N.pdb
REMARK                            x       y       z     vdW  Elec       q    Type
REMARK                         _______ _______ _______ _____ _____    ______ ____
ROOT
ATOM      1  H   UNK    1       40.724  13.865   0.000  0.00  0.00    +0.000 HD
ENDROOT
TORSDOF 0
REMARK  Name = molecules/YSDQQAXHVYUZIW-QCIJIYAXSA-N.pdb
REMARK                            x       y       z     vdW  Elec       q    Type
REMARK                         _______ _______ _______ _____ _____    ______ ____
ROOT
ATOM      1  H   UNK    1       27.620  23.855   0.000  0.00  0.00    +0.000 HD
ENDROOT
TORSDOF 0
REMARK  Name = molecules/YSDQQAXHVYUZIW-QCIJIYAXSA-N.pdb
REMARK                            x       y       z     vdW  Elec       q    Type
REMARK                         _______ _______ _______ _____ _____    ______ ____
ROOT
ATOM      1  H   UNK    1       25.690  22.116   0.000  0.00  0.00    +0.000 HD
ENDROOT
TORSDOF 0
REMARK  Name = molecules/YSDQQAXHVYUZIW-QCIJIYAXSA-N.pdb
REMARK                            x       y       z     vdW  Elec       q    Type
REMARK                         _______ _______ _______ _____ _____    ______ ____
ROOT
ATOM      1  H   UNK    1       26.261   9.313   0.000  0.00  0.00    +0.000 HD
ENDROOT
TORSDOF 0
REMARK  Name = molecules/YSDQQAXHVYUZIW-QCIJIYAXSA-N.pdb
REMARK                            x       y       z     vdW  Elec       q    Type
REMARK                         _______ _______ _______ _____ _____    ______ ____
ROOT
ATOM      1  H   UNK    1       17.367  16.568   0.000  0.00  0.00    +0.000 HD
ENDROOT
TORSDOF 0
REMARK  Name = molecules/YSDQQAXHVYUZIW-QCIJIYAXSA-N.pdb
REMARK                            x       y       z     vdW  Elec       q    Type
REMARK                         _______ _______ _______ _____ _____    ______ ____
ROOT
ATOM      1  H   UNK    1        4.830   8.235   0.000  0.00  0.00    +0.000 HD
ENDROOT
TORSDOF 0
REMARK  Name = molecules/YSDQQAXHVYUZIW-QCIJIYAXSA-N.pdb
REMARK                            x       y       z     vdW  Elec       q    Type
REMARK                         _______ _______ _______ _____ _____    ______ ____
ROOT
ATOM      1  H   UNK    1        7.007  10.671   0.000  0.00  0.00    +0.000 HD
ENDROOT
TORSDOF 0
REMARK  Name = molecules/YSDQQAXHVYUZIW-QCIJIYAXSA-N.pdb
REMARK                            x       y       z     vdW  Elec       q    Type
REMARK                         _______ _______ _______ _____ _____    ______ ____
ROOT
ATOM      1  H   UNK    1        6.087   7.839   0.000  0.00  0.00    +0.000 HD
ENDROOT
TORSDOF 0
REMARK  Name = molecules/YSDQQAXHVYUZIW-QCIJIYAXSA-N.pdb
REMARK                            x       y       z     vdW  Elec       q    Type
REMARK                         _______ _______ _______ _____ _____    ______ ____
ROOT
ATOM      1  H   UNK    1        5.185   2.647   0.000  0.00  0.00    +0.000 HD
ENDROOT
TORSDOF 0
REMARK  Name = molecules/YSDQQAXHVYUZIW-QCIJIYAXSA-N.pdb
REMARK                            x       y       z     vdW  Elec       q    Type
REMARK                         _______ _______ _______ _____ _____    ______ ____
ROOT
ATOM      1  H   UNK    1        5.691  12.236   0.000  0.00  0.00    +0.000 HD
ENDROOT
TORSDOF 0
REMARK  Name = molecules/YSDQQAXHVYUZIW-QCIJIYAXSA-N.pdb
REMARK                            x       y       z     vdW  Elec       q    Type
REMARK                         _______ _______ _______ _____ _____    ______ ____
ROOT
ATOM      1  H   UNK    1       -5.976   5.227   0.000  0.00  0.00    +0.000 HD
ENDROOT
TORSDOF 0
REMARK  Name = molecules/YSDQQAXHVYUZIW-QCIJIYAXSA-N.pdb
REMARK                            x       y       z     vdW  Elec       q    Type
REMARK                         _______ _______ _______ _____ _____    ______ ____
ROOT
ATOM      1  H   UNK    1       -5.184   3.404   0.000  0.00  0.00    +0.000 HD
ENDROOT
TORSDOF 0
REMARK  Name = molecules/YSDQQAXHVYUZIW-QCIJIYAXSA-N.pdb
REMARK                            x       y       z     vdW  Elec       q    Type
REMARK                         _______ _______ _______ _____ _____    ______ ____
ROOT
ATOM      1  H   UNK    1       -4.628   6.261   0.000  0.00  0.00    +0.000 HD
ENDROOT
TORSDOF 0
REMARK  Name = molecules/YSDQQAXHVYUZIW-QCIJIYAXSA-N.pdb
REMARK                            x       y       z     vdW  Elec       q    Type
REMARK                         _______ _______ _______ _____ _____    ______ ____
ROOT
ATOM      1  H   UNK    1       -1.063   5.196   0.000  0.00  0.00    +0.000 HD
ENDROOT
TORSDOF 0
REMARK  Name = molecules/YSDQQAXHVYUZIW-QCIJIYAXSA-N.pdb
REMARK                            x       y       z     vdW  Elec       q    Type
REMARK                         _______ _______ _______ _____ _____    ______ ____
ROOT
ATOM      1  H   UNK    1       -0.556   1.900   0.000  0.00  0.00    +0.000 HD
ENDROOT
TORSDOF 0
REMARK  Name = molecules/YSDQQAXHVYUZIW-QCIJIYAXSA-N.pdb
REMARK                            x       y       z     vdW  Elec       q    Type
REMARK                         _______ _______ _______ _____ _____    ______ ____
ROOT
ATOM      1  H   UNK    1       -4.132   6.012   0.000  0.00  0.00    +0.000 HD
ENDROOT
TORSDOF 0
REMARK  Name = molecules/YSDQQAXHVYUZIW-QCIJIYAXSA-N.pdb
REMARK                            x       y       z     vdW  Elec       q    Type
REMARK                         _______ _______ _______ _____ _____    ______ ____
ROOT
ATOM      1  H   UNK    1        4.322   0.515   0.000  0.00  0.00    +0.000 HD
ENDROOT
TORSDOF 0
REMARK  Name = molecules/YSDQQAXHVYUZIW-QCIJIYAXSA-N.pdb
REMARK                            x       y       z     vdW  Elec       q    Type
REMARK                         _______ _______ _______ _____ _____    ______ ____
ROOT
ATOM      1  H   UNK    1        2.395   4.295   0.000  0.00  0.00    +0.000 HD
ENDROOT
TORSDOF 0
REMARK  Name = molecules/YSDQQAXHVYUZIW-QCIJIYAXSA-N.pdb
REMARK                            x       y       z     vdW  Elec       q    Type
REMARK                         _______ _______ _______ _____ _____    ______ ____
ROOT
ATOM      1  H   UNK    1        8.990  -6.311   0.000  0.00  0.00    +0.000 HD
ENDROOT
TORSDOF 0
REMARK  Name = molecules/YSDQQAXHVYUZIW-QCIJIYAXSA-N.pdb
REMARK                            x       y       z     vdW  Elec       q    Type
REMARK                         _______ _______ _______ _____ _____    ______ ____
ROOT
ATOM      1  H   UNK    1       10.595  -1.369   0.000  0.00  0.00    +0.000 HD
ENDROOT
TORSDOF 0
REMARK  Name = molecules/YSDQQAXHVYUZIW-QCIJIYAXSA-N.pdb
REMARK                            x       y       z     vdW  Elec       q    Type
REMARK                         _______ _______ _______ _____ _____    ______ ____
ROOT
ATOM      1  H   UNK    1        8.054  -1.909   0.000  0.00  0.00    +0.000 HD
ENDROOT
TORSDOF 0
REMARK  Name = molecules/YSDQQAXHVYUZIW-QCIJIYAXSA-N.pdb
REMARK                            x       y       z     vdW  Elec       q    Type
REMARK                         _______ _______ _______ _____ _____    ______ ____
ROOT
ATOM      1  H   UNK    1       12.334  -3.300   0.000  0.00  0.00    +0.000 HD
ENDROOT
TORSDOF 0
REMARK  Name = molecules/YSDQQAXHVYUZIW-QCIJIYAXSA-N.pdb
REMARK                            x       y       z     vdW  Elec       q    Type
REMARK                         _______ _______ _______ _____ _____    ______ ____
ROOT
ATOM      1  H   UNK    1       -0.657  -2.022   0.000  0.00  0.00    +0.000 HD
ENDROOT
TORSDOF 0
REMARK  Name = molecules/YSDQQAXHVYUZIW-QCIJIYAXSA-N.pdb
REMARK                            x       y       z     vdW  Elec       q    Type
REMARK                         _______ _______ _______ _____ _____    ______ ____
ROOT
ATOM      1  H   UNK    1        0.093   0.877   0.000  0.00  0.00    +0.000 HD
ENDROOT
TORSDOF 0
REMARK  Name = molecules/YSDQQAXHVYUZIW-QCIJIYAXSA-N.pdb
REMARK                            x       y       z     vdW  Elec       q    Type
REMARK                         _______ _______ _______ _____ _____    ______ ____
ROOT
ATOM      1  H   UNK    1       -0.470   6.157   0.000  0.00  0.00    +0.000 HD
ENDROOT
TORSDOF 0
REMARK  Name = molecules/YSDQQAXHVYUZIW-QCIJIYAXSA-N.pdb
REMARK                            x       y       z     vdW  Elec       q    Type
REMARK                         _______ _______ _______ _____ _____    ______ ____
ROOT
ATOM      1  H   UNK    1       -0.037   7.817   0.000  0.00  0.00    +0.000 HD
ENDROOT
TORSDOF 0
REMARK  Name = molecules/YSDQQAXHVYUZIW-QCIJIYAXSA-N.pdb
REMARK                            x       y       z     vdW  Elec       q    Type
REMARK                         _______ _______ _______ _____ _____    ______ ____
ROOT
ATOM      1  H   UNK    1       -4.979   9.423   0.000  0.00  0.00    +0.000 HD
ENDROOT
TORSDOF 0
REMARK  Name = molecules/YSDQQAXHVYUZIW-QCIJIYAXSA-N.pdb
REMARK                            x       y       z     vdW  Elec       q    Type
REMARK                         _______ _______ _______ _____ _____    ______ ____
ROOT
ATOM      1  H   UNK    1       -4.770   7.036   0.000  0.00  0.00    +0.000 HD
ENDROOT
TORSDOF 0
REMARK  Name = molecules/YSDQQAXHVYUZIW-QCIJIYAXSA-N.pdb
REMARK                            x       y       z     vdW  Elec       q    Type
REMARK                         _______ _______ _______ _____ _____    ______ ____
ROOT
ATOM      1  H   UNK    1       -3.048  11.161   0.000  0.00  0.00    +0.000 HD
ENDROOT
TORSDOF 0
REMARK  Name = molecules/YSDQQAXHVYUZIW-QCIJIYAXSA-N.pdb
REMARK                            x       y       z     vdW  Elec       q    Type
REMARK                         _______ _______ _______ _____ _____    ______ ____
ROOT
ATOM      1  H   UNK    1       -4.785   2.263   0.000  0.00  0.00    +0.000 HD
ENDROOT
TORSDOF 0
REMARK  Name = molecules/YSDQQAXHVYUZIW-QCIJIYAXSA-N.pdb
REMARK                            x       y       z     vdW  Elec       q    Type
REMARK                         _______ _______ _______ _____ _____    ______ ____
ROOT
ATOM      1  H   UNK    1       33.404   7.821   0.000  0.00  0.00    +0.000 HD
ENDROOT
TORSDOF 0
REMARK  Name = molecules/YSDQQAXHVYUZIW-QCIJIYAXSA-N.pdb
REMARK                            x       y       z     vdW  Elec       q    Type
REMARK                         _______ _______ _______ _____ _____    ______ ____
ROOT
ATOM      1  H   UNK    1       31.169  10.506   0.000  0.00  0.00    +0.000 HD
ENDROOT
TORSDOF 0
REMARK  Name = molecules/YSDQQAXHVYUZIW-QCIJIYAXSA-N.pdb
REMARK                            x       y       z     vdW  Elec       q    Type
REMARK                         _______ _______ _______ _____ _____    ______ ____
ROOT
ATOM      1  H   UNK    1       33.868   9.248   0.000  0.00  0.00    +0.000 HD
ENDROOT
TORSDOF 0
