REMARK  Name = molecules/YSIITVVESCNIPR-NSHDSACASA-N.pdb
REMARK                            x       y       z     vdW  Elec       q    Type
REMARK                         _______ _______ _______ _____ _____    ______ ____
ROOT
ATOM      1  C   LIG    1       -0.991  -0.079  -0.372  0.00  0.00    +0.044 A 
ATOM      2  C   LIG    1       -1.374   0.419   0.845  0.00  0.00    +0.062 A 
ATOM      3  C   LIG    1       -2.720   0.422   1.214  0.00  0.00    +0.166 A 
ATOM      4  C   LIG    1       -3.688  -0.073   0.371  0.00  0.00    +0.204 A 
ATOM      5  C   LIG    1       -3.274  -0.569  -0.849  0.00  0.00    +0.166 A 
ATOM      6  C   LIG    1       -1.953  -0.574  -1.215  0.00  0.00    +0.062 A 
ENDROOT
BRANCH   1   7
ATOM      7  C   LIG    1        0.422  -0.067  -0.714  0.00  0.00    +0.245 C 
ATOM      8  N   LIG    1        1.475   0.261   0.174  0.00  0.00    -0.307 N 
ATOM      9  H   LIG    1        1.245   0.518   1.164  0.00  0.00    +0.149 HD
ATOM     10  O   LIG    1        0.679  -0.388  -1.932  0.00  0.00    -0.270 OA
BRANCH   8  11
ATOM     11  C   LIG    1        2.824   0.225  -0.326  0.00  0.00    +0.087 C 
ATOM     12  C   LIG    1        3.708  -0.704   0.436  0.00  0.00    +0.103 C 
ATOM     13  N   LIG    1        5.011  -0.823  -0.107  0.00  0.00    -0.314 NA
ATOM     14  H   LIG    1        5.666  -1.390   0.443  0.00  0.00    +0.122 HD
ATOM     15  C   LIG    1        5.601   0.296  -0.704  0.00  0.00    +0.081 C 
ATOM     16  C   LIG    1        4.753   1.435  -1.084  0.00  0.00    +0.017 C 
ATOM     17  C   LIG    1        3.490   1.595  -0.266  0.00  0.00    +0.025 C 
ENDBRANCH   8  11
ENDBRANCH   1   7
BRANCH   3  18
ATOM     18  O   LIG    1       -3.123   0.925   2.447  0.00  0.00    -0.491 OA
ATOM     19  C   LIG    1       -2.112   1.441   3.327  0.00  0.00    +0.277 C 
ENDBRANCH   3  18
BRANCH   4  20
ATOM     20  O   LIG    1       -5.037  -0.081   0.718  0.00  0.00    -0.488 OA
ATOM     21  C   LIG    1       -5.502  -1.249   1.394  0.00  0.00    +0.277 C 
ENDBRANCH   4  20
BRANCH   5  22
ATOM     22  O   LIG    1       -4.268  -1.074  -1.708  0.00  0.00    -0.491 OA
ATOM     23  C   LIG    1       -3.858  -1.583  -2.954  0.00  0.00    +0.277 C 
ENDBRANCH   5  22
TORSDOF 5
