REMARK  Name = molecules/YTGJWQPHMWSCST-GSVOUGTGSA-N.pdb
REMARK                            x       y       z     vdW  Elec       q    Type
REMARK                         _______ _______ _______ _____ _____    ______ ____
ROOT
ATOM      1  C   LIG    1       -0.613  -0.619  -0.327  0.00  0.00    +0.226 C 
ATOM      2  N   LIG    1        0.487   0.177   0.102  0.00  0.00    -0.304 N 
ATOM      3  H   LIG    1        0.372   1.020   0.696  0.00  0.00    +0.149 HD
ATOM      4  O   LIG    1       -0.375  -1.624  -1.046  0.00  0.00    -0.275 OA
ENDROOT
BRANCH   1   6
ATOM      5  C   LIG    1       -2.502   0.998  -0.462  0.00  0.00    +0.028 C 
ATOM      6  C   LIG    1       -2.003  -0.336   0.020  0.00  0.00    +0.126 C 
BRANCH   6   7
ATOM      7  S   LIG    1       -3.054  -1.701  -0.535  0.00  0.00    -0.166 S 
ATOM      8  H   LIG    1       -2.260  -2.879  -0.634  0.00  0.00    +0.102 HD
ENDBRANCH   6   7
ENDBRANCH   1   6
BRANCH   2   9
ATOM      9  C   LIG    1        1.833  -0.182  -0.291  0.00  0.00    +0.224 C 
BRANCH   9  10
ATOM     10  C   LIG    1        2.847   0.734   0.229  0.00  0.00    +0.322 C 
ATOM     11  O   LIG    1        2.484   1.708   0.940  0.00  0.00    -0.249 OA
BRANCH  10  12
ATOM     12  O   LIG    1        4.178   0.535  -0.053  0.00  0.00    -0.480 OA
ATOM     13  H   LIG    1        4.825   0.086   0.563  0.00  0.00    +0.295 HD
ENDBRANCH  10  12
ENDBRANCH   9  10
ENDBRANCH   2   9
TORSDOF 5
