REMARK  Name = molecules/YTRMTPPVNRALON-UHFFFAOYSA-N.pdb
REMARK                            x       y       z     vdW  Elec       q    Type
REMARK                         _______ _______ _______ _____ _____    ______ ____
ROOT
ATOM      1  C   LIG    1       -1.527   0.994  -0.651  0.00  0.00    +0.070 A 
ATOM      2  C   LIG    1       -2.139  -0.145  -0.217  0.00  0.00    +0.014 A 
ATOM      3  C   LIG    1       -1.369  -1.172   0.330  0.00  0.00    +0.072 A 
ATOM      4  C   LIG    1       -1.941  -2.338   0.780  0.00  0.00    +0.028 A 
ATOM      5  C   LIG    1       -3.322  -2.517   0.697  0.00  0.00    +0.002 A 
ATOM      6  C   LIG    1       -4.086  -1.505   0.159  0.00  0.00    +0.001 A 
ATOM      7  N   LIG    1       -0.045  -1.043   0.428  0.00  0.00    -0.247 NA
ATOM      8  C   LIG    1        0.620   0.048   0.021  0.00  0.00    +0.072 A 
ATOM      9  C   LIG    1       -3.500  -0.326  -0.297  0.00  0.00    +0.011 A 
ATOM     10  C   LIG    1       -0.129   1.059  -0.516  0.00  0.00    +0.044 A 
ENDROOT
BRANCH   8  11
ATOM     11  C   LIG    1        2.062   0.096   0.169  0.00  0.00    +0.000 A 
ATOM     12  C   LIG    1        2.737  -0.992   0.732  0.00  0.00    +0.010 A 
ATOM     13  C   LIG    1        4.097  -1.010   0.899  0.00  0.00    +0.001 A 
ATOM     14  C   LIG    1        4.813   0.082   0.499  0.00  0.00    +0.000 A 
ATOM     15  C   LIG    1        4.159   1.162  -0.058  0.00  0.00    +0.001 A 
ATOM     16  C   LIG    1        2.784   1.196  -0.234  0.00  0.00    +0.010 A 
ENDBRANCH   8  11
BRANCH   1  17
ATOM     17  C   LIG    1       -2.252   2.103  -1.229  0.00  0.00    +0.338 C 
ATOM     18  O   LIG    1       -3.468   2.190  -1.410  0.00  0.00    -0.245 OA
BRANCH  17  19
ATOM     19  O   LIG    1       -1.517   3.252  -1.653  0.00  0.00    -0.477 OA
ATOM     20  H   LIG    1       -1.615   4.124  -1.143  0.00  0.00    +0.295 HD
ENDBRANCH  17  19
ENDBRANCH   1  17
TORSDOF 3
