REMARK  Name = molecules/YUGZHQHSNYIFLG-FQEVSTJZSA-N.pdb
REMARK                            x       y       z     vdW  Elec       q    Type
REMARK                         _______ _______ _______ _____ _____    ______ ____
ROOT
ATOM      1  C   LIG    1       -0.552  -0.502   1.014  0.00  0.00    +0.229 C 
ENDROOT
BRANCH   1   2
ATOM      2  C   LIG    1        0.882  -0.543   1.588  0.00  0.00    +0.279 C 
BRANCH   2   3
ATOM      3  O   LIG    1        1.798  -0.607   0.531  0.00  0.00    -0.446 OA
BRANCH   3   4
ATOM      4  C   LIG    1        3.176  -0.657   0.816  0.00  0.00    +0.405 C 
ATOM      5  O   LIG    1        3.478  -0.639   2.018  0.00  0.00    -0.226 OA
ATOM      6  N   LIG    1        4.123  -0.722  -0.224  0.00  0.00    -0.251 N 
ATOM      7  H   LIG    1        3.731  -0.731  -1.235  0.00  0.00    +0.158 HD
BRANCH   6   8
ATOM      8  C   LIG    1        5.526  -0.779  -0.085  0.00  0.00    +0.036 A 
ATOM      9  C   LIG    1        6.168  -0.889   1.121  0.00  0.00    +0.023 A 
ATOM     10  C   LIG    1        7.561  -0.949   1.191  0.00  0.00    +0.002 A 
ATOM     11  C   LIG    1        8.316  -0.898   0.060  0.00  0.00    +0.000 A 
ATOM     12  C   LIG    1        7.685  -0.788  -1.149  0.00  0.00    +0.002 A 
ATOM     13  C   LIG    1        6.337  -0.730  -1.224  0.00  0.00    +0.023 A 
ENDBRANCH   6   8
ENDBRANCH   3   4
ENDBRANCH   2   3
ENDBRANCH   1   2
BRANCH   1  14
ATOM     14  C   LIG    1       -0.729  -1.770   0.220  0.00  0.00    +0.132 C 
BRANCH  14  15
ATOM     15  N   LIG    1       -1.984  -1.858  -0.445  0.00  0.00    -0.299 NA
ATOM     16  C   LIG    1       -3.127  -1.448   0.295  0.00  0.00    +0.084 C 
ATOM     17  C   LIG    1       -4.342  -2.316   0.095  0.00  0.00    +0.015 C 
ATOM     18  C   LIG    1       -3.891  -3.744   0.430  0.00  0.00    +0.002 C 
ATOM     19  C   LIG    1       -2.947  -4.130  -0.662  0.00  0.00    +0.015 C 
ATOM     20  C   LIG    1       -2.146  -3.031  -1.242  0.00  0.00    +0.084 C 
ENDBRANCH  14  15
ENDBRANCH   1  14
BRANCH   1  21
ATOM     21  O   LIG    1       -0.634   0.641   0.212  0.00  0.00    -0.442 OA
BRANCH  21  22
ATOM     22  C   LIG    1       -1.519   1.695   0.536  0.00  0.00    +0.405 C 
ATOM     23  O   LIG    1       -2.193   1.520   1.564  0.00  0.00    -0.226 OA
ATOM     24  N   LIG    1       -1.544   2.814  -0.326  0.00  0.00    -0.251 N 
ATOM     25  H   LIG    1       -0.887   2.804  -1.183  0.00  0.00    +0.158 HD
BRANCH  24  26
ATOM     26  C   LIG    1       -2.345   3.951  -0.179  0.00  0.00    +0.036 A 
ATOM     27  C   LIG    1       -3.216   4.124   0.859  0.00  0.00    +0.023 A 
ATOM     28  C   LIG    1       -3.998   5.286   0.961  0.00  0.00    +0.002 A 
ATOM     29  C   LIG    1       -3.913   6.282   0.025  0.00  0.00    +0.000 A 
ATOM     30  C   LIG    1       -3.039   6.120  -1.024  0.00  0.00    +0.002 A 
ATOM     31  C   LIG    1       -2.280   4.977  -1.111  0.00  0.00    +0.023 A 
ENDBRANCH  24  26
ENDBRANCH  21  22
ENDBRANCH   1  21
TORSDOF 9
