REMARK  Name = molecules/YUUAYBAIHCDHHD-UHFFFAOYSA-N.pdb
REMARK                            x       y       z     vdW  Elec       q    Type
REMARK                         _______ _______ _______ _____ _____    ______ ____
ROOT
ATOM      1  C   LIG    1       -0.356  -0.143   0.214  0.00  0.00    +0.087 C 
ENDROOT
BRANCH   1   2
ATOM      2  C   LIG    1       -1.791   0.189   0.169  0.00  0.00    +0.147 C 
ATOM      3  O   LIG    1       -2.333   0.515  -0.869  0.00  0.00    -0.296 OA
BRANCH   2   4
ATOM      4  C   LIG    1       -2.548   0.110   1.447  0.00  0.00    +0.152 C 
BRANCH   4   5
ATOM      5  N   LIG    1       -3.925   0.475   1.196  0.00  0.00    -0.324 NA
ATOM      6  H   LIG    1       -4.543  -0.337   1.333  0.00  0.00    +0.119 HD
ATOM      7  H   LIG    1       -3.973   0.941   0.283  0.00  0.00    +0.119 HD
ENDBRANCH   4   5
ENDBRANCH   2   4
ENDBRANCH   1   2
BRANCH   1   8
ATOM      8  C   LIG    1        0.321  -0.028  -1.140  0.00  0.00    +0.128 C 
BRANCH   8   9
ATOM      9  C   LIG    1        1.737  -0.387  -0.933  0.00  0.00    +0.307 C 
ATOM     10  O   LIG    1        2.139  -1.568  -0.894  0.00  0.00    -0.251 OA
BRANCH   9  12
ATOM     11  C   LIG    1        4.022   0.367  -0.572  0.00  0.00    +0.280 C 
ATOM     12  O   LIG    1        2.652   0.633  -0.775  0.00  0.00    -0.468 OA
ENDBRANCH   9  12
ENDBRANCH   8   9
ENDBRANCH   1   8
TORSDOF 6
