REMARK  Name = molecules/YUWPMEXLKGOSBF-GACAOOTBSA-N.pdb
REMARK                            x       y       z     vdW  Elec       q    Type
REMARK                         _______ _______ _______ _____ _____    ______ ____
ROOT
ATOM      1  C   LIG    1        1.217   2.224   1.642  0.00  0.00    +0.015 C 
ATOM      2  C   LIG    1        1.158   1.162   0.604  0.00  0.00    +0.011 C 
ATOM      3  C   LIG    1        0.388  -0.065   1.057  0.00  0.00    +0.006 C 
ATOM      4  C   LIG    1        1.236  -0.550   2.163  0.00  0.00    +0.008 C 
ATOM      5  C   LIG    1        2.622  -0.461   1.556  0.00  0.00    +0.043 C 
ATOM      6  C   LIG    1       -1.022   0.269   1.332  0.00  0.00    +0.020 C 
ATOM      7  C   LIG    1       -1.685  -0.921   1.976  0.00  0.00    +0.012 C 
ATOM      8  C   LIG    1       -3.188  -0.831   1.918  0.00  0.00    +0.032 C 
ATOM      9  C   LIG    1       -3.671  -0.722   0.536  0.00  0.00    -0.056 C 
ATOM     10  C   LIG    1       -4.731  -1.408   0.184  0.00  0.00    +0.046 C 
ATOM     11  C   LIG    1       -5.206  -1.291  -1.184  0.00  0.00    +0.156 C 
ATOM     12  O   LIG    1       -6.438  -1.287  -1.465  0.00  0.00    -0.293 OA
ATOM     13  C   LIG    1       -4.166  -1.175  -2.244  0.00  0.00    +0.080 C 
ATOM     14  C   LIG    1       -2.973  -0.382  -1.848  0.00  0.00    +0.023 C 
ATOM     15  C   LIG    1       -2.985   0.142  -0.427  0.00  0.00    +0.011 C 
ATOM     16  C   LIG    1       -3.791   1.457  -0.459  0.00  0.00    +0.020 C 
ATOM     17  C   LIG    1       -1.621   0.559  -0.023  0.00  0.00    -0.060 C 
ATOM     18  C   LIG    1       -0.863   1.220  -0.883  0.00  0.00    -0.026 C 
ATOM     19  C   LIG    1        2.512   0.516   0.371  0.00  0.00    +0.133 C 
ATOM     20  C   LIG    1        0.509   1.688  -0.618  0.00  0.00    +0.037 C 
ENDROOT
BRANCH  19  21
ATOM     21  C   LIG    1        3.649   1.411   0.453  0.00  0.00    +0.202 C 
ATOM     22  O   LIG    1        3.773   2.136   1.429  0.00  0.00    -0.291 OA
BRANCH  21  23
ATOM     23  C   LIG    1        4.683   1.512  -0.581  0.00  0.00    +0.309 C 
BRANCH  23  24
ATOM     24  O   LIG    1        4.699   0.561  -1.583  0.00  0.00    -0.457 OA
BRANCH  24  25
ATOM     25  C   LIG    1        4.954  -0.790  -1.418  0.00  0.00    +0.304 C 
ATOM     26  O   LIG    1        5.200  -1.210  -0.269  0.00  0.00    -0.251 OA
ATOM     27  C   LIG    1        4.941  -1.746  -2.569  0.00  0.00    +0.136 C 
ENDBRANCH  24  25
ENDBRANCH  23  24
ENDBRANCH  21  23
ENDBRANCH  19  21
BRANCH  19  28
ATOM     28  O   LIG    1        2.389  -0.193  -0.821  0.00  0.00    -0.380 OA
ATOM     29  H   LIG    1        2.183  -1.144  -0.713  0.00  0.00    +0.211 HD
ENDBRANCH  19  28
TORSDOF 5
