REMARK  Name = molecules/YVGGHNCTFXOJCH-UHFFFAOYSA-N.pdb
REMARK                            x       y       z     vdW  Elec       q    Type
REMARK                         _______ _______ _______ _____ _____    ______ ____
ROOT
ATOM      1  C   LIG    1        0.051  -0.082  -1.118  0.00  0.00    +0.100 C 
ENDROOT
BRANCH   1   2
ATOM      2  C   LIG    1        1.206  -0.431  -0.325  0.00  0.00    -0.036 A 
ATOM      3  C   LIG    1        1.910   0.514   0.378  0.00  0.00    +0.006 A 
ATOM      4  C   LIG    1        3.024   0.162   1.152  0.00  0.00    +0.020 A 
ATOM      5  C   LIG    1        3.436  -1.149   1.224  0.00  0.00    +0.041 A 
ATOM      6 CL   LIG    1        4.842  -1.541   2.211  0.00  0.00    -0.084 Cl
ATOM      7  C   LIG    1        2.740  -2.103   0.526  0.00  0.00    +0.020 A 
ATOM      8  C   LIG    1        1.636  -1.732  -0.238  0.00  0.00    +0.006 A 
ENDBRANCH   1   2
BRANCH   1   9
ATOM      9  C   LIG    1       -1.179   0.223  -0.325  0.00  0.00    -0.036 A 
ATOM     10  C   LIG    1       -1.416   1.405   0.320  0.00  0.00    +0.006 A 
ATOM     11  C   LIG    1       -2.583   1.627   1.053  0.00  0.00    +0.020 A 
ATOM     12  C   LIG    1       -3.549   0.648   1.154  0.00  0.00    +0.041 A 
ATOM     13 CL   LIG    1       -5.027   0.904   2.071  0.00  0.00    -0.084 Cl
ATOM     14  C   LIG    1       -3.337  -0.554   0.514  0.00  0.00    +0.020 A 
ATOM     15  C   LIG    1       -2.177  -0.740  -0.200  0.00  0.00    +0.006 A 
ENDBRANCH   1   9
BRANCH   1  16
ATOM     16  C   LIG    1        0.212   0.922  -2.198  0.00  0.00    +0.201 C 
ATOM     17 CL   LIG    1        0.762   2.519  -1.702  0.00  0.00    -0.082 Cl
ATOM     18 CL   LIG    1       -1.396   1.179  -2.977  0.00  0.00    -0.082 Cl
ATOM     19 CL   LIG    1        1.245   0.278  -3.532  0.00  0.00    -0.082 Cl
ENDBRANCH   1  16
TORSDOF 3
