REMARK  Name = molecules/YVHXHNGGPURVOS-SBTDHBFYSA-N.pdb
REMARK                            x       y       z     vdW  Elec       q    Type
REMARK                         _______ _______ _______ _____ _____    ______ ____
ROOT
ATOM      1  F   LIG    1       -2.169  -1.713  -0.069  0.00  0.00    -0.238 F 
ATOM      2  C   LIG    1       -1.525  -0.481  -0.313  0.00  0.00    +0.153 C 
ATOM      3  C   LIG    1       -0.537  -0.257   0.854  0.00  0.00    +0.034 C 
ATOM      4  C   LIG    1       -1.182  -0.936   2.054  0.00  0.00    +0.011 C 
ATOM      5  C   LIG    1       -2.440  -0.161   2.389  0.00  0.00    +0.032 C 
ATOM      6  C   LIG    1       -3.248   0.113   1.159  0.00  0.00    -0.053 C 
ATOM      7  C   LIG    1       -4.534  -0.089   1.254  0.00  0.00    +0.051 C 
ATOM      8  C   LIG    1       -5.442   0.102   0.133  0.00  0.00    +0.179 C 
ATOM      9  O   LIG    1       -6.688  -0.096   0.233  0.00  0.00    -0.288 OA
ATOM     10  C   LIG    1       -4.824   0.535  -1.108  0.00  0.00    +0.047 C 
ATOM     11  C   LIG    1       -3.529   0.740  -1.206  0.00  0.00    -0.009 C 
ATOM     12  C   LIG    1        0.733  -0.815   0.418  0.00  0.00    +0.009 C 
ATOM     13  C   LIG    1        1.881  -0.872   1.386  0.00  0.00    +0.038 C 
ATOM     14  C   LIG    1        3.023  -1.024   0.443  0.00  0.00    -0.037 C 
ATOM     15  C   LIG    1        4.259  -1.292   0.766  0.00  0.00    +0.011 C 
ATOM     16  C   LIG    1        2.548  -0.821  -0.953  0.00  0.00    +0.152 C 
ATOM     17  C   LIG    1        1.342   0.087  -0.658  0.00  0.00    +0.013 C 
ATOM     18  C   LIG    1        1.849   1.365  -0.084  0.00  0.00    +0.015 C 
ATOM     19  C   LIG    1        0.393   0.218  -1.784  0.00  0.00    +0.045 C 
ATOM     20  C   LIG    1       -2.605   0.554  -0.097  0.00  0.00    +0.044 C 
ATOM     21  C   LIG    1       -2.014   1.925   0.196  0.00  0.00    +0.023 C 
ATOM     22  C   LIG    1       -0.871  -0.594  -1.605  0.00  0.00    +0.154 C 
ENDROOT
BRANCH  16  23
ATOM     23  O   LIG    1        1.940  -2.019  -1.423  0.00  0.00    -0.376 OA
ATOM     24  H   LIG    1        2.206  -2.145  -2.366  0.00  0.00    +0.211 HD
ENDBRANCH  16  23
BRANCH  16  25
ATOM     25  C   LIG    1        3.505  -0.295  -1.897  0.00  0.00    +0.194 C 
ATOM     26  O   LIG    1        3.628  -0.976  -2.940  0.00  0.00    -0.292 OA
BRANCH  25  27
ATOM     27  C   LIG    1        4.348   0.896  -1.825  0.00  0.00    +0.233 C 
BRANCH  27  28
ATOM     28  O   LIG    1        5.215   0.933  -2.949  0.00  0.00    -0.387 OA
ATOM     29  H   LIG    1        5.942   1.576  -2.821  0.00  0.00    +0.210 HD
ENDBRANCH  27  28
ENDBRANCH  25  27
ENDBRANCH  16  25
BRANCH  22  30
ATOM     30  O   LIG    1       -1.666  -0.432  -2.702  0.00  0.00    -0.389 OA
ATOM     31  H   LIG    1       -1.910  -1.266  -3.177  0.00  0.00    +0.210 HD
ENDBRANCH  22  30
TORSDOF 5
