REMARK  Name = molecules/YVQVOQKFMFRVGR-LLUUXILJSA-N.pdb
REMARK                            x       y       z     vdW  Elec       q    Type
REMARK                         _______ _______ _______ _____ _____    ______ ____
ROOT
ATOM      1  C   LIG    1       -1.030   0.481  -1.456  0.00  0.00    +0.211 C 
ATOM      2  C   LIG    1       -0.173   0.283  -0.243  0.00  0.00    +0.184 C 
ATOM      3  N   LIG    1        1.031   1.021  -0.675  0.00  0.00    -0.155 N 
ATOM      4  C   LIG    1        0.464   2.155  -1.345  0.00  0.00    +0.423 C 
ATOM      5  O   LIG    1        1.135   3.204  -1.608  0.00  0.00    -0.224 OA
ATOM      6  O   LIG    1       -0.882   1.897  -1.635  0.00  0.00    -0.443 OA
ENDROOT
BRANCH   3   7
ATOM      7  N   LIG    1        2.334   0.676  -0.470  0.00  0.00    -0.179 NA
ATOM      8  C   LIG    1        2.811  -0.425  -0.041  0.00  0.00    +0.177 C 
BRANCH   8   9
ATOM      9  C   LIG    1        4.245  -0.611   0.113  0.00  0.00    +0.150 A 
ATOM     10  C   LIG    1        4.916  -1.717   0.548  0.00  0.00    +0.053 A 
ATOM     11  C   LIG    1        6.252  -1.397   0.514  0.00  0.00    +0.076 A 
ATOM     12  C   LIG    1        6.361  -0.101   0.059  0.00  0.00    +0.280 A 
ATOM     13  O   LIG    1        5.135   0.322  -0.166  0.00  0.00    -0.433 OA
BRANCH  12  14
ATOM     14  N   LIG    1        7.590   0.636  -0.131  0.00  0.00    +0.093 N 
ATOM     15  O   LIG    1        8.656   0.094   0.131  0.00  0.00    -0.123 OA
ATOM     16  O   LIG    1        7.464   1.924  -0.599  0.00  0.00    -0.123 OA
ENDBRANCH  12  14
ENDBRANCH   8   9
ENDBRANCH   3   7
BRANCH   1  17
ATOM     17  C   LIG    1       -2.453   0.082  -1.378  0.00  0.00    +0.131 C 
BRANCH  17  18
ATOM     18  N   LIG    1       -3.236   0.606  -0.309  0.00  0.00    -0.294 NA
ATOM     19  C   LIG    1       -3.055  -0.259   0.856  0.00  0.00    +0.112 C 
ATOM     20  C   LIG    1       -4.172  -1.274   0.945  0.00  0.00    +0.175 C 
ATOM     21  O   LIG    1       -5.355  -0.638   1.315  0.00  0.00    -0.377 OA
ATOM     22  C   LIG    1       -5.547   0.499   0.510  0.00  0.00    +0.175 C 
ATOM     23  C   LIG    1       -4.641   0.461  -0.683  0.00  0.00    +0.112 C 
ENDBRANCH  17  18
ENDBRANCH   1  17
TORSDOF 5
