REMARK  Name = molecules/YVUQSNJEYSNKRX-UHFFFAOYSA-N.pdb
REMARK                            x       y       z     vdW  Elec       q    Type
REMARK                         _______ _______ _______ _____ _____    ______ ____
ROOT
ATOM      1  C   LIG    1        0.012  -0.659   1.288  0.00  0.00    +0.084 C 
ENDROOT
BRANCH   1   5
ATOM      2  C   LIG    1        3.258  -1.251   0.038  0.00  0.00    +0.095 C 
ATOM      3  C   LIG    1        2.740  -1.356   1.486  0.00  0.00    +0.040 C 
ATOM      4  C   LIG    1        1.660  -2.362   1.527  0.00  0.00    +0.086 C 
ATOM      5  N   LIG    1        0.512  -1.858   0.738  0.00  0.00    -0.302 NA
ATOM      6  C   LIG    1        1.023  -1.802  -0.610  0.00  0.00    +0.086 C 
ATOM      7  C   LIG    1        2.168  -0.772  -0.777  0.00  0.00    +0.040 C 
BRANCH   2  18
ATOM      8  O   LIG    1        5.557  -2.455   1.259  0.00  0.00    -0.247 OA
ATOM      9  C   LIG    1        5.570  -1.322   0.677  0.00  0.00    +0.328 A 
ATOM     10  N   LIG    1        6.666  -0.591   0.585  0.00  0.00    -0.306 N 
ATOM     11  H   LIG    1        7.626  -0.842   0.965  0.00  0.00    +0.170 HD
ATOM     12  C   LIG    1        6.402   0.542  -0.070  0.00  0.00    +0.067 A 
ATOM     13  C   LIG    1        5.054   0.464  -0.382  0.00  0.00    +0.070 A 
ATOM     14  C   LIG    1        4.501   1.493  -1.062  0.00  0.00    +0.028 A 
ATOM     15  C   LIG    1        5.270   2.595  -1.433  0.00  0.00    +0.002 A 
ATOM     16  C   LIG    1        6.626   2.682  -1.123  0.00  0.00    +0.002 A 
ATOM     17  C   LIG    1        7.182   1.636  -0.434  0.00  0.00    +0.028 A 
ATOM     18  N   LIG    1        4.527  -0.677   0.070  0.00  0.00    -0.289 N 
ENDBRANCH   2  18
ENDBRANCH   1   5
BRANCH   1  19
ATOM     19  C   LIG    1       -1.422  -0.290   1.008  0.00  0.00    +0.016 C 
BRANCH  19  20
ATOM     20  C   LIG    1       -1.771  -0.179  -0.411  0.00  0.00    +0.014 C 
BRANCH  20  21
ATOM     21  C   LIG    1       -3.135   0.258  -0.805  0.00  0.00    +0.049 C 
BRANCH  21  22
ATOM     22  C   LIG    1       -3.507   1.587  -0.270  0.00  0.00    -0.040 A 
ATOM     23  C   LIG    1       -3.888   1.695   1.072  0.00  0.00    +0.007 A 
ATOM     24  C   LIG    1       -4.268   2.936   1.583  0.00  0.00    +0.038 A 
ATOM     25  C   LIG    1       -4.290   4.084   0.826  0.00  0.00    +0.123 A 
ATOM     26  F   LIG    1       -4.669   5.288   1.352  0.00  0.00    -0.205 F 
ATOM     27  C   LIG    1       -3.913   3.972  -0.500  0.00  0.00    +0.038 A 
ATOM     28  C   LIG    1       -3.538   2.753  -1.005  0.00  0.00    +0.007 A 
ENDBRANCH  21  22
BRANCH  21  29
ATOM     29  C   LIG    1       -4.216  -0.725  -0.867  0.00  0.00    -0.040 A 
ATOM     30  C   LIG    1       -4.645  -1.513   0.164  0.00  0.00    +0.007 A 
ATOM     31  C   LIG    1       -5.689  -2.446   0.052  0.00  0.00    +0.038 A 
ATOM     32  C   LIG    1       -6.353  -2.615  -1.141  0.00  0.00    +0.123 A 
ATOM     33  F   LIG    1       -7.370  -3.519  -1.271  0.00  0.00    -0.205 F 
ATOM     34  C   LIG    1       -5.942  -1.836  -2.196  0.00  0.00    +0.038 A 
ATOM     35  C   LIG    1       -4.918  -0.927  -2.072  0.00  0.00    +0.007 A 
ENDBRANCH  21  29
ENDBRANCH  20  21
ENDBRANCH  19  20
ENDBRANCH   1  19
TORSDOF 7
