REMARK  Name = molecules/YXRDKMPIGHSVRX-OOJCLDBCSA-N.pdb
REMARK                            x       y       z     vdW  Elec       q    Type
REMARK                         _______ _______ _______ _____ _____    ______ ____
ROOT
ATOM      1  C   LIG    1       -3.239  -0.704   0.056  0.00  0.00    -0.023 C 
ATOM      2  C   LIG    1       -3.046  -0.231   1.452  0.00  0.00    +0.170 C 
ATOM      3  C   LIG    1       -1.584   0.172   1.446  0.00  0.00    +0.007 C 
ATOM      4  C   LIG    1       -1.403   1.507   2.132  0.00  0.00    +0.015 C 
ATOM      5  C   LIG    1       -0.620  -0.776   2.029  0.00  0.00    +0.011 C 
ATOM      6  C   LIG    1        0.778  -0.318   1.760  0.00  0.00    +0.005 C 
ATOM      7  C   LIG    1        1.078   0.241   0.429  0.00  0.00    -0.001 C 
ATOM      8  C   LIG    1        2.384   0.941   0.373  0.00  0.00    -0.025 C 
ATOM      9  C   LIG    1        2.403   2.102   1.310  0.00  0.00    +0.012 C 
ATOM     10  C   LIG    1        3.464  -0.013   0.786  0.00  0.00    +0.028 C 
ATOM     11  C   LIG    1        4.706   0.017  -0.079  0.00  0.00    +0.086 C 
ATOM     12  C   LIG    1        5.087   1.399  -0.435  0.00  0.00    +0.132 C 
ATOM     13  C   LIG    1        3.949   2.068  -1.169  0.00  0.00    +0.037 C 
ATOM     14  C   LIG    1        2.655   1.335  -1.061  0.00  0.00    -0.002 C 
ATOM     15  C   LIG    1        1.552   2.204  -1.610  0.00  0.00    +0.004 C 
ATOM     16  C   LIG    1        0.306   1.331  -1.652  0.00  0.00    +0.004 C 
ATOM     17  C   LIG    1       -0.062   1.071  -0.195  0.00  0.00    -0.004 C 
ATOM     18  C   LIG    1       -1.216   0.232  -0.034  0.00  0.00    +0.000 C 
ATOM     19  C   LIG    1       -2.525   0.461  -0.671  0.00  0.00    -0.007 C 
ENDROOT
BRANCH  11  20
ATOM     20  N   LIG    1        5.677  -0.762   0.619  0.00  0.00    -0.293 NA
ATOM     21  C   LIG    1        5.230  -2.155   0.551  0.00  0.00    +0.113 C 
ATOM     22  C   LIG    1        6.371  -3.111   0.291  0.00  0.00    +0.175 C 
ATOM     23  O   LIG    1        7.064  -2.849  -0.863  0.00  0.00    -0.377 OA
ATOM     24  C   LIG    1        7.123  -1.472  -1.172  0.00  0.00    +0.175 C 
ATOM     25  C   LIG    1        7.010  -0.741   0.130  0.00  0.00    +0.113 C 
ENDBRANCH  11  20
BRANCH   1  26
ATOM     26  N   LIG    1       -4.441  -1.123  -0.438  0.00  0.00    +0.387 N 
ATOM     27  C   LIG    1       -4.514  -2.601  -0.305  0.00  0.00    -0.074 C 
ATOM     28  C   LIG    1       -3.588  -3.151  -1.346  0.00  0.00    -0.020 C 
ATOM     29  C   LIG    1       -3.636  -2.118  -2.447  0.00  0.00    -0.020 C 
ATOM     30  C   LIG    1       -4.505  -1.040  -1.902  0.00  0.00    -0.074 C 
BRANCH  26  31
ATOM     31  C   LIG    1       -5.689  -0.649   0.048  0.00  0.00    -0.047 C 
BRANCH  31  32
ATOM     32  C   LIG    1       -6.155   0.635  -0.487  0.00  0.00    -0.053 C 
ATOM     33  C   LIG    1       -7.295   0.794  -1.150  0.00  0.00    +0.002 C 
ENDBRANCH  31  32
ENDBRANCH  26  31
ENDBRANCH   1  26
BRANCH  12  34
ATOM     34  O   LIG    1        6.179   1.454  -1.297  0.00  0.00    -0.390 OA
ATOM     35  H   LIG    1        6.055   2.066  -2.053  0.00  0.00    +0.210 HD
ENDBRANCH  12  34
BRANCH   2  36
ATOM     36  O   LIG    1       -3.747   0.990   1.600  0.00  0.00    -0.463 OA
BRANCH  36  37
ATOM     37  C   LIG    1       -4.599   1.338   2.606  0.00  0.00    +0.304 C 
ATOM     38  O   LIG    1       -4.796   0.489   3.515  0.00  0.00    -0.251 OA
ATOM     39  C   LIG    1       -5.237   2.679   2.574  0.00  0.00    +0.136 C 
ENDBRANCH  36  37
ENDBRANCH   2  36
TORSDOF 7
