REMARK  Name = molecules/YXSLJKQTIDHPOT-OIJGJAQQSA-N.pdb
REMARK                            x       y       z     vdW  Elec       q    Type
REMARK                         _______ _______ _______ _____ _____    ______ ____
ROOT
ATOM      1  C   LIG    1        1.148  -1.820  -1.491  0.00  0.00    +0.007 C 
ENDROOT
BRANCH   1   2
ATOM      2  C   LIG    1       -0.021  -1.331  -0.716  0.00  0.00    +0.041 C 
BRANCH   2   3
ATOM      3  C   LIG    1       -1.109  -2.389  -0.520  0.00  0.00    +0.232 C 
BRANCH   3   4
ATOM      4  O   LIG    1       -2.125  -1.739   0.197  0.00  0.00    -0.465 OA
BRANCH   4   5
ATOM      5  C   LIG    1       -3.373  -2.236   0.493  0.00  0.00    +0.305 C 
ATOM      6  O   LIG    1       -3.686  -3.373   0.099  0.00  0.00    -0.251 OA
BRANCH   5   7
ATOM      7  C   LIG    1       -4.363  -1.431   1.269  0.00  0.00    +0.102 C 
BRANCH   7   8
ATOM      8  C   LIG    1       -5.746  -1.940   0.915  0.00  0.00    -0.063 C 
BRANCH   8   9
ATOM      9  N   LIG    1       -6.814  -1.190   1.524  0.00  0.00    +0.384 N 
ATOM     10  C   LIG    1       -6.309  -0.212   2.459  0.00  0.00    -0.070 C 
ATOM     11  C   LIG    1       -6.434   1.239   1.997  0.00  0.00    +0.017 C 
ATOM     12  C   LIG    1       -7.913   1.421   1.907  0.00  0.00    -0.044 A 
ATOM     13  C   LIG    1       -8.598   2.395   2.531  0.00  0.00    +0.053 A 
ATOM     14  C   LIG    1       -9.978   2.411   2.453  0.00  0.00    +0.162 A 
ATOM     15  C   LIG    1      -10.647   1.434   1.740  0.00  0.00    +0.162 A 
ATOM     16  C   LIG    1       -9.937   0.413   1.088  0.00  0.00    +0.051 A 
ATOM     17  C   LIG    1       -8.566   0.408   1.168  0.00  0.00    -0.053 A 
ATOM     18  C   LIG    1       -7.653  -2.130   2.239  0.00  0.00    -0.091 C 
ATOM     19  C   LIG    1       -7.636  -0.527   0.513  0.00  0.00    -0.030 C 
BRANCH  15  20
ATOM     20  O   LIG    1      -12.008   1.471   1.673  0.00  0.00    -0.491 OA
ATOM     21  C   LIG    1      -12.952   0.689   1.079  0.00  0.00    +0.277 C 
ENDBRANCH  15  20
BRANCH  14  22
ATOM     22  O   LIG    1      -10.697   3.401   3.087  0.00  0.00    -0.491 OA
ATOM     23  C   LIG    1      -10.018   4.404   3.831  0.00  0.00    +0.277 C 
ENDBRANCH  14  22
BRANCH  19  24
ATOM     24  C   LIG    1       -8.076  -1.342  -0.625  0.00  0.00    +0.025 C 
BRANCH  24  25
ATOM     25  C   LIG    1       -8.862  -0.571  -1.629  0.00  0.00    -0.045 A 
ATOM     26  C   LIG    1      -10.194  -0.727  -1.908  0.00  0.00    +0.053 A 
ATOM     27  C   LIG    1      -10.847   0.086  -2.819  0.00  0.00    +0.162 A 
ATOM     28  C   LIG    1      -10.190   1.104  -3.501  0.00  0.00    +0.161 A 
ATOM     29  C   LIG    1       -8.853   1.252  -3.219  0.00  0.00    +0.049 A 
ATOM     30  C   LIG    1       -8.202   0.444  -2.314  0.00  0.00    +0.007 A 
BRANCH  28  31
ATOM     31  O   LIG    1      -10.894   1.895  -4.399  0.00  0.00    -0.491 OA
ATOM     32  C   LIG    1      -10.361   2.965  -5.135  0.00  0.00    +0.277 C 
ENDBRANCH  28  31
BRANCH  27  33
ATOM     33  O   LIG    1      -12.206  -0.084  -3.097  0.00  0.00    -0.491 OA
ATOM     34  C   LIG    1      -12.951  -1.115  -2.456  0.00  0.00    +0.277 C 
ENDBRANCH  27  33
ENDBRANCH  24  25
ENDBRANCH  19  24
ENDBRANCH   8   9
ENDBRANCH   7   8
ENDBRANCH   5   7
ENDBRANCH   4   5
ENDBRANCH   3   4
ENDBRANCH   2   3
ENDBRANCH   1   2
BRANCH   1  35
ATOM     35  C   LIG    1        1.970  -2.886  -0.915  0.00  0.00    +0.041 C 
BRANCH  35  36
ATOM     36  C   LIG    1        2.753  -2.672   0.326  0.00  0.00    +0.232 C 
BRANCH  36  37
ATOM     37  O   LIG    1        3.756  -1.720   0.308  0.00  0.00    -0.465 OA
BRANCH  37  38
ATOM     38  C   LIG    1        3.716  -0.392   0.292  0.00  0.00    +0.305 C 
ATOM     39  O   LIG    1        2.608   0.219   0.337  0.00  0.00    -0.251 OA
BRANCH  38  40
ATOM     40  C   LIG    1        4.897   0.532   0.219  0.00  0.00    +0.102 C 
BRANCH  40  41
ATOM     41  C   LIG    1        6.148  -0.208  -0.169  0.00  0.00    -0.063 C 
BRANCH  41  43
ATOM     42  C   LIG    1        8.423   0.070   0.242  0.00  0.00    -0.030 C 
ATOM     43  N   LIG    1        7.297   0.740  -0.293  0.00  0.00    +0.384 N 
ATOM     44  C   LIG    1        6.918   1.900   0.441  0.00  0.00    -0.091 C 
ATOM     45  C   LIG    1        7.369   0.998  -1.703  0.00  0.00    -0.070 C 
ATOM     46  C   LIG    1        7.837  -0.213  -2.486  0.00  0.00    +0.017 C 
ATOM     47  C   LIG    1        8.101  -1.400  -1.659  0.00  0.00    -0.044 A 
ATOM     48  C   LIG    1        8.048  -2.650  -2.270  0.00  0.00    +0.053 A 
ATOM     49  C   LIG    1        8.250  -3.802  -1.562  0.00  0.00    +0.162 A 
ATOM     50  C   LIG    1        8.518  -3.730  -0.176  0.00  0.00    +0.162 A 
ATOM     51  C   LIG    1        8.569  -2.471   0.427  0.00  0.00    +0.051 A 
ATOM     52  C   LIG    1        8.366  -1.337  -0.301  0.00  0.00    -0.053 A 
BRANCH  49  53
ATOM     53  O   LIG    1        8.214  -5.066  -2.103  0.00  0.00    -0.491 OA
ATOM     54  C   LIG    1        7.965  -5.264  -3.478  0.00  0.00    +0.277 C 
ENDBRANCH  49  53
BRANCH  50  55
ATOM     55  O   LIG    1        8.711  -4.905   0.492  0.00  0.00    -0.491 OA
ATOM     56  C   LIG    1        8.975  -4.990   1.850  0.00  0.00    +0.277 C 
ENDBRANCH  50  55
BRANCH  42  57
ATOM     57  C   LIG    1        9.788   0.560  -0.088  0.00  0.00    +0.025 C 
BRANCH  57  58
ATOM     58  C   LIG    1       10.138   1.931   0.308  0.00  0.00    -0.045 A 
ATOM     59  C   LIG    1       10.485   2.193   1.645  0.00  0.00    +0.053 A 
ATOM     60  C   LIG    1       10.851   3.444   2.077  0.00  0.00    +0.162 A 
ATOM     61  C   LIG    1       10.887   4.505   1.189  0.00  0.00    +0.161 A 
ATOM     62  C   LIG    1       10.547   4.241  -0.119  0.00  0.00    +0.049 A 
ATOM     63  C   LIG    1       10.183   2.996  -0.557  0.00  0.00    +0.007 A 
BRANCH  61  64
ATOM     64  O   LIG    1       11.252   5.756   1.642  0.00  0.00    -0.491 OA
ATOM     65  C   LIG    1       11.252   6.800   0.653  0.00  0.00    +0.277 C 
ENDBRANCH  61  64
BRANCH  60  66
ATOM     66  O   LIG    1       11.204   3.737   3.392  0.00  0.00    -0.491 OA
ATOM     67  C   LIG    1       11.192   2.682   4.332  0.00  0.00    +0.277 C 
ENDBRANCH  60  66
ENDBRANCH  57  58
ENDBRANCH  42  57
ENDBRANCH  41  43
ENDBRANCH  40  41
ENDBRANCH  38  40
ENDBRANCH  37  38
ENDBRANCH  36  37
ENDBRANCH  35  36
ENDBRANCH   1  35
TORSDOF 26
