REMARK  Name = molecules/YXUPZGKORWTXID-UHFFFAOYSA-N.pdb
REMARK                            x       y       z     vdW  Elec       q    Type
REMARK                         _______ _______ _______ _____ _____    ______ ____
ROOT
ATOM      1  N   LIG    1       -2.103   0.388  -0.603  0.00  0.00    +0.378 N 
ATOM      2  C   LIG    1       -2.039  -0.634   0.446  0.00  0.00    -0.092 C 
ATOM      3  C   LIG    1       -1.841   1.650   0.017  0.00  0.00    -0.092 C 
ENDROOT
BRANCH   1   4
ATOM      4  C   LIG    1       -3.467   0.368  -1.105  0.00  0.00    -0.034 C 
BRANCH   4   5
ATOM      5  C   LIG    1       -4.447   0.289   0.049  0.00  0.00    +0.211 C 
BRANCH   5   6
ATOM      6  O   LIG    1       -5.774   0.269  -0.443  0.00  0.00    -0.494 OA
BRANCH   6   7
ATOM      7  C   LIG    1       -6.811   0.199   0.478  0.00  0.00    +0.120 A 
ATOM      8  C   LIG    1       -6.586   0.148   1.851  0.00  0.00    +0.045 A 
ATOM      9  C   LIG    1       -7.621   0.079   2.755  0.00  0.00    +0.004 A 
ATOM     10  C   LIG    1       -8.927   0.057   2.339  0.00  0.00    +0.000 A 
ATOM     11  C   LIG    1       -9.161   0.107   0.977  0.00  0.00    +0.004 A 
ATOM     12  C   LIG    1       -8.126   0.177   0.069  0.00  0.00    +0.045 A 
ENDBRANCH   6   7
ENDBRANCH   5   6
ENDBRANCH   4   5
ENDBRANCH   1   4
BRANCH   1  13
ATOM     13  C   LIG    1       -1.209   0.067  -1.696  0.00  0.00    -0.076 C 
BRANCH  13  14
ATOM     14  C   LIG    1        0.098   0.774  -1.613  0.00  0.00    -0.018 C 
BRANCH  14  15
ATOM     15  C   LIG    1        1.045   0.464  -2.740  0.00  0.00    -0.002 C 
BRANCH  15  16
ATOM     16  C   LIG    1        1.410  -0.971  -2.840  0.00  0.00    -0.000 C 
BRANCH  16  17
ATOM     17  C   LIG    1        2.022  -1.653  -1.705  0.00  0.00    -0.000 C 
BRANCH  17  18
ATOM     18  C   LIG    1        3.304  -1.264  -1.117  0.00  0.00    -0.000 C 
BRANCH  18  19
ATOM     19  C   LIG    1        3.502   0.046  -0.494  0.00  0.00    -0.000 C 
BRANCH  19  20
ATOM     20  C   LIG    1        4.938   0.158   0.013  0.00  0.00    -0.000 C 
BRANCH  20  21
ATOM     21  C   LIG    1        5.217  -0.887   1.019  0.00  0.00    -0.000 C 
BRANCH  21  22
ATOM     22  C   LIG    1        6.649  -0.692   1.510  0.00  0.00    -0.000 C 
BRANCH  22  23
ATOM     23  C   LIG    1        6.843   0.652   2.136  0.00  0.00    -0.003 C 
ATOM     24  C   LIG    1        8.311   0.704   2.585  0.00  0.00    +0.004 C 
ENDBRANCH  22  23
ENDBRANCH  21  22
ENDBRANCH  20  21
ENDBRANCH  19  20
ENDBRANCH  18  19
ENDBRANCH  17  18
ENDBRANCH  16  17
ENDBRANCH  15  16
ENDBRANCH  14  15
ENDBRANCH  13  14
ENDBRANCH   1  13
TORSDOF 15
