REMARK  Name = molecules/YXVZOBVWVRFPTE-AWEZNQCLSA-N.pdb
REMARK                            x       y       z     vdW  Elec       q    Type
REMARK                         _______ _______ _______ _____ _____    ______ ____
ROOT
ATOM      1  C   LIG    1       -1.522   0.201   0.013  0.00  0.00    +0.090 C 
ATOM      2  C   LIG    1       -0.827   1.112   1.046  0.00  0.00    +0.060 C 
ATOM      3  C   LIG    1        0.495   1.532   0.462  0.00  0.00    -0.024 A 
ATOM      4  C   LIG    1        0.691   2.874   0.339  0.00  0.00    +0.005 A 
ATOM      5  C   LIG    1        1.872   3.379  -0.222  0.00  0.00    +0.000 A 
ATOM      6  C   LIG    1        2.826   2.468  -0.645  0.00  0.00    +0.002 A 
ATOM      7  C   LIG    1        2.655   1.106  -0.534  0.00  0.00    +0.024 A 
ATOM      8  C   LIG    1        1.477   0.661   0.026  0.00  0.00    +0.037 A 
ATOM      9  N   LIG    1        1.469  -0.767   0.097  0.00  0.00    -0.303 N 
ATOM     10  C   LIG    1        2.772  -1.413   0.279  0.00  0.00    +0.135 C 
ATOM     11  C   LIG    1        0.298  -1.591   0.029  0.00  0.00    +0.038 A 
ATOM     12  C   LIG    1        0.649  -2.922   0.003  0.00  0.00    +0.024 A 
ATOM     13  C   LIG    1       -0.344  -3.879  -0.018  0.00  0.00    +0.002 A 
ATOM     14  C   LIG    1       -1.663  -3.488  -0.013  0.00  0.00    +0.000 A 
ATOM     15  C   LIG    1       -2.013  -2.145   0.012  0.00  0.00    +0.007 A 
ATOM     16  C   LIG    1       -1.028  -1.175   0.032  0.00  0.00    -0.009 A 
ENDROOT
BRANCH   1  17
ATOM     17  N   LIG    1       -2.937   0.374  -0.001  0.00  0.00    -0.312 NA
ATOM     18  C   LIG    1       -3.174   1.791  -0.382  0.00  0.00    +0.101 C 
ATOM     19  H   LIG    1       -3.268  -0.128  -0.890  0.00  0.00    +0.122 HD
ENDBRANCH   1  17
TORSDOF 1
