REMARK  Name = molecules/YYQRGCZGSFRBAM-UHFFFAOYSA-N.pdb
REMARK                            x       y       z     vdW  Elec       q    Type
REMARK                         _______ _______ _______ _____ _____    ______ ____
ROOT
ATOM      1  O   LIG    1       -0.007  -0.099   0.742  0.00  0.00    -0.283 OA
ENDROOT
BRANCH   1   2
ATOM      2  P   LIG    1       -1.545  -0.344   0.059  0.00  0.00    +0.472 P 
ATOM      3  O   LIG    1       -1.412  -1.153  -1.220  0.00  0.00    -0.228 OA
BRANCH   2   4
ATOM      4  O   LIG    1       -2.561  -1.179   1.086  0.00  0.00    -0.303 OA
ATOM      5  H   LIG    1       -2.495  -0.916   2.029  0.00  0.00    +0.222 HD
ENDBRANCH   2   4
BRANCH   2   6
ATOM      6  O   LIG    1       -2.171   1.167  -0.386  0.00  0.00    -0.303 OA
ATOM      7  H   LIG    1       -2.816   1.064  -1.136  0.00  0.00    +0.222 HD
ENDBRANCH   2   6
ENDBRANCH   1   2
BRANCH   1   8
ATOM      8  C   LIG    1        0.879   0.065  -0.316  0.00  0.00    +0.227 C 
BRANCH   8   9
ATOM      9  C   LIG    1        2.298   0.294   0.151  0.00  0.00    +0.214 C 
ATOM     10 CL   LIG    1        2.389   1.750   1.152  0.00  0.00    -0.081 Cl
ATOM     11 CL   LIG    1        2.792  -1.163   1.054  0.00  0.00    -0.081 Cl
ATOM     12 CL   LIG    1        3.310   0.461  -1.313  0.00  0.00    -0.081 Cl
ENDBRANCH   8   9
ENDBRANCH   1   8
TORSDOF 5
