REMARK  Name = molecules/YYUAYBYLJSNDCX-UHFFFAOYSA-N.pdb
REMARK                            x       y       z     vdW  Elec       q    Type
REMARK                         _______ _______ _______ _____ _____    ______ ____
ROOT
ATOM      1  C   LIG    1       -1.297  -0.444   0.576  0.00  0.00    +0.153 C 
ATOM      2  C   LIG    1       -2.761  -0.364   0.553  0.00  0.00    +0.045 A 
ATOM      3  C   LIG    1       -3.494  -1.274   1.329  0.00  0.00    +0.013 A 
ATOM      4  C   LIG    1       -4.875  -1.291   1.284  0.00  0.00    +0.001 A 
ATOM      5  C   LIG    1       -5.581  -0.432   0.490  0.00  0.00    +0.002 A 
ATOM      6  C   LIG    1       -4.846   0.455  -0.264  0.00  0.00    +0.029 A 
ATOM      7  C   LIG    1       -3.490   0.483  -0.228  0.00  0.00    +0.119 A 
ATOM      8  S   LIG    1       -2.608   1.699  -1.137  0.00  0.00    +0.075 S 
ATOM      9  O   LIG    1       -2.626   3.025  -0.396  0.00  0.00    -0.150 OA
ATOM     10  N   LIG    1       -0.981   1.173  -1.185  0.00  0.00    -0.197 N 
ATOM     11  C   LIG    1       -0.086   1.576  -2.249  0.00  0.00    +0.158 C 
ATOM     12  O   LIG    1       -3.212   1.914  -2.470  0.00  0.00    -0.150 OA
ATOM     13  C   LIG    1       -0.478   0.281  -0.162  0.00  0.00    +0.155 C 
ENDROOT
BRANCH  13  14
ATOM     14  C   LIG    1        0.973   0.161  -0.062  0.00  0.00    +0.269 C 
ATOM     15  N   LIG    1        1.672  -0.700   0.771  0.00  0.00    -0.263 N 
ATOM     16  H   LIG    1        1.191  -1.367   1.428  0.00  0.00    +0.157 HD
ATOM     17  O   LIG    1        1.696   0.914  -0.805  0.00  0.00    -0.268 OA
BRANCH  15  18
ATOM     18  C   LIG    1        3.118  -0.728   0.785  0.00  0.00    +0.168 A 
ATOM     19  N   LIG    1        3.846  -1.560   1.591  0.00  0.00    -0.063 NA
ATOM     20  O   LIG    1        5.107  -1.361   1.384  0.00  0.00    -0.358 OA
ATOM     21  C   LIG    1        5.327  -0.452   0.495  0.00  0.00    +0.136 A 
ATOM     22  C   LIG    1        6.613   0.085  -0.041  0.00  0.00    +0.089 C 
ATOM     23  C   LIG    1        4.049  -0.022   0.088  0.00  0.00    +0.091 A 
ENDBRANCH  15  18
ENDBRANCH  13  14
BRANCH   1  24
ATOM     24  O   LIG    1       -0.791  -1.388   1.498  0.00  0.00    -0.504 OA
ATOM     25  H   LIG    1       -1.069  -1.367   2.468  0.00  0.00    +0.292 HD
ENDBRANCH   1  24
TORSDOF 3
