REMARK  Name = molecules/YYWXOXLDOMRDHW-SDMXVIBFSA-N.pdb
REMARK                            x       y       z     vdW  Elec       q    Type
REMARK                         _______ _______ _______ _____ _____    ______ ____
ROOT
ATOM      1  C   LIG    1       -2.728   0.817  -0.733  0.00  0.00    +0.269 C 
ATOM      2  N   LIG    1       -3.018  -0.621  -0.714  0.00  0.00    -0.233 N 
ATOM      3  C   LIG    1       -4.249  -1.197  -0.302  0.00  0.00    +0.170 C 
ATOM      4  C   LIG    1       -5.299  -0.190  -0.144  0.00  0.00    +0.237 C 
ATOM      5  O   LIG    1       -6.368  -0.523   0.439  0.00  0.00    -0.274 OA
ATOM      6  N   LIG    1       -5.163   1.105  -0.609  0.00  0.00    -0.290 N 
ATOM      7  C   LIG    1       -6.115   2.228  -0.749  0.00  0.00    +0.108 C 
ATOM      8  C   LIG    1       -5.314   3.329  -0.058  0.00  0.00    +0.021 C 
ATOM      9  C   LIG    1       -3.884   2.988  -0.415  0.00  0.00    +0.031 C 
ATOM     10  C   LIG    1       -1.783  -1.180  -1.197  0.00  0.00    +0.271 C 
ATOM     11  O   LIG    1       -1.364  -2.339  -1.123  0.00  0.00    -0.270 OA
ATOM     12  C   LIG    1       -1.008  -0.070  -1.858  0.00  0.00    +0.220 C 
ATOM     13  C   LIG    1       -3.934   1.630  -1.082  0.00  0.00    +0.156 C 
ATOM     14  O   LIG    1       -1.818   1.022  -1.769  0.00  0.00    -0.298 OA
ENDROOT
BRANCH  12  15
ATOM     15  N   LIG    1        0.232   0.177  -1.200  0.00  0.00    -0.279 N 
ATOM     16  H   LIG    1        0.540  -0.409  -0.358  0.00  0.00    +0.152 HD
ATOM     17  C   LIG    1        1.096   1.212  -1.643  0.00  0.00    +0.224 C 
ATOM     18  O   LIG    1        0.765   1.920  -2.622  0.00  0.00    -0.275 OA
BRANCH  17  19
ATOM     19  C   LIG    1        2.391   1.511  -1.006  0.00  0.00    +0.112 C 
ATOM     20  C   LIG    1        2.170   2.036   0.398  0.00  0.00    +0.101 C 
ATOM     21  N   LIG    1        3.384   2.174   1.137  0.00  0.00    -0.297 NA
ATOM     22  C   LIG    1        3.192   2.781   2.416  0.00  0.00    +0.105 C 
ATOM     23  C   LIG    1        4.154   0.973   1.245  0.00  0.00    +0.091 C 
ATOM     24  C   LIG    1        5.563   1.244   1.703  0.00  0.00    +0.061 C 
ATOM     25  C   LIG    1        6.424   0.062   1.639  0.00  0.00    -0.020 A 
ATOM     26  C   LIG    1        7.615  -0.336   2.261  0.00  0.00    +0.087 A 
ATOM     27  N   LIG    1        7.959  -1.575   1.792  0.00  0.00    -0.360 N 
ATOM     28  H   LIG    1        8.798  -2.142   2.064  0.00  0.00    +0.165 HD
ATOM     29  C   LIG    1        7.051  -1.998   0.899  0.00  0.00    +0.047 A 
ATOM     30  C   LIG    1        6.819  -3.098   0.099  0.00  0.00    +0.026 A 
ATOM     31  C   LIG    1        5.696  -3.155  -0.736  0.00  0.00    +0.003 A 
ATOM     32  C   LIG    1        4.770  -2.114  -0.797  0.00  0.00    +0.009 A 
ATOM     33  C   LIG    1        5.027  -1.028   0.012  0.00  0.00    -0.011 A 
ATOM     34  C   LIG    1        6.135  -0.997   0.821  0.00  0.00    +0.010 A 
ATOM     35  C   LIG    1        4.100   0.130   0.015  0.00  0.00    -0.025 C 
ATOM     36  C   LIG    1        3.314   0.352  -1.018  0.00  0.00    -0.007 C 
ENDBRANCH  17  19
ENDBRANCH  12  15
BRANCH  12  37
ATOM     37  C   LIG    1       -0.756  -0.427  -3.308  0.00  0.00    +0.043 C 
ATOM     38  C   LIG    1        0.117  -1.625  -3.484  0.00  0.00    +0.012 C 
ATOM     39  C   LIG    1       -2.106  -0.739  -3.960  0.00  0.00    +0.012 C 
ENDBRANCH  12  37
BRANCH   1  40
ATOM     40  O   LIG    1       -2.244   1.247   0.487  0.00  0.00    -0.348 OA
ATOM     41  H   LIG    1       -1.610   0.610   0.895  0.00  0.00    +0.214 HD
ENDBRANCH   1  40
BRANCH   3  42
ATOM     42  C   LIG    1       -4.191  -2.057   0.920  0.00  0.00    +0.015 C 
ATOM     43  C   LIG    1       -3.517  -3.395   0.706  0.00  0.00    +0.010 C 
BRANCH  42  44
ATOM     44  C   LIG    1       -3.720  -1.440   2.174  0.00  0.00    +0.002 C 
ATOM     45  C   LIG    1       -4.490  -0.291   2.709  0.00  0.00    +0.004 C 
ENDBRANCH  42  44
ENDBRANCH   3  42
TORSDOF 6
