REMARK  Name = molecules/YZBLFMPOMVTDJY-GDOMHOGYSA-N.pdb
REMARK                            x       y       z     vdW  Elec       q    Type
REMARK                         _______ _______ _______ _____ _____    ______ ____
ROOT
ATOM      1  O   LIG    1        1.799  -1.098   0.044  0.00  0.00    -0.345 OA
ATOM      2  C   LIG    1        0.924  -1.698   0.838  0.00  0.00    +0.125 C 
ATOM      3  C   LIG    1       -0.385  -1.032   1.098  0.00  0.00    +0.076 C 
ATOM      4  C   LIG    1       -0.260   0.460   1.198  0.00  0.00    +0.184 C 
ATOM      5  O   LIG    1       -1.378   1.146   1.563  0.00  0.00    -0.461 OA
ATOM      6  C   LIG    1       -2.709   1.017   1.485  0.00  0.00    +0.317 C 
ATOM      7  O   LIG    1       -3.422   0.668   2.454  0.00  0.00    -0.250 OA
ATOM      8  C   LIG    1       -3.428   1.297   0.192  0.00  0.00    +0.155 C 
ATOM      9  C   LIG    1       -4.899   1.206   0.335  0.00  0.00    +0.120 C 
ATOM     10  C   LIG    1       -5.539   0.022  -0.306  0.00  0.00    +0.041 C 
ATOM     11  C   LIG    1       -5.779  -1.139   0.269  0.00  0.00    +0.009 C 
ATOM     12  C   LIG    1       -4.839  -1.933   1.046  0.00  0.00    +0.000 C 
ATOM     13  C   LIG    1       -3.663  -2.376   0.612  0.00  0.00    -0.001 C 
ATOM     14  C   LIG    1       -3.317  -2.717  -0.767  0.00  0.00    -0.010 C 
ATOM     15  C   LIG    1       -2.248  -3.780  -0.867  0.00  0.00    +0.011 C 
ATOM     16  C   LIG    1       -1.663  -4.144   0.434  0.00  0.00    -0.023 C 
ATOM     17  C   LIG    1       -2.332  -5.223   1.218  0.00  0.00    +0.012 C 
ATOM     18  C   LIG    1       -0.586  -3.590   0.975  0.00  0.00    +0.002 C 
ATOM     19  C   LIG    1       -4.508  -3.189  -1.577  0.00  0.00    +0.008 C 
ATOM     20  C   LIG    1       -5.849   0.496  -1.681  0.00  0.00    +0.171 C 
ATOM     21  O   LIG    1       -5.459   1.824  -1.738  0.00  0.00    -0.370 OA
ATOM     22  C   LIG    1       -5.630   2.282  -0.471  0.00  0.00    +0.184 C 
ATOM     23  C   LIG    1       -5.059   3.642  -0.212  0.00  0.00    +0.172 C 
ATOM     24  C   LIG    1       -3.602   3.658  -0.465  0.00  0.00    -0.045 C 
ATOM     25  C   LIG    1       -3.011   4.964  -0.943  0.00  0.00    +0.041 C 
ATOM     26  C   LIG    1       -2.889   2.587  -0.276  0.00  0.00    -0.008 C 
ATOM     27  C   LIG    1        0.405   0.880  -0.094  0.00  0.00    +0.110 C 
ATOM     28  C   LIG    1        0.585  -3.078   0.248  0.00  0.00    +0.036 C 
ATOM     29  C   LIG    1        1.705   0.199  -0.285  0.00  0.00    +0.180 C 
ATOM     30  O   LIG    1        2.674   0.921   0.436  0.00  0.00    -0.340 OA
ATOM     31  C   LIG    1        3.922   0.276   0.295  0.00  0.00    +0.155 C 
ATOM     32  C   LIG    1        4.532   0.835  -0.952  0.00  0.00    +0.067 C 
ATOM     33  C   LIG    1        5.601  -0.097  -1.439  0.00  0.00    +0.017 C 
ATOM     34  C   LIG    1        3.431   0.871  -1.971  0.00  0.00    +0.068 C 
ATOM     35  N   LIG    1        3.714   1.402  -3.105  0.00  0.00    -0.094 NA
ATOM     36  C   LIG    1        2.086   0.346  -1.756  0.00  0.00    +0.119 C 
ENDROOT
BRANCH  31  37
ATOM     37  C   LIG    1        4.763   0.413   1.492  0.00  0.00    -0.047 C 
ATOM     38  C   LIG    1        4.261  -0.104   2.794  0.00  0.00    +0.041 C 
ATOM     39  C   LIG    1        5.957   0.990   1.422  0.00  0.00    -0.023 C 
BRANCH  39  40
ATOM     40  C   LIG    1        6.757   1.096   2.672  0.00  0.00    +0.006 C 
ATOM     41  C   LIG    1        7.061   2.545   3.014  0.00  0.00    +0.011 C 
ATOM     42  C   LIG    1        8.113   0.455   2.353  0.00  0.00    +0.011 C 
ENDBRANCH  39  40
ENDBRANCH  31  37
BRANCH   9  43
ATOM     43  O   LIG    1       -5.280   1.394   1.641  0.00  0.00    -0.384 OA
ATOM     44  H   LIG    1       -5.567   2.297   1.874  0.00  0.00    +0.210 HD
ENDBRANCH   9  43
BRANCH  23  45
ATOM     45  O   LIG    1       -5.656   4.514  -1.137  0.00  0.00    -0.385 OA
ATOM     46  H   LIG    1       -5.530   4.239  -2.063  0.00  0.00    +0.210 HD
ENDBRANCH  23  45
BRANCH  35  47
ATOM     47  O   LIG    1        2.794   1.499  -4.134  0.00  0.00    -0.397 OA
ATOM     48  C   LIG    1        2.962   0.687  -5.295  0.00  0.00    +0.313 C 
ENDBRANCH  35  47
TORSDOF 5
