REMARK  Name = molecules/YZQNFFLGIYEXMM-OAHLLOKOSA-N.pdb
REMARK                            x       y       z     vdW  Elec       q    Type
REMARK                         _______ _______ _______ _____ _____    ______ ____
ROOT
ATOM      1  N   LIG    1        1.430   0.118  -0.442  0.00  0.00    -0.311 N 
ATOM      2  C   LIG    1        2.139  -1.012   0.127  0.00  0.00    +0.045 A 
ATOM      3  C   LIG    1        3.207  -0.922   0.979  0.00  0.00    +0.034 A 
ATOM      4  C   LIG    1        3.867  -2.008   1.500  0.00  0.00    +0.017 A 
ATOM      5  C   LIG    1        3.460  -3.276   1.173  0.00  0.00    +0.001 A 
ATOM      6  C   LIG    1        2.390  -3.421   0.319  0.00  0.00    +0.002 A 
ATOM      7  S   LIG    1        3.813   0.684   1.433  0.00  0.00    -0.089 S 
ATOM      8  C   LIG    1        2.785   1.868   0.629  0.00  0.00    +0.020 C 
ATOM      9  C   LIG    1        3.050   3.179   0.849  0.00  0.00    +0.013 C 
ATOM     10  C   LIG    1        2.299   4.154   0.266  0.00  0.00    +0.001 C 
ATOM     11  C   LIG    1        1.262   3.812  -0.557  0.00  0.00    -0.002 C 
ATOM     12  C   LIG    1        0.993   2.489  -0.781  0.00  0.00    +0.007 C 
ATOM     13  C   LIG    1        1.739  -2.308  -0.199  0.00  0.00    +0.024 A 
ATOM     14  C   LIG    1        1.753   1.467  -0.190  0.00  0.00    +0.115 C 
ENDROOT
BRANCH   1  15
ATOM     15  C   LIG    1        0.316  -0.232  -1.292  0.00  0.00    +0.126 C 
BRANCH  15  16
ATOM     16  C   LIG    1       -0.957  -0.584  -0.578  0.00  0.00    +0.087 C 
BRANCH  16  17
ATOM     17  N   LIG    1       -1.903  -1.131  -1.457  0.00  0.00    -0.303 NA
ATOM     18  C   LIG    1       -2.629  -2.265  -1.030  0.00  0.00    +0.105 C 
ATOM     19  C   LIG    1       -2.010  -0.697  -2.780  0.00  0.00    +0.105 C 
ENDBRANCH  16  17
BRANCH  16  20
ATOM     20  C   LIG    1       -1.546   0.614   0.185  0.00  0.00    +0.104 C 
BRANCH  20  21
ATOM     21  N   LIG    1       -2.771   0.194   0.855  0.00  0.00    -0.307 NA
ATOM     22  C   LIG    1       -2.427  -0.126   2.274  0.00  0.00    +0.104 C 
ATOM     23  C   LIG    1       -3.585   1.431   1.010  0.00  0.00    +0.104 C 
ENDBRANCH  20  21
ENDBRANCH  16  20
ENDBRANCH  15  16
ENDBRANCH   1  15
TORSDOF 5
