REMARK  Name = molecules/ZBGXUVOIWDMMJE-QHNZEKIYSA-N.pdb
REMARK                            x       y       z     vdW  Elec       q    Type
REMARK                         _______ _______ _______ _____ _____    ______ ____
ROOT
ATOM      1  C   LIG    1       -0.402  -1.618   0.802  0.00  0.00    +0.022 C 
ATOM      2  C   LIG    1       -0.510  -2.988   0.293  0.00  0.00    +0.050 C 
ATOM      3  C   LIG    1       -1.872  -3.450  -0.146  0.00  0.00    +0.105 C 
ATOM      4  C   LIG    1       -1.550  -4.670  -0.890  0.00  0.00    +0.311 C 
ATOM      5  O   LIG    1       -2.268  -5.688  -0.968  0.00  0.00    -0.251 OA
ATOM      6  O   LIG    1       -0.336  -4.487  -1.474  0.00  0.00    -0.461 OA
ATOM      7  C   LIG    1       -2.479  -2.377  -1.042  0.00  0.00    +0.019 C 
ATOM      8  C   LIG    1       -2.695  -1.221  -0.126  0.00  0.00    -0.005 C 
ATOM      9  C   LIG    1       -3.531  -0.117  -0.715  0.00  0.00    +0.026 C 
ATOM     10  C   LIG    1       -4.087   0.627   0.510  0.00  0.00    +0.076 C 
ATOM     11  C   LIG    1       -3.100   0.590   1.648  0.00  0.00    +0.023 C 
ATOM     12  C   LIG    1       -1.673   0.513   1.221  0.00  0.00    +0.006 C 
ATOM     13  C   LIG    1        0.329  -3.340  -0.910  0.00  0.00    +0.178 C 
ATOM     14  C   LIG    1        1.714  -3.817  -0.550  0.00  0.00    +0.052 C 
ATOM     15  C   LIG    1       -1.365  -0.608   0.253  0.00  0.00    -0.000 C 
ENDROOT
BRANCH  10  16
ATOM     16  N   LIG    1       -4.564   1.928   0.189  0.00  0.00    -0.278 N 
ATOM     17  C   LIG    1       -5.936   2.272   0.298  0.00  0.00    +0.400 C 
ATOM     18  O   LIG    1       -6.779   1.397   0.696  0.00  0.00    -0.226 OA
ATOM     19  H   LIG    1       -3.904   2.661  -0.137  0.00  0.00    +0.152 HD
BRANCH  17  20
ATOM     20  O   LIG    1       -6.444   3.511   0.001  0.00  0.00    -0.451 OA
BRANCH  20  21
ATOM     21  C   LIG    1       -7.819   3.791   0.130  0.00  0.00    +0.230 C 
ATOM     22  C   LIG    1       -8.680   2.911  -0.739  0.00  0.00    +0.048 C 
ENDBRANCH  20  21
ENDBRANCH  17  20
ENDBRANCH  10  16
BRANCH   1  23
ATOM     23  C   LIG    1        1.013  -1.171   0.763  0.00  0.00    -0.021 C 
ATOM     24  C   LIG    1        1.427  -0.024   0.308  0.00  0.00    +0.024 C 
BRANCH  24  25
ATOM     25  C   LIG    1        2.853   0.322   0.314  0.00  0.00    +0.064 A 
ATOM     26  N   LIG    1        3.795  -0.524   0.787  0.00  0.00    -0.255 NA
ATOM     27  C   LIG    1        5.104  -0.227   0.802  0.00  0.00    +0.120 A 
ATOM     28  C   LIG    1        5.592   0.989   0.324  0.00  0.00    +0.000 A 
ATOM     29  C   LIG    1        4.645   1.868  -0.165  0.00  0.00    +0.012 A 
ATOM     30  C   LIG    1        3.308   1.532  -0.166  0.00  0.00    +0.028 A 
BRANCH  28  31
ATOM     31  C   LIG    1        6.992   1.315   0.335  0.00  0.00    -0.014 A 
ATOM     32  C   LIG    1        7.423   2.602   0.494  0.00  0.00    +0.047 A 
ATOM     33  C   LIG    1        8.781   2.917   0.504  0.00  0.00    +0.124 A 
ATOM     34  F   LIG    1        9.200   4.208   0.663  0.00  0.00    -0.205 F 
ATOM     35  C   LIG    1        9.735   1.932   0.353  0.00  0.00    +0.038 A 
ATOM     36  C   LIG    1        9.293   0.638   0.194  0.00  0.00    +0.003 A 
ATOM     37  C   LIG    1        7.951   0.329   0.184  0.00  0.00    +0.009 A 
ENDBRANCH  28  31
ENDBRANCH  24  25
ENDBRANCH   1  23
TORSDOF 6
