REMARK  Name = molecules/ZBMZVLHSJCTVON-GFCCVEGCSA-N.pdb
REMARK                            x       y       z     vdW  Elec       q    Type
REMARK                         _______ _______ _______ _____ _____    ______ ____
ROOT
ATOM      1  C   LIG    1        0.090  -1.107   0.539  0.00  0.00    -0.018 A 
ATOM      2  C   LIG    1        0.881  -0.101   1.046  0.00  0.00    +0.008 A 
ATOM      3  C   LIG    1        2.062   0.234   0.428  0.00  0.00    +0.025 A 
ATOM      4  C   LIG    1        2.507  -0.404  -0.706  0.00  0.00    +0.048 A 
ATOM      5  C   LIG    1        1.673  -1.421  -1.190  0.00  0.00    +0.025 A 
ATOM      6  C   LIG    1        0.495  -1.773  -0.595  0.00  0.00    +0.008 A 
ENDROOT
BRANCH   4   7
ATOM      7  N   LIG    1        3.702  -0.108  -1.387  0.00  0.00    -0.221 N 
ATOM      8  H   LIG    1        3.604  -0.029  -2.446  0.00  0.00    +0.173 HD
BRANCH   7   9
ATOM      9  S   LIG    1        5.244   0.134  -0.738  0.00  0.00    +0.040 S 
ATOM     10  C   LIG    1        5.226   1.536   0.350  0.00  0.00    +0.218 C 
ATOM     11  O   LIG    1        5.741  -1.026   0.077  0.00  0.00    -0.155 OA
ATOM     12  O   LIG    1        6.257   0.394  -1.838  0.00  0.00    -0.155 OA
ENDBRANCH   7   9
ENDBRANCH   4   7
BRANCH   1  13
ATOM     13  C   LIG    1       -1.207  -1.476   1.216  0.00  0.00    +0.158 C 
BRANCH  13  14
ATOM     14  O   LIG    1       -1.258  -2.868   1.284  0.00  0.00    -0.386 OA
ATOM     15  H   LIG    1       -1.601  -3.285   0.471  0.00  0.00    +0.210 HD
ENDBRANCH  13  14
BRANCH  13  16
ATOM     16  C   LIG    1       -2.344  -1.009   0.327  0.00  0.00    +0.117 C 
BRANCH  16  17
ATOM     17  N   LIG    1       -2.348   0.438   0.213  0.00  0.00    -0.311 NA
ATOM     18  H   LIG    1       -2.436   0.821   1.182  0.00  0.00    +0.122 HD
BRANCH  17  19
ATOM     19  C   LIG    1       -3.446   0.824  -0.642  0.00  0.00    +0.048 C 
ATOM     20  C   LIG    1       -4.725   0.312  -0.016  0.00  0.00    +0.023 C 
ATOM     21  C   LIG    1       -3.478   2.333  -0.782  0.00  0.00    +0.023 C 
ENDBRANCH  17  19
ENDBRANCH  16  17
ENDBRANCH  13  16
ENDBRANCH   1  13
TORSDOF 7
