REMARK  Name = molecules/ZBNARPCCDMHDDV-HVMBLDELSA-N.pdb
REMARK                            x       y       z     vdW  Elec       q    Type
REMARK                         _______ _______ _______ _____ _____    ______ ____
ROOT
ATOM      1  C   LIG    1       -3.580  -0.221  -0.453  0.00  0.00    +0.089 A 
ATOM      2  C   LIG    1       -2.876  -0.391   0.722  0.00  0.00    -0.023 A 
ATOM      3  C   LIG    1       -3.599  -0.496   2.042  0.00  0.00    +0.046 C 
ATOM      4  C   LIG    1       -1.501  -0.461   0.662  0.00  0.00    +0.014 A 
ATOM      5  C   LIG    1       -0.768  -0.372  -0.505  0.00  0.00    -0.017 A 
ATOM      6  C   LIG    1       -1.478  -0.202  -1.675  0.00  0.00    +0.010 A 
ATOM      7  C   LIG    1       -2.855  -0.129  -1.645  0.00  0.00    +0.030 A 
ENDROOT
BRANCH   5   8
ATOM      8  C   LIG    1        0.673  -0.454  -0.496  0.00  0.00    -0.017 A 
ATOM      9  C   LIG    1        1.367  -1.213   0.416  0.00  0.00    +0.014 A 
ATOM     10  C   LIG    1        2.747  -1.283   0.420  0.00  0.00    -0.023 A 
ATOM     11  C   LIG    1        3.487  -2.105   1.406  0.00  0.00    +0.046 C 
ATOM     12  C   LIG    1        3.437  -0.565  -0.525  0.00  0.00    +0.089 A 
ATOM     13  C   LIG    1        2.779   0.219  -1.471  0.00  0.00    +0.030 A 
ATOM     14  C   LIG    1        1.397   0.248  -1.423  0.00  0.00    +0.010 A 
BRANCH  12  15
ATOM     15  N   LIG    1        4.865  -0.647  -0.504  0.00  0.00    -0.149 NA
ATOM     16  N   LIG    1        5.609   0.351  -0.440  0.00  0.00    -0.144 NA
BRANCH  16  17
ATOM     17  C   LIG    1        7.022   0.353  -0.415  0.00  0.00    +0.155 A 
ATOM     18  C   LIG    1        7.727  -0.237   0.610  0.00  0.00    +0.155 A 
ATOM     19  C   LIG    1        9.107  -0.216   0.602  0.00  0.00    +0.047 A 
ATOM     20  C   LIG    1        9.866  -0.792   1.605  0.00  0.00    +0.038 A 
ATOM     21  C   LIG    1       11.247  -0.756   1.573  0.00  0.00    +0.053 A 
ATOM     22  C   LIG    1       11.879  -0.140   0.532  0.00  0.00    +0.119 A 
ATOM     23  C   LIG    1       11.118   0.432  -0.463  0.00  0.00    +0.038 A 
ATOM     24  C   LIG    1        9.737   0.418  -0.469  0.00  0.00    -0.009 A 
ATOM     25  C   LIG    1        9.035   1.005  -1.488  0.00  0.00    +0.040 A 
ATOM     26  C   LIG    1        7.673   0.982  -1.476  0.00  0.00    +0.148 A 
BRANCH  20  27
ATOM     27  N   LIG    1        9.172  -1.418   2.661  0.00  0.00    -0.357 N 
ATOM     28  H   LIG    1        9.130  -0.929   3.581  0.00  0.00    +0.142 HD
ATOM     29  H   LIG    1        8.697  -2.349   2.572  0.00  0.00    +0.142 HD
ENDBRANCH  20  27
BRANCH  22  30
ATOM     30  S   LIG    1       13.620  -0.040   0.400  0.00  0.00    +0.110 S 
ATOM     31  O   LIG    1       14.248  -0.011   1.769  0.00  0.00    -0.142 OA
ATOM     32  O   LIG    1       14.021   1.162  -0.413  0.00  0.00    -0.142 OA
BRANCH  30  33
ATOM     33  O   LIG    1       14.125  -1.403  -0.455  0.00  0.00    -0.250 OA
ATOM     34  H   LIG    1       13.572  -2.161  -0.176  0.00  0.00    +0.245 HD
ENDBRANCH  30  33
ENDBRANCH  22  30
BRANCH  26  35
ATOM     35  S   LIG    1        6.735   1.717  -2.754  0.00  0.00    +0.112 S 
ATOM     36  O   LIG    1        5.896   2.850  -2.209  0.00  0.00    -0.142 OA
ATOM     37  O   LIG    1        5.844   0.681  -3.420  0.00  0.00    -0.142 OA
BRANCH  35  38
ATOM     38  O   LIG    1        7.792   2.385  -3.872  0.00  0.00    -0.250 OA
ATOM     39  H   LIG    1        8.348   3.041  -3.367  0.00  0.00    +0.245 HD
ENDBRANCH  35  38
ENDBRANCH  26  35
BRANCH  18  40
ATOM     40  O   LIG    1        7.097  -0.866   1.673  0.00  0.00    -0.504 OA
ATOM     41  H   LIG    1        6.090  -0.886   1.690  0.00  0.00    +0.292 HD
ENDBRANCH  18  40
ENDBRANCH  16  17
ENDBRANCH  12  15
ENDBRANCH   5   8
BRANCH   1  43
ATOM     42  N   LIG    1       -5.587   0.797   0.159  0.00  0.00    -0.144 NA
ATOM     43  N   LIG    1       -5.000  -0.143  -0.456  0.00  0.00    -0.149 NA
BRANCH  42  53
ATOM     44  C   LIG    1       -7.799  -0.214   0.591  0.00  0.00    +0.155 A 
ATOM     45  C   LIG    1       -9.186  -0.194   0.546  0.00  0.00    +0.047 A 
ATOM     46  C   LIG    1       -9.959  -1.230   1.030  0.00  0.00    +0.038 A 
ATOM     47  C   LIG    1      -11.331  -1.196   0.979  0.00  0.00    +0.053 A 
ATOM     48  C   LIG    1      -11.930  -0.070   0.417  0.00  0.00    +0.119 A 
ATOM     49  C   LIG    1      -11.168   0.986  -0.077  0.00  0.00    +0.038 A 
ATOM     50  C   LIG    1       -9.793   0.913  -0.006  0.00  0.00    -0.009 A 
ATOM     51  C   LIG    1       -9.057   1.978  -0.505  0.00  0.00    +0.040 A 
ATOM     52  C   LIG    1       -7.683   1.899  -0.431  0.00  0.00    +0.148 A 
ATOM     53  C   LIG    1       -7.021   0.813   0.113  0.00  0.00    +0.155 A 
BRANCH  52  54
ATOM     54  S   LIG    1       -6.705   3.209  -1.042  0.00  0.00    +0.112 S 
ATOM     55  O   LIG    1       -7.566   4.335  -1.544  0.00  0.00    -0.142 OA
ATOM     56  O   LIG    1       -5.801   2.759  -2.143  0.00  0.00    -0.142 OA
BRANCH  54  57
ATOM     57  O   LIG    1       -5.758   3.846   0.206  0.00  0.00    -0.250 OA
ATOM     58  H   LIG    1       -5.659   3.146   0.899  0.00  0.00    +0.245 HD
ENDBRANCH  54  57
ENDBRANCH  52  54
BRANCH  48  59
ATOM     59  S   LIG    1      -13.666   0.078   0.302  0.00  0.00    +0.110 S 
ATOM     60  O   LIG    1      -14.377  -0.605   1.413  0.00  0.00    -0.142 OA
ATOM     61  O   LIG    1      -14.031   1.552   0.343  0.00  0.00    -0.142 OA
BRANCH  59  62
ATOM     62  O   LIG    1      -14.227  -0.564  -1.156  0.00  0.00    -0.250 OA
ATOM     63  H   LIG    1      -13.489  -0.909  -1.719  0.00  0.00    +0.245 HD
ENDBRANCH  59  62
ENDBRANCH  48  59
BRANCH  46  64
ATOM     64  N   LIG    1       -9.336  -2.376   1.602  0.00  0.00    -0.357 N 
ATOM     65  H   LIG    1       -9.392  -2.602   2.632  0.00  0.00    +0.142 HD
ATOM     66  H   LIG    1       -8.779  -3.066   1.022  0.00  0.00    +0.142 HD
ENDBRANCH  46  64
BRANCH  44  67
ATOM     67  O   LIG    1       -7.211  -1.323   1.145  0.00  0.00    -0.504 OA
ATOM     68  H   LIG    1       -6.216  -1.402   1.207  0.00  0.00    +0.292 HD
ENDBRANCH  44  67
ENDBRANCH  42  53
ENDBRANCH   1  43
TORSDOF 17
