REMARK  Name = molecules/ZBNBQISDCFIEQC-UHFFFAOYSA-N.pdb
REMARK                            x       y       z     vdW  Elec       q    Type
REMARK                         _______ _______ _______ _____ _____    ______ ____
ROOT
ATOM      1  C   LIG    1        0.285   0.501  -0.113  0.00  0.00    +0.162 C 
ENDROOT
BRANCH   1   2
ATOM      2  S   LIG    1       -1.124  -0.575  -0.257  0.00  0.00    -0.125 S 
BRANCH   2   3
ATOM      3  C   LIG    1       -1.109  -1.910   0.927  0.00  0.00    +0.191 C 
BRANCH   3   4
ATOM      4  C   LIG    1       -2.339  -2.735   0.809  0.00  0.00    +0.315 C 
ATOM      5  O   LIG    1       -2.505  -3.709   1.561  0.00  0.00    -0.250 OA
BRANCH   4   6
ATOM      6  O   LIG    1       -3.276  -2.402  -0.138  0.00  0.00    -0.480 OA
ATOM      7  H   LIG    1       -4.191  -2.087   0.214  0.00  0.00    +0.295 HD
ENDBRANCH   4   6
ENDBRANCH   3   4
ENDBRANCH   2   3
ENDBRANCH   1   2
BRANCH   1   8
ATOM      8  S   LIG    1        1.847  -0.171  -0.597  0.00  0.00    -0.125 S 
BRANCH   8   9
ATOM      9  C   LIG    1        2.550  -1.461   0.394  0.00  0.00    +0.191 C 
BRANCH   9  10
ATOM     10  C   LIG    1        3.920  -1.775  -0.162  0.00  0.00    +0.315 C 
ATOM     11  O   LIG    1        4.352  -1.147  -1.151  0.00  0.00    -0.250 OA
BRANCH  10  12
ATOM     12  O   LIG    1        4.715  -2.752   0.406  0.00  0.00    -0.480 OA
ATOM     13  H   LIG    1        5.646  -2.615   0.749  0.00  0.00    +0.295 HD
ENDBRANCH  10  12
ENDBRANCH   9  10
ENDBRANCH   8   9
ENDBRANCH   1   8
BRANCH   1  14
ATOM     14  S   LIG    1       -0.002   1.983  -1.181  0.00  0.00    -0.125 S 
BRANCH  14  15
ATOM     15  C   LIG    1       -1.387   2.929  -0.516  0.00  0.00    +0.191 C 
BRANCH  15  16
ATOM     16  C   LIG    1       -1.610   4.111  -1.363  0.00  0.00    +0.315 C 
ATOM     17  O   LIG    1       -0.892   4.320  -2.350  0.00  0.00    -0.250 OA
BRANCH  16  18
ATOM     18  O   LIG    1       -2.645   4.996  -1.036  0.00  0.00    -0.480 OA
ATOM     19  H   LIG    1       -2.520   5.564  -0.212  0.00  0.00    +0.295 HD
ENDBRANCH  16  18
ENDBRANCH  15  16
ENDBRANCH  14  15
ENDBRANCH   1  14
TORSDOF 12
