REMARK  Name = molecules/ZBPLOVFIXSTCRZ-UHFFFAOYSA-N.pdb
REMARK                            x       y       z     vdW  Elec       q    Type
REMARK                         _______ _______ _______ _____ _____    ______ ____
ROOT
ATOM      1  C   LIG    1       -0.086  -0.256   0.121  0.00  0.00    +0.016 A 
ATOM      2  C   LIG    1       -0.020  -1.391   0.885  0.00  0.00    +0.009 A 
ATOM      3  C   LIG    1       -1.174  -2.118   1.225  0.00  0.00    +0.001 A 
ATOM      4  C   LIG    1       -2.405  -1.682   0.782  0.00  0.00    +0.006 A 
ATOM      5  C   LIG    1       -2.514  -0.536   0.007  0.00  0.00    -0.016 A 
ATOM      6  C   LIG    1       -1.362   0.134  -0.296  0.00  0.00    +0.035 A 
ENDROOT
BRANCH   6   7
ATOM      7  N   LIG    1       -1.461   1.303  -1.087  0.00  0.00    -0.357 N 
ATOM      8  H   LIG    1       -1.593   2.236  -0.633  0.00  0.00    +0.142 HD
ATOM      9  H   LIG    1       -1.405   1.256  -2.133  0.00  0.00    +0.142 HD
ENDBRANCH   6   7
BRANCH   1  10
ATOM     10  C   LIG    1        1.084   0.535  -0.200  0.00  0.00    +0.196 C 
ATOM     11  O   LIG    1        0.830   1.652  -0.794  0.00  0.00    -0.213 OA
BRANCH  10  12
ATOM     12  C   LIG    1        2.458   0.234   0.059  0.00  0.00    -0.005 A 
ATOM     13  C   LIG    1        3.285   1.296   0.424  0.00  0.00    +0.008 A 
ATOM     14  C   LIG    1        4.612   1.063   0.631  0.00  0.00    +0.015 A 
ATOM     15  C   LIG    1        5.121  -0.195   0.483  0.00  0.00    +0.018 A 
ATOM     16 BR   LIG    1        6.995  -0.489   0.785  0.00  0.00    -0.050 Br
ATOM     17  C   LIG    1        4.318  -1.229   0.127  0.00  0.00    +0.015 A 
ATOM     18  C   LIG    1        2.957  -1.033  -0.095  0.00  0.00    +0.008 A 
ENDBRANCH  10  12
ENDBRANCH   1  10
BRANCH   5  19
ATOM     19  C   LIG    1       -3.854  -0.081  -0.461  0.00  0.00    +0.157 C 
BRANCH  19  20
ATOM     20  C   LIG    1       -4.338   1.081   0.321  0.00  0.00    +0.309 C 
ATOM     21  O   LIG    1       -3.628   1.556   1.250  0.00  0.00    -0.251 OA
BRANCH  20  22
ATOM     22  O   LIG    1       -5.574   1.627   0.010  0.00  0.00    -0.480 OA
ATOM     23  H   LIG    1       -5.638   2.657  -0.005  0.00  0.00    +0.295 HD
ENDBRANCH  20  22
ENDBRANCH  19  20
ENDBRANCH   5  19
TORSDOF 6
