REMARK  Name = molecules/ZCCUWMICIWSJIX-NQJJCJBVSA-N.pdb
REMARK                            x       y       z     vdW  Elec       q    Type
REMARK                         _______ _______ _______ _____ _____    ______ ____
ROOT
ATOM      1  CA  LIG    1       -1.833  -2.364  -1.476  0.00  0.00    +0.191 C 
ATOM      2  C   LIG    1       -1.235  -2.914  -0.188  0.00  0.00    +0.244 C 
ATOM      3  O   LIG    1       -1.568  -3.755   0.643  0.00  0.00    -0.273 OA
ATOM      4  N   LIG    1       -0.130  -2.029  -0.380  0.00  0.00    -0.248 N 
ATOM      5  CA  LIG    1        0.945  -1.382   0.244  0.00  0.00    +0.137 C 
ATOM      6  C   LIG    1        1.175  -0.114  -0.011  0.00  0.00    +0.031 C 
ATOM      7  C   LIG    1        0.394   0.743  -0.927  0.00  0.00    +0.115 C 
ATOM      8  S   LIG    1       -0.248  -0.214  -2.299  0.00  0.00    -0.130 S 
ATOM      9  C   LIG    1       -0.476  -1.914  -1.801  0.00  0.00    +0.169 C 
ENDROOT
BRANCH   1  12
ATOM     10  C   LIG    1       -3.821  -1.387  -0.255  0.00  0.00    +0.270 C 
ATOM     11  O   LIG    1       -3.797  -2.474   0.401  0.00  0.00    -0.268 OA
ATOM     12  N   LIG    1       -2.763  -1.283  -1.220  0.00  0.00    -0.296 N 
ATOM     13  H   LIG    1       -2.620  -0.427  -1.774  0.00  0.00    +0.150 HD
BRANCH  10  15
ATOM     14  N   LIG    1       -5.634  -0.550   0.846  0.00  0.00    -0.076 NA
ATOM     15  C   LIG    1       -4.777  -0.413  -0.042  0.00  0.00    +0.208 C 
BRANCH  15  16
ATOM     16  C   LIG    1       -4.989   0.779  -0.988  0.00  0.00    +0.197 A 
ATOM     17  N   LIG    1       -6.016   1.544  -0.784  0.00  0.00    -0.202 NA
ATOM     18  C   LIG    1       -6.292   2.509  -1.641  0.00  0.00    +0.187 A 
ATOM     19  S   LIG    1       -5.023   2.331  -2.793  0.00  0.00    +0.050 S 
ATOM     20  N   LIG    1       -4.237   0.990  -2.041  0.00  0.00    -0.185 NA
BRANCH  18  21
ATOM     21  N   LIG    1       -7.407   3.435  -1.611  0.00  0.00    -0.230 N 
ATOM     22  H   LIG    1       -7.575   4.008  -2.415  0.00  0.00    +0.160 HD
BRANCH  21  23
ATOM     23  P   LIG    1       -8.367   3.467  -0.183  0.00  0.00    +0.423 P 
ATOM     24  O   LIG    1       -7.539   4.215   0.889  0.00  0.00    -0.237 OA
BRANCH  23  25
ATOM     25  O   LIG    1       -8.746   1.903   0.391  0.00  0.00    -0.310 OA
ATOM     26  H   LIG    1       -7.863   1.514   0.725  0.00  0.00    +0.221 HD
ENDBRANCH  23  25
BRANCH  23  27
ATOM     27  O   LIG    1       -9.805   4.322  -0.372  0.00  0.00    -0.310 OA
ATOM     28  H   LIG    1       -9.859   5.077   0.298  0.00  0.00    +0.221 HD
ENDBRANCH  23  27
ENDBRANCH  21  23
ENDBRANCH  18  21
ENDBRANCH  15  16
BRANCH  14  29
ATOM     29  O   LIG    1       -6.061  -1.359   1.767  0.00  0.00    -0.393 OA
BRANCH  29  31
ATOM     30  C   LIG    1       -7.963  -2.794   1.742  0.00  0.00    +0.051 C 
ATOM     31  C   LIG    1       -6.368  -2.708   1.638  0.00  0.00    +0.259 C 
ENDBRANCH  29  31
ENDBRANCH  14  29
ENDBRANCH  10  15
ENDBRANCH   1  12
BRANCH   5  32
ATOM     32  C   LIG    1        1.754  -2.107   1.231  0.00  0.00    +0.401 C 
ATOM     33  OXT LIG    1        2.673  -1.444   1.873  0.00  0.00    -0.239 OA
ATOM     34  O   LIG    1        1.592  -3.419   1.519  0.00  0.00    -0.239 OA
ENDBRANCH   5  32
BRANCH   6  35
ATOM     35  S   LIG    1        2.611   0.601   0.822  0.00  0.00    -0.064 S 
BRANCH  35  36
ATOM     36  C   LIG    1        4.076   0.413  -0.219  0.00  0.00    +0.139 A 
ATOM     37  N   LIG    1        5.319   0.693   0.107  0.00  0.00    -0.236 NA
ATOM     38  C   LIG    1        6.285   0.547  -0.739  0.00  0.00    +0.065 A 
ATOM     39  C   LIG    1        5.937   0.070  -2.011  0.00  0.00    +0.072 A 
ATOM     40  S   LIG    1        4.251  -0.112  -1.833  0.00  0.00    -0.069 S 
BRANCH  38  41
ATOM     41  C   LIG    1        7.699   0.709  -0.339  0.00  0.00    +0.070 C 
ATOM     42  C   LIG    1        8.066   0.450   0.962  0.00  0.00    +0.007 C 
ATOM     43  C   LIG    1        9.351   0.610   1.446  0.00  0.00    +0.071 C 
ATOM     44  N   LIG    1       10.327   1.058   0.606  0.00  0.00    -0.316 N 
ATOM     45  C   LIG    1       11.690   1.208   1.083  0.00  0.00    +0.134 C 
ATOM     46  C   LIG    1       10.002   1.331  -0.671  0.00  0.00    +0.071 C 
ATOM     47  C   LIG    1        8.700   1.162  -1.169  0.00  0.00    +0.007 C 
ENDBRANCH  38  41
ENDBRANCH  35  36
ENDBRANCH   6  35
TORSDOF 13
