REMARK  Name = molecules/ZCDNRPPFBQDQHR-SSYATKPKSA-N.pdb
REMARK                            x       y       z     vdW  Elec       q    Type
REMARK                         _______ _______ _______ _____ _____    ______ ____
ROOT
ATOM      1  C   LIG    1       -0.834  -1.455   1.635  0.00  0.00    +0.133 C 
ATOM      2  C   LIG    1        0.255  -2.368   1.131  0.00  0.00    +0.172 C 
ATOM      3  C   LIG    1        0.605  -2.132  -0.305  0.00  0.00    +0.206 C 
ATOM      4  C   LIG    1       -0.437  -1.415  -1.088  0.00  0.00    +0.052 C 
ATOM      5  C   LIG    1       -1.849  -1.685  -0.654  0.00  0.00    +0.011 C 
ATOM      6  C   LIG    1       -2.718  -0.666  -1.363  0.00  0.00    +0.089 C 
ATOM      7  N   LIG    1       -2.783   0.579  -0.617  0.00  0.00    -0.293 NA
ATOM      8  C   LIG    1       -3.619   0.316   0.525  0.00  0.00    +0.104 C 
ATOM      9  C   LIG    1       -3.270  -0.898   1.285  0.00  0.00    +0.030 C 
ATOM     10  C   LIG    1       -5.057   0.277   0.134  0.00  0.00    +0.038 A 
ATOM     11  N   LIG    1       -6.120  -0.497   0.289  0.00  0.00    -0.356 N 
ATOM     12  H   LIG    1       -6.114  -1.395   0.821  0.00  0.00    +0.166 HD
ATOM     13  C   LIG    1       -7.197   0.039  -0.337  0.00  0.00    +0.050 A 
ATOM     14  C   LIG    1       -8.509  -0.365  -0.472  0.00  0.00    +0.071 A 
ATOM     15  C   LIG    1       -9.454   0.358  -1.170  0.00  0.00    +0.122 A 
ATOM     16  C   LIG    1       -9.041   1.542  -1.752  0.00  0.00    +0.046 A 
ATOM     17  C   LIG    1       -7.720   1.984  -1.637  0.00  0.00    +0.014 A 
ATOM     18  C   LIG    1       -6.814   1.224  -0.929  0.00  0.00    +0.003 A 
ATOM     19  C   LIG    1       -5.479   1.370  -0.633  0.00  0.00    -0.016 A 
ATOM     20  C   LIG    1       -4.437   2.382  -0.934  0.00  0.00    +0.053 C 
ATOM     21  C   LIG    1       -3.247   1.606  -1.485  0.00  0.00    +0.090 C 
ATOM     22  C   LIG    1       -2.080  -1.684   0.810  0.00  0.00    +0.012 C 
ENDROOT
BRANCH   1  23
ATOM     23  C   LIG    1       -0.410  -0.075   1.797  0.00  0.00    +0.313 C 
ATOM     24  O   LIG    1        0.700   0.282   1.333  0.00  0.00    -0.250 OA
BRANCH  23  25
ATOM     25  O   LIG    1       -1.145   0.903   2.436  0.00  0.00    -0.468 OA
ATOM     26  C   LIG    1       -0.652   2.220   2.546  0.00  0.00    +0.280 C 
ENDBRANCH  23  25
ENDBRANCH   1  23
BRANCH   2  27
ATOM     27  O   LIG    1       -0.134  -3.678   1.399  0.00  0.00    -0.375 OA
ATOM     28  C   LIG    1        0.724  -4.267   2.356  0.00  0.00    +0.194 C 
ENDBRANCH   2  27
BRANCH  15  29
ATOM     29  O   LIG    1      -10.774  -0.085  -1.283  0.00  0.00    -0.495 OA
ATOM     30  C   LIG    1      -11.139  -1.292  -0.670  0.00  0.00    +0.277 C 
ENDBRANCH  15  29
BRANCH   3  31
ATOM     31  O   LIG    1        1.800  -1.380  -0.383  0.00  0.00    -0.455 OA
BRANCH  31  32
ATOM     32  C   LIG    1        2.988  -1.842  -0.917  0.00  0.00    +0.340 C 
ATOM     33  O   LIG    1        3.004  -3.009  -1.365  0.00  0.00    -0.245 OA
BRANCH  32  34
ATOM     34  C   LIG    1        4.147  -0.964  -0.936  0.00  0.00    +0.066 A 
ATOM     35  C   LIG    1        4.078   0.311  -0.433  0.00  0.00    +0.064 A 
ATOM     36  C   LIG    1        5.183   1.165  -0.445  0.00  0.00    +0.167 A 
ATOM     37  C   LIG    1        6.370   0.669  -0.993  0.00  0.00    +0.218 A 
ATOM     38  C   LIG    1        6.464  -0.604  -1.503  0.00  0.00    +0.167 A 
ATOM     39  C   LIG    1        5.337  -1.396  -1.460  0.00  0.00    +0.064 A 
BRANCH  36  40
ATOM     40  O   LIG    1        5.117   2.460   0.065  0.00  0.00    -0.491 OA
ATOM     41  C   LIG    1        3.883   2.888   0.602  0.00  0.00    +0.277 C 
ENDBRANCH  36  40
BRANCH  38  42
ATOM     42  O   LIG    1        7.661  -1.046  -2.033  0.00  0.00    -0.491 OA
ATOM     43  C   LIG    1        7.700  -2.381  -2.551  0.00  0.00    +0.277 C 
ENDBRANCH  38  42
BRANCH  37  44
ATOM     44  O   LIG    1        7.440   1.556  -0.982  0.00  0.00    -0.387 OA
BRANCH  44  45
ATOM     45  C   LIG    1        8.272   1.613   0.149  0.00  0.00    +0.516 C 
ATOM     46  O   LIG    1        8.029   0.864   1.118  0.00  0.00    -0.202 OA
BRANCH  45  47
ATOM     47  O   LIG    1        9.351   2.463   0.236  0.00  0.00    -0.434 OA
BRANCH  47  48
ATOM     48  C   LIG    1       10.185   2.514   1.385  0.00  0.00    +0.232 C 
ATOM     49  C   LIG    1       10.789   1.163   1.591  0.00  0.00    +0.048 C 
ENDBRANCH  47  48
ENDBRANCH  45  47
ENDBRANCH  44  45
ENDBRANCH  37  44
ENDBRANCH  32  34
ENDBRANCH  31  32
ENDBRANCH   3  31
TORSDOF 13
