REMARK  Name = molecules/ZCGNOVWYSGBHAU-UHFFFAOYSA-N.pdb
REMARK                            x       y       z     vdW  Elec       q    Type
REMARK                         _______ _______ _______ _____ _____    ______ ____
ROOT
ATOM      1  N   LIG    1       -0.327  -1.143   0.166  0.00  0.00    -0.208 NA
ATOM      2  C   LIG    1       -1.663  -1.259   0.151  0.00  0.00    +0.232 A 
ATOM      3  F   LIG    1       -2.280  -2.474   0.257  0.00  0.00    -0.182 F 
ATOM      4  C   LIG    1       -2.497  -0.166   0.027  0.00  0.00    +0.173 A 
ATOM      5  N   LIG    1       -1.897   1.033  -0.078  0.00  0.00    -0.215 NA
ATOM      6  C   LIG    1       -0.558   1.158  -0.063  0.00  0.00    +0.244 A 
ATOM      7  C   LIG    1        0.266   0.060   0.061  0.00  0.00    +0.189 A 
ENDROOT
BRANCH   7   8
ATOM      8  C   LIG    1        1.734   0.192   0.077  0.00  0.00    +0.265 C 
ATOM      9  N   LIG    1        2.560  -0.956   0.206  0.00  0.00    -0.324 N 
ATOM     10  H   LIG    1        2.672  -1.491   1.097  0.00  0.00    +0.145 HD
ATOM     11  H   LIG    1        3.078  -1.264  -0.663  0.00  0.00    +0.145 HD
ATOM     12  O   LIG    1        2.205   1.352  -0.027  0.00  0.00    -0.269 OA
ENDBRANCH   7   8
BRANCH   6  13
ATOM     13  O   LIG    1       -0.037   2.439  -0.178  0.00  0.00    -0.491 OA
ATOM     14  H   LIG    1        0.323   2.810  -1.050  0.00  0.00    +0.294 HD
ENDBRANCH   6  13
TORSDOF 2
