REMARK  Name = molecules/ZCIGNRJZKPOIKD-CQXVEOKZSA-N.pdb
REMARK                            x       y       z     vdW  Elec       q    Type
REMARK                         _______ _______ _______ _____ _____    ______ ____
ROOT
ATOM      1  C   LIG    1       -1.521  -1.413  -0.196  0.00  0.00    +0.077 C 
ENDROOT
BRANCH   1   2
ATOM      2  N   LIG    1       -0.250  -2.039   0.298  0.00  0.00    -0.311 N 
ATOM      3  H   LIG    1       -0.378  -2.795   0.992  0.00  0.00    +0.149 HD
ATOM      4  C   LIG    1        0.966  -1.552  -0.209  0.00  0.00    +0.234 C 
ATOM      5  O   LIG    1        0.951  -0.613  -1.038  0.00  0.00    -0.274 OA
BRANCH   4   6
ATOM      6  C   LIG    1        2.309  -2.088   0.183  0.00  0.00    +0.161 C 
BRANCH   6   7
ATOM      7  N   LIG    1        3.250  -0.992   0.220  0.00  0.00    -0.288 N 
ATOM      8  H   LIG    1        3.156  -0.246   0.956  0.00  0.00    +0.151 HD
ATOM      9  C   LIG    1        4.298  -0.921  -0.735  0.00  0.00    +0.303 C 
ATOM     10  N   LIG    1        5.216   0.158  -0.696  0.00  0.00    -0.283 N 
ATOM     11  C   LIG    1        5.072   1.126   0.400  0.00  0.00    +0.134 C 
ATOM     12  O   LIG    1        4.391  -1.840  -1.619  0.00  0.00    -0.253 OA
BRANCH  10  13
ATOM     13  C   LIG    1        6.269   0.321  -1.665  0.00  0.00    +0.164 C 
BRANCH  13  14
ATOM     14  C   LIG    1        5.738   1.276  -2.724  0.00  0.00    +0.066 A 
ATOM     15  N   LIG    1        6.238   2.462  -2.876  0.00  0.00    -0.247 NA
ATOM     16  C   LIG    1        5.757   3.273  -3.804  0.00  0.00    +0.081 A 
ATOM     17  S   LIG    1        4.526   2.330  -4.511  0.00  0.00    -0.080 S 
ATOM     18  C   LIG    1        4.707   0.912  -3.551  0.00  0.00    +0.071 A 
BRANCH  16  19
ATOM     19  C   LIG    1        6.203   4.673  -4.144  0.00  0.00    +0.038 C 
ATOM     20  C   LIG    1        6.114   5.510  -2.914  0.00  0.00    +0.014 C 
ATOM     21  C   LIG    1        7.648   4.590  -4.586  0.00  0.00    +0.014 C 
ENDBRANCH  16  19
ENDBRANCH  13  14
ENDBRANCH  10  13
ENDBRANCH   6   7
BRANCH   6  22
ATOM     22  C   LIG    1        2.279  -2.877   1.462  0.00  0.00    +0.047 C 
BRANCH  22  23
ATOM     23  C   LIG    1        3.683  -3.356   1.735  0.00  0.00    +0.087 C 
BRANCH  23  24
ATOM     24  N   LIG    1        3.824  -4.140   2.896  0.00  0.00    -0.298 NA
ATOM     25  C   LIG    1        3.638  -3.554   4.157  0.00  0.00    +0.112 C 
ATOM     26  C   LIG    1        2.718  -4.456   4.985  0.00  0.00    +0.175 C 
ATOM     27  O   LIG    1        1.648  -4.908   4.211  0.00  0.00    -0.377 OA
ATOM     28  C   LIG    1        2.070  -5.821   3.245  0.00  0.00    +0.175 C 
ATOM     29  C   LIG    1        3.464  -5.521   2.760  0.00  0.00    +0.112 C 
ENDBRANCH  23  24
ENDBRANCH  22  23
ENDBRANCH   6  22
ENDBRANCH   4   6
ENDBRANCH   1   2
BRANCH   1  30
ATOM     30  C   LIG    1       -2.461  -2.462  -0.600  0.00  0.00    +0.057 C 
BRANCH  30  31
ATOM     31  C   LIG    1       -2.846  -3.390   0.495  0.00  0.00    -0.046 A 
ATOM     32  C   LIG    1       -3.932  -3.147   1.344  0.00  0.00    +0.004 A 
ATOM     33  C   LIG    1       -4.228  -4.051   2.336  0.00  0.00    +0.000 A 
ATOM     34  C   LIG    1       -3.481  -5.203   2.524  0.00  0.00    +0.000 A 
ATOM     35  C   LIG    1       -2.411  -5.452   1.694  0.00  0.00    +0.000 A 
ATOM     36  C   LIG    1       -2.127  -4.535   0.704  0.00  0.00    +0.004 A 
ENDBRANCH  30  31
ENDBRANCH   1  30
BRANCH   1  37
ATOM     37  C   LIG    1       -1.851  -0.280   0.644  0.00  0.00    +0.024 C 
BRANCH  37  38
ATOM     38  C   LIG    1       -2.764   0.784   0.373  0.00  0.00    +0.024 C 
BRANCH  38  39
ATOM     39  C   LIG    1       -4.189   0.809   0.147  0.00  0.00    +0.080 C 
BRANCH  39  40
ATOM     40  N   LIG    1       -4.702   2.208   0.310  0.00  0.00    -0.278 N 
ATOM     41  C   LIG    1       -5.457   2.610   1.413  0.00  0.00    +0.401 C 
ATOM     42  O   LIG    1       -5.731   1.782   2.318  0.00  0.00    -0.226 OA
ATOM     43  H   LIG    1       -4.467   2.869  -0.440  0.00  0.00    +0.152 HD
BRANCH  41  44
ATOM     44  O   LIG    1       -5.927   3.891   1.566  0.00  0.00    -0.445 OA
BRANCH  44  45
ATOM     45  C   LIG    1       -6.681   4.404   2.617  0.00  0.00    +0.278 C 
BRANCH  45  46
ATOM     46  C   LIG    1       -6.936   5.857   2.306  0.00  0.00    +0.046 A 
ATOM     47  S   LIG    1       -7.585   7.104   3.274  0.00  0.00    -0.077 S 
ATOM     48  C   LIG    1       -7.503   8.386   2.134  0.00  0.00    +0.156 A 
ATOM     49  N   LIG    1       -6.983   7.778   1.077  0.00  0.00    -0.255 NA
ATOM     50  C   LIG    1       -6.689   6.521   1.131  0.00  0.00    +0.125 A 
ENDBRANCH  45  46
ENDBRANCH  44  45
ENDBRANCH  41  44
ENDBRANCH  39  40
BRANCH  39  51
ATOM     51  C   LIG    1       -4.880   0.179  -0.994  0.00  0.00    +0.057 C 
BRANCH  51  52
ATOM     52  C   LIG    1       -4.528   0.667  -2.316  0.00  0.00    -0.046 A 
ATOM     53  C   LIG    1       -5.254   1.719  -2.864  0.00  0.00    +0.004 A 
ATOM     54  C   LIG    1       -4.986   2.248  -4.107  0.00  0.00    +0.000 A 
ATOM     55  C   LIG    1       -3.956   1.734  -4.873  0.00  0.00    +0.000 A 
ATOM     56  C   LIG    1       -3.228   0.695  -4.350  0.00  0.00    +0.000 A 
ATOM     57  C   LIG    1       -3.519   0.171  -3.078  0.00  0.00    +0.004 A 
ENDBRANCH  51  52
ENDBRANCH  39  51
ENDBRANCH  38  39
ENDBRANCH  37  38
ENDBRANCH   1  37
TORSDOF 20
