REMARK  Name = molecules/ZCKKHYXUQFTBIK-CYBMUJFWSA-N.pdb
REMARK                            x       y       z     vdW  Elec       q    Type
REMARK                         _______ _______ _______ _____ _____    ______ ____
ROOT
ATOM      1  O   LIG    1       -0.639  -0.234   2.252  0.00  0.00    -0.273 OA
ATOM      2  C   LIG    1       -0.467   0.490   1.194  0.00  0.00    +0.248 C 
ATOM      3  N   LIG    1        0.784   1.095   0.902  0.00  0.00    -0.267 N 
ATOM      4  C   LIG    1        1.698   1.651   1.917  0.00  0.00    +0.139 C 
ATOM      5  C   LIG    1        1.078   1.113  -0.479  0.00  0.00    +0.079 C 
ATOM      6  S   LIG    1       -0.584   1.415  -1.199  0.00  0.00    -0.081 S 
ATOM      7  C   LIG    1        2.135   0.947  -1.210  0.00  0.00    +0.122 C 
ATOM      8  C   LIG    1       -1.525   0.760   0.199  0.00  0.00    +0.208 C 
ENDROOT
BRANCH   8   9
ATOM      9  N   LIG    1       -2.240  -0.403  -0.246  0.00  0.00    -0.283 NA
ATOM     10  C   LIG    1       -2.984  -1.112   0.707  0.00  0.00    +0.086 C 
ATOM     11  C   LIG    1       -4.475  -1.144   0.461  0.00  0.00    +0.015 C 
ATOM     12  C   LIG    1       -4.874  -0.334  -0.744  0.00  0.00    +0.002 C 
ATOM     13  C   LIG    1       -4.016  -0.843  -1.899  0.00  0.00    +0.015 C 
ATOM     14  C   LIG    1       -2.594  -0.464  -1.599  0.00  0.00    +0.086 C 
ENDBRANCH   8   9
BRANCH   7  15
ATOM     15  C   LIG    1        3.468   0.655  -0.778  0.00  0.00    +0.334 C 
ATOM     16  O   LIG    1        4.383   0.542  -1.679  0.00  0.00    -0.246 OA
BRANCH  15  17
ATOM     17  O   LIG    1        3.930   0.471   0.503  0.00  0.00    -0.462 OA
BRANCH  17  18
ATOM     18  C   LIG    1        5.269   0.192   0.747  0.00  0.00    +0.229 C 
ATOM     19  C   LIG    1        5.746  -1.077   0.083  0.00  0.00    +0.048 C 
ENDBRANCH  17  18
ENDBRANCH  15  17
ENDBRANCH   7  15
TORSDOF 4
