REMARK  Name = molecules/ZCVAOQKBXKSDMS-PVAVHDDUSA-N.pdb
REMARK                            x       y       z     vdW  Elec       q    Type
REMARK                         _______ _______ _______ _____ _____    ______ ____
ROOT
ATOM      1  C   LIG    1        0.348   0.341  -0.697  0.00  0.00    +0.312 C 
ATOM      2  O   LIG    1        0.564   1.569  -0.829  0.00  0.00    -0.250 OA
ENDROOT
BRANCH   1   4
ATOM      3  C   LIG    1        2.744  -0.159  -0.009  0.00  0.00    +0.032 C 
ATOM      4  C   LIG    1        1.465  -0.623  -0.602  0.00  0.00    +0.111 C 
ATOM      5  C   LIG    1        2.655  -0.316  -1.473  0.00  0.00    -0.014 C 
ATOM      6  C   LIG    1        3.246  -1.535  -2.155  0.00  0.00    +0.012 C 
ATOM      7  C   LIG    1        2.671   0.933  -2.297  0.00  0.00    +0.012 C 
BRANCH   3   8
ATOM      8  C   LIG    1        3.647  -1.073   0.697  0.00  0.00    -0.023 C 
ATOM      9  C   LIG    1        4.665  -0.601   1.402  0.00  0.00    -0.079 C 
ATOM     10  C   LIG    1        5.611  -1.491   2.138  0.00  0.00    +0.038 C 
ATOM     11  C   LIG    1        4.901   0.854   1.485  0.00  0.00    +0.038 C 
ENDBRANCH   3   8
ENDBRANCH   1   4
BRANCH   1  12
ATOM     12  O   LIG    1       -0.943  -0.094  -0.643  0.00  0.00    -0.456 OA
BRANCH  12  13
ATOM     13  C   LIG    1       -2.085   0.713  -0.721  0.00  0.00    +0.210 C 
ATOM     14  C   LIG    1       -2.946   0.663   0.452  0.00  0.00    -0.025 C 
ATOM     15  C   LIG    1       -2.606   0.445   1.889  0.00  0.00    +0.043 C 
ATOM     16  C   LIG    1       -4.195   0.854   0.068  0.00  0.00    +0.001 C 
ATOM     17  C   LIG    1       -4.258   1.041  -1.377  0.00  0.00    +0.163 C 
ATOM     18  O   LIG    1       -5.142   1.583  -2.062  0.00  0.00    -0.292 OA
ATOM     19  C   LIG    1       -2.976   0.414  -1.871  0.00  0.00    +0.128 C 
BRANCH  16  20
ATOM     20  C   LIG    1       -5.421   0.887   0.944  0.00  0.00    +0.065 C 
BRANCH  20  21
ATOM     21  C   LIG    1       -6.375  -0.160   0.558  0.00  0.00    -0.030 C 
ATOM     22  C   LIG    1       -6.733  -1.100   1.432  0.00  0.00    +0.004 C 
ENDBRANCH  20  21
ENDBRANCH  16  20
ENDBRANCH  12  13
ENDBRANCH   1  12
TORSDOF 6
