REMARK  Name = molecules/ZCVAIGPGEINFCX-MRVPVSSYSA-N.pdb
REMARK                            x       y       z     vdW  Elec       q    Type
REMARK                         _______ _______ _______ _____ _____    ______ ____
ROOT
ATOM      1  C   LIG    1        1.606   0.417   0.344  0.00  0.00    +0.214 C 
ENDROOT
BRANCH   1   2
ATOM      2  C   LIG    1        0.101   0.260   0.383  0.00  0.00    +0.087 C 
ATOM      3  N   LIG    1       -0.407   1.392   1.129  0.00  0.00    -0.310 NA
ATOM      4  H   LIG    1       -0.498   1.243   2.136  0.00  0.00    +0.122 HD
ATOM      5  C   LIG    1       -1.563   1.926   0.455  0.00  0.00    +0.081 C 
ATOM      6  C   LIG    1       -2.735   0.944   0.503  0.00  0.00    +0.015 C 
ATOM      7  C   LIG    1       -2.884   0.151  -0.745  0.00  0.00    +0.001 C 
ATOM      8  C   LIG    1       -2.058  -1.087  -0.848  0.00  0.00    +0.000 C 
ATOM      9  C   LIG    1       -1.540  -1.647   0.428  0.00  0.00    +0.002 C 
ATOM     10  C   LIG    1       -0.308  -1.025   0.980  0.00  0.00    +0.022 C 
ENDBRANCH   1   2
BRANCH   1  11
ATOM     11  N   LIG    1        2.270  -0.605  -0.429  0.00  0.00    -0.275 N 
ATOM     12  H   LIG    1        1.771  -1.405  -0.848  0.00  0.00    +0.258 HD
BRANCH  11  13
ATOM     13  C   LIG    1        3.659  -0.474  -0.601  0.00  0.00    +0.376 C 
ATOM     14  N   LIG    1        4.139   0.574  -1.413  0.00  0.00    -0.289 N 
ATOM     15  H   LIG    1        4.640   1.363  -0.973  0.00  0.00    +0.255 HD
ATOM     16  H   LIG    1        3.989   0.550  -2.439  0.00  0.00    +0.255 HD
BRANCH  13  17
ATOM     17  N   LIG    1        4.465  -1.278  -0.038  0.00  0.00    -0.130 NA
ATOM     18  H   LIG    1        5.488  -1.300  -0.075  0.00  0.00    +0.306 HD
ENDBRANCH  13  17
ENDBRANCH  11  13
ENDBRANCH   1  11
TORSDOF 4
