REMARK  Name = molecules/ZCVMWBYGMWKGHF-UHFFFAOYSA-N.pdb
REMARK                            x       y       z     vdW  Elec       q    Type
REMARK                         _______ _______ _______ _____ _____    ______ ____
ROOT
ATOM      1  O   LIG    1        4.571   1.570  -1.372  0.00  0.00    -0.291 OA
ATOM      2  C   LIG    1        3.504   1.039  -0.947  0.00  0.00    +0.175 C 
ATOM      3  C   LIG    1        2.577   2.052  -0.380  0.00  0.00    +0.063 A 
ATOM      4  C   LIG    1        1.323   1.904   0.168  0.00  0.00    +0.000 A 
ATOM      5  C   LIG    1        0.713   3.002   0.629  0.00  0.00    +0.017 A 
ATOM      6  C   LIG    1        1.403   4.191   0.508  0.00  0.00    +0.046 A 
ATOM      7  C   LIG    1        0.658   0.544   0.215  0.00  0.00    -0.010 C 
ATOM      8  C   LIG    1        1.413  -0.710   0.505  0.00  0.00    -0.014 A 
ATOM      9  C   LIG    1        0.781  -1.456   1.474  0.00  0.00    +0.009 A 
ATOM     10  C   LIG    1        1.359  -2.625   1.848  0.00  0.00    +0.001 A 
ATOM     11  C   LIG    1        2.553  -3.091   1.296  0.00  0.00    +0.000 A 
ATOM     12  C   LIG    1        3.158  -2.300   0.319  0.00  0.00    +0.004 A 
ATOM     13  C   LIG    1        2.593  -1.113  -0.077  0.00  0.00    -0.032 A 
ATOM     14  C   LIG    1       -0.591   0.444   0.050  0.00  0.00    -0.059 C 
ATOM     15  C   LIG    1       -1.261  -0.849  -0.171  0.00  0.00    +0.047 C 
ATOM     16  C   LIG    1       -2.599  -0.982   0.521  0.00  0.00    +0.088 C 
ATOM     17  N   LIG    1       -3.506  -0.118  -0.205  0.00  0.00    -0.305 NA
ATOM     18  C   LIG    1       -4.503  -0.829  -0.929  0.00  0.00    +0.104 C 
ATOM     19  C   LIG    1       -2.844   0.879  -0.975  0.00  0.00    +0.088 C 
ATOM     20  C   LIG    1       -1.652   1.472  -0.187  0.00  0.00    +0.047 C 
ATOM     21  S   LIG    1        2.856   3.727  -0.233  0.00  0.00    -0.093 S 
ATOM     22  C   LIG    1        3.411  -0.428  -1.101  0.00  0.00    +0.116 C 
ENDROOT
TORSDOF 0
