REMARK  Name = molecules/ZCXUVYAZINUVJD-AHXZWLDOSA-N.pdb
REMARK                            x       y       z     vdW  Elec       q    Type
REMARK                         _______ _______ _______ _____ _____    ______ ____
ROOT
ATOM      1  C   LIG    1        0.895   0.222  -0.070  0.00  0.00    +0.178 C 
ATOM      2  O   LIG    1        0.137   1.371  -0.071  0.00  0.00    -0.340 OA
ATOM      3  C   LIG    1       -1.172   1.176   0.295  0.00  0.00    +0.284 C 
ATOM      4  C   LIG    1       -1.355   0.100   1.337  0.00  0.00    +0.252 C 
ATOM      5  F   LIG    1       -0.795   0.440   2.549  0.00  0.00    -0.237 F 
ATOM      6  C   LIG    1       -0.865  -1.217   0.814  0.00  0.00    +0.184 C 
ATOM      7  C   LIG    1       -0.013  -0.943  -0.428  0.00  0.00    +0.177 C 
ENDROOT
BRANCH   6   8
ATOM      8  O   LIG    1       -1.911  -2.046   0.421  0.00  0.00    -0.386 OA
ATOM      9  H   LIG    1       -2.368  -1.660  -0.381  0.00  0.00    +0.210 HD
ENDBRANCH   6   8
BRANCH   3  10
ATOM     10  O   LIG    1       -1.747   2.352   0.801  0.00  0.00    -0.365 OA
ATOM     11  H   LIG    1       -1.753   2.992   0.043  0.00  0.00    +0.213 HD
ENDBRANCH   3  10
BRANCH   7  12
ATOM     12  O   LIG    1        0.728  -2.071  -0.761  0.00  0.00    -0.386 OA
ATOM     13  H   LIG    1        1.032  -2.017  -1.697  0.00  0.00    +0.210 HD
ENDBRANCH   7  12
BRANCH   1  14
ATOM     14  C   LIG    1        2.066   0.330  -1.017  0.00  0.00    +0.190 C 
BRANCH  14  15
ATOM     15  O   LIG    1        2.847   1.399  -0.598  0.00  0.00    -0.392 OA
ATOM     16  H   LIG    1        3.761   1.135  -0.347  0.00  0.00    +0.210 HD
ENDBRANCH  14  15
ENDBRANCH   1  14
TORSDOF 5
