REMARK  Name = molecules/ZDASUJMDVPTNTF-UHFFFAOYSA-N.pdb
REMARK                            x       y       z     vdW  Elec       q    Type
REMARK                         _______ _______ _______ _____ _____    ______ ____
ROOT
ATOM      1  C   LIG    1       -1.434  -0.872   0.073  0.00  0.00    +0.157 A 
ATOM      2  C   LIG    1       -0.070  -0.636   0.048  0.00  0.00    +0.114 A 
ATOM      3  N   LIG    1        0.777  -1.692   0.124  0.00  0.00    -0.251 NA
ATOM      4  C   LIG    1        2.104  -1.469   0.100  0.00  0.00    +0.111 A 
ATOM      5  C   LIG    1        2.566  -0.175   0.000  0.00  0.00    +0.020 A 
ATOM      6  C   LIG    1        1.719   0.910  -0.077  0.00  0.00    +0.013 A 
ATOM      7  C   LIG    1        0.365   0.669  -0.052  0.00  0.00    +0.018 A 
ATOM      8  C   LIG    1       -0.536   1.734  -0.128  0.00  0.00    +0.028 A 
ATOM      9  C   LIG    1       -1.881   1.435  -0.099  0.00  0.00    +0.035 A 
ATOM     10 BR   LIG    1        0.139   3.492  -0.264  0.00  0.00    -0.050 Br
ATOM     11  C   LIG    1       -2.358   0.153   0.000  0.00  0.00    +0.062 A 
ATOM     12 BR   LIG    1       -4.213  -0.277   0.042  0.00  0.00    -0.046 Br
ENDROOT
BRANCH   1  13
ATOM     13  O   LIG    1       -1.897  -2.171   0.173  0.00  0.00    -0.504 OA
ATOM     14  H   LIG    1       -1.238  -2.934   0.227  0.00  0.00    +0.292 HD
ENDBRANCH   1  13
TORSDOF 1
