REMARK  Name = molecules/ZDHCJEIGTNNEMY-XGXHKTLJSA-N.pdb
REMARK                            x       y       z     vdW  Elec       q    Type
REMARK                         _______ _______ _______ _____ _____    ______ ____
ROOT
ATOM      1  C   LIG    1        1.222   1.711  -1.288  0.00  0.00    +0.014 C 
ATOM      2  C   LIG    1        1.623   0.405  -0.597  0.00  0.00    -0.000 C 
ATOM      3  C   LIG    1        1.091   0.490   0.818  0.00  0.00    +0.001 C 
ATOM      4  C   LIG    1        1.874   1.651   1.332  0.00  0.00    +0.007 C 
ATOM      5  C   LIG    1        3.228   1.565   0.623  0.00  0.00    +0.035 C 
ATOM      6  C   LIG    1       -0.383   0.654   0.825  0.00  0.00    -0.003 C 
ATOM      7  C   LIG    1       -0.879   0.231   2.216  0.00  0.00    +0.008 C 
ATOM      8  C   LIG    1       -2.370   0.341   2.337  0.00  0.00    +0.031 C 
ATOM      9  C   LIG    1       -3.098  -0.119   1.136  0.00  0.00    -0.063 C 
ATOM     10  C   LIG    1       -4.207  -0.832   1.238  0.00  0.00    +0.045 C 
ATOM     11  C   LIG    1       -4.929  -1.289   0.037  0.00  0.00    +0.156 C 
ATOM     12  O   LIG    1       -6.158  -1.548   0.067  0.00  0.00    -0.293 OA
ATOM     13  C   LIG    1       -4.111  -1.422  -1.196  0.00  0.00    +0.079 C 
ATOM     14  C   LIG    1       -3.322  -0.157  -1.354  0.00  0.00    +0.016 C 
ATOM     15  C   LIG    1       -2.526   0.255  -0.182  0.00  0.00    +0.019 C 
ATOM     16  C   LIG    1       -1.096  -0.217  -0.163  0.00  0.00    -0.000 C 
ATOM     17  C   LIG    1       -0.482  -0.317  -1.500  0.00  0.00    +0.005 C 
ATOM     18  C   LIG    1        3.072   0.424  -0.399  0.00  0.00    +0.071 C 
ATOM     19  C   LIG    1        0.996  -0.702  -1.323  0.00  0.00    +0.010 C 
ENDROOT
BRANCH  18  20
ATOM     20  C   LIG    1        3.716  -0.764   0.197  0.00  0.00    +0.032 C 
ATOM     21  C   LIG    1        3.577  -2.050  -0.527  0.00  0.00    +0.007 C 
ENDBRANCH  18  20
BRANCH  18  22
ATOM     22  O   LIG    1        3.710   0.872  -1.554  0.00  0.00    -0.388 OA
ATOM     23  H   LIG    1        4.364   0.217  -1.886  0.00  0.00    +0.210 HD
ENDBRANCH  18  22
TORSDOF 2
