REMARK  Name = molecules/ZDLBNXXKDMLZMF-OAHLLOKOSA-N.pdb
REMARK                            x       y       z     vdW  Elec       q    Type
REMARK                         _______ _______ _______ _____ _____    ______ ____
ROOT
ATOM      1  C   LIG    1       -2.258   0.189   1.562  0.00  0.00    +0.248 C 
ATOM      2  O   LIG    1       -1.826   0.189   2.767  0.00  0.00    -0.270 OA
ATOM      3  N   LIG    1       -1.290   0.165   0.555  0.00  0.00    -0.308 N 
ATOM      4  H   LIG    1       -1.478   0.162  -0.446  0.00  0.00    +0.149 HD
ENDROOT
BRANCH   1   5
ATOM      5  C   LIG    1       -3.687   0.214   1.359  0.00  0.00    +0.081 A 
ATOM      6  C   LIG    1       -4.509   0.233   2.499  0.00  0.00    +0.051 A 
ATOM      7  C   LIG    1       -5.874   0.255   2.432  0.00  0.00    +0.148 A 
ATOM      8  C   LIG    1       -6.433   0.259   1.178  0.00  0.00    +0.059 A 
ATOM      9  C   LIG    1       -5.667   0.242   0.040  0.00  0.00    +0.071 A 
ATOM     10  C   LIG    1       -4.284   0.219   0.116  0.00  0.00    +0.134 A 
BRANCH   7  11
ATOM     11  N   LIG    1       -6.696   0.274   3.590  0.00  0.00    +0.058 N 
ATOM     12  O   LIG    1       -6.238   0.900   4.721  0.00  0.00    -0.126 OA
ATOM     13  O   LIG    1       -7.805  -0.260   3.595  0.00  0.00    -0.126 OA
ENDBRANCH   7  11
BRANCH   8  14
ATOM     14  N   LIG    1       -7.875   0.284   1.114  0.00  0.00    -0.356 N 
ATOM     15  H   LIG    1       -8.414   1.030   1.590  0.00  0.00    +0.142 HD
ATOM     16  H   LIG    1       -8.323  -0.483   0.569  0.00  0.00    +0.142 HD
ENDBRANCH   8  14
BRANCH  10  17
ATOM     17  O   LIG    1       -3.508   0.203  -1.020  0.00  0.00    -0.491 OA
BRANCH  17  18
ATOM     18  C   LIG    1       -4.020   0.193  -2.316  0.00  0.00    +0.226 C 
ATOM     19  C   LIG    1       -4.846  -1.043  -2.594  0.00  0.00    +0.048 C 
ENDBRANCH  17  18
ENDBRANCH  10  17
ENDBRANCH   1   5
BRANCH   3  20
ATOM     20  C   LIG    1        0.143   0.142   0.933  0.00  0.00    +0.076 C 
ATOM     21  C   LIG    1        0.807  -1.127   0.409  0.00  0.00    +0.037 C 
ATOM     22  C   LIG    1        2.200  -1.125   0.982  0.00  0.00    +0.086 C 
ATOM     23  N   LIG    1        2.902   0.059   0.584  0.00  0.00    -0.302 NA
ATOM     24  C   LIG    1        2.229   0.998  -0.172  0.00  0.00    +0.086 C 
ATOM     25  C   LIG    1        0.798   1.283   0.215  0.00  0.00    +0.037 C 
BRANCH  23  26
ATOM     26  C   LIG    1        4.288  -0.016   0.632  0.00  0.00    +0.088 C 
BRANCH  26  27
ATOM     27  C   LIG    1        5.074  -0.445  -0.539  0.00  0.00    +0.007 C 
ATOM     28  C   LIG    1        6.557  -0.371  -0.117  0.00  0.00    +0.031 C 
ATOM     29  C   LIG    1        7.393  -1.010  -1.202  0.00  0.00    -0.031 C 
ATOM     30  C   LIG    1        7.227  -0.454  -2.399  0.00  0.00    -0.031 C 
ATOM     31  C   LIG    1        6.265   0.681  -2.462  0.00  0.00    +0.027 C 
ATOM     32  C   LIG    1        4.948   0.383  -1.778  0.00  0.00    +0.009 C 
ENDBRANCH  26  27
ENDBRANCH  23  26
ENDBRANCH   3  20
TORSDOF 8
