REMARK  Name = molecules/ZDXPYRJPNDTMRX-VKHMYHEASA-N.pdb
REMARK                            x       y       z     vdW  Elec       q    Type
REMARK                         _______ _______ _______ _____ _____    ______ ____
ROOT
ATOM      1  CA  GLN A  1        1.555   0.493  -0.610  0.00  0.00    +0.161 C 
ENDROOT
BRANCH   1   2
ATOM      2  N   GLN A  1        1.878  -0.809  -1.132  0.00  0.00    -0.318 NA
ATOM      3  H1  GLN A  1        2.100  -1.477  -0.377  0.00  0.00    +0.119 HD
ATOM      4  H2  GLN A  1        1.092  -1.172  -1.732  0.00  0.00    +0.119 HD
ENDBRANCH   1   2
BRANCH   1   5
ATOM      5  C   GLN A  1        1.810   0.592   0.849  0.00  0.00    +0.322 C 
ATOM      6  O   GLN A  1        1.555   1.700   1.397  0.00  0.00    -0.249 OA
BRANCH   5   7
ATOM      7  OXT GLN A  1        2.301  -0.464   1.582  0.00  0.00    -0.480 OA
ATOM      8  HXT GLN A  1        3.148  -0.938   1.292  0.00  0.00    +0.295 HD
ENDBRANCH   5   7
ENDBRANCH   1   5
BRANCH   1   9
ATOM      9  CB  GLN A  1        0.088   0.850  -0.884  0.00  0.00    +0.039 C 
BRANCH   9  10
ATOM     10  CG  GLN A  1       -0.827  -0.143  -0.244  0.00  0.00    +0.097 C 
BRANCH  10  11
ATOM     11  CD  GLN A  1       -2.248   0.119  -0.453  0.00  0.00    +0.211 C 
ATOM     12  NE2 GLN A  1       -3.306  -0.660   0.040  0.00  0.00    -0.329 N 
ATOM     13 HE21 GLN A  1       -3.672  -0.516   1.012  0.00  0.00    +0.145 HD
ATOM     14 HE22 GLN A  1       -3.789  -1.411  -0.505  0.00  0.00    +0.145 HD
ATOM     15  OE1 GLN A  1       -2.529   1.155  -1.150  0.00  0.00    -0.276 OA
ENDBRANCH  10  11
ENDBRANCH   9  10
ENDBRANCH   1   9
TORSDOF 6
