REMARK  Name = molecules/ZDZOTLJHXYCWBA-VCVYQWHSSA-N.pdb
REMARK                            x       y       z     vdW  Elec       q    Type
REMARK                         _______ _______ _______ _____ _____    ______ ____
ROOT
ATOM      1  C   LIG    1       -4.223   2.717   0.943  0.00  0.00    +0.170 C 
ATOM      2  C   LIG    1       -5.105   2.982   2.136  0.00  0.00    +0.211 C 
ATOM      3  O   LIG    1       -6.252   2.871   1.392  0.00  0.00    -0.368 OA
ATOM      4  C   LIG    1       -3.748   1.314   0.699  0.00  0.00    +0.097 C 
ATOM      5  C   LIG    1       -2.379   0.909   1.075  0.00  0.00    +0.217 C 
ATOM      6  C   LIG    1       -1.808   0.480   2.300  0.00  0.00    +0.112 C 
ATOM      7  C   LIG    1       -2.368  -0.736   3.033  0.00  0.00    +0.007 C 
ATOM      8  C   LIG    1       -1.415  -1.260   4.075  0.00  0.00    +0.014 C 
ATOM      9  C   LIG    1       -3.635  -0.506   3.761  0.00  0.00    +0.014 C 
ATOM     10  C   LIG    1       -2.448  -1.689   1.875  0.00  0.00    +0.030 C 
ATOM     11  C   LIG    1       -1.267  -2.180   1.544  0.00  0.00    +0.024 C 
ATOM     12  C   LIG    1       -0.043  -1.304   1.699  0.00  0.00    +0.187 C 
ATOM     13  C   LIG    1       -1.149  -3.555   1.020  0.00  0.00    +0.016 C 
ATOM     14  C   LIG    1       -3.464  -2.168   0.956  0.00  0.00    +0.189 C 
ATOM     15  C   LIG    1       -4.089  -1.018   0.185  0.00  0.00    +0.171 C 
ATOM     16  O   LIG    1       -4.003  -1.197  -1.043  0.00  0.00    -0.294 OA
ATOM     17  C   LIG    1       -0.342   0.102   1.990  0.00  0.00    +0.084 C 
ATOM     18  C   LIG    1       -4.789   0.281   0.424  0.00  0.00    +0.065 C 
ATOM     19  C   LIG    1       -5.944   0.069   1.292  0.00  0.00    +0.022 C 
ATOM     20  C   LIG    1       -5.474   0.684  -0.921  0.00  0.00    +0.131 C 
ATOM     21  C   LIG    1       -5.827   2.102  -0.916  0.00  0.00    +0.068 C 
ATOM     22  C   LIG    1       -5.535   2.953   0.218  0.00  0.00    +0.167 C 
ENDROOT
BRANCH  14  23
ATOM     23  O   LIG    1       -4.434  -2.858   1.702  0.00  0.00    -0.384 OA
ATOM     24  H   LIG    1       -3.977  -3.449   2.343  0.00  0.00    +0.210 HD
ENDBRANCH  14  23
BRANCH   6  25
ATOM     25  O   LIG    1       -1.743   1.436   3.314  0.00  0.00    -0.384 OA
ATOM     26  H   LIG    1       -0.904   1.372   3.849  0.00  0.00    +0.210 HD
ENDBRANCH   6  25
BRANCH  20  27
ATOM     27  O   LIG    1       -6.540  -0.202  -1.071  0.00  0.00    -0.391 OA
ATOM     28  H   LIG    1       -6.865  -0.119  -2.003  0.00  0.00    +0.210 HD
ENDBRANCH  20  27
BRANCH  12  29
ATOM     29  O   LIG    1        0.708  -1.587   0.528  0.00  0.00    -0.459 OA
BRANCH  29  30
ATOM     30  C   LIG    1        1.889  -2.314   0.532  0.00  0.00    +0.338 C 
ATOM     31  O   LIG    1        2.259  -2.705   1.691  0.00  0.00    -0.248 OA
BRANCH  30  32
ATOM     32  C   LIG    1        2.711  -2.667  -0.616  0.00  0.00    +0.247 C 
BRANCH  32  33
ATOM     33  O   LIG    1        3.667  -3.632  -0.178  0.00  0.00    -0.379 OA
ATOM     34  H   LIG    1        3.806  -3.507   0.817  0.00  0.00    +0.211 HD
ENDBRANCH  32  33
BRANCH  32  35
ATOM     35  C   LIG    1        3.516  -1.581  -1.239  0.00  0.00    +0.146 C 
BRANCH  35  36
ATOM     36  C   LIG    1        4.394  -2.193  -2.309  0.00  0.00    -0.024 A 
ATOM     37  C   LIG    1        5.480  -2.977  -2.033  0.00  0.00    +0.005 A 
ATOM     38  C   LIG    1        6.299  -3.534  -2.999  0.00  0.00    +0.000 A 
ATOM     39  C   LIG    1        5.994  -3.277  -4.325  0.00  0.00    +0.000 A 
ATOM     40  C   LIG    1        4.908  -2.492  -4.658  0.00  0.00    +0.000 A 
ATOM     41  C   LIG    1        4.108  -1.950  -3.650  0.00  0.00    +0.005 A 
ENDBRANCH  35  36
BRANCH  35  42
ATOM     42  N   LIG    1        4.468  -1.010  -0.294  0.00  0.00    -0.271 N 
ATOM     43  H   LIG    1        4.688  -1.517   0.570  0.00  0.00    +0.153 HD
ATOM     44  C   LIG    1        5.091   0.258  -0.595  0.00  0.00    +0.401 C 
ATOM     45  O   LIG    1        4.803   0.842  -1.667  0.00  0.00    -0.226 OA
BRANCH  44  46
ATOM     46  O   LIG    1        6.000   0.871   0.234  0.00  0.00    -0.445 OA
BRANCH  46  47
ATOM     47  C   LIG    1        6.637   2.092  -0.116  0.00  0.00    +0.107 C 
ATOM     48  C   LIG    1        7.523   2.473   1.056  0.00  0.00    +0.055 C 
ATOM     49  C   LIG    1        5.728   3.225  -0.415  0.00  0.00    +0.055 C 
ATOM     50  C   LIG    1        7.558   1.861  -1.313  0.00  0.00    +0.055 C 
ENDBRANCH  46  47
ENDBRANCH  44  46
ENDBRANCH  35  42
ENDBRANCH  32  35
ENDBRANCH  30  32
ENDBRANCH  29  30
ENDBRANCH  12  29
BRANCH   5  51
ATOM     51  O   LIG    1       -1.958  -0.002   0.009  0.00  0.00    -0.454 OA
BRANCH  51  52
ATOM     52  C   LIG    1       -1.207   0.473  -1.087  0.00  0.00    +0.340 C 
ATOM     53  O   LIG    1       -0.931   1.693  -1.095  0.00  0.00    -0.245 OA
BRANCH  52  54
ATOM     54  C   LIG    1       -0.763  -0.370  -2.171  0.00  0.00    +0.059 A 
ATOM     55  C   LIG    1       -0.967  -1.715  -2.276  0.00  0.00    +0.015 A 
ATOM     56  C   LIG    1       -0.506  -2.423  -3.367  0.00  0.00    +0.001 A 
ATOM     57  C   LIG    1        0.184  -1.812  -4.411  0.00  0.00    +0.000 A 
ATOM     58  C   LIG    1        0.390  -0.449  -4.305  0.00  0.00    +0.001 A 
ATOM     59  C   LIG    1       -0.070   0.244  -3.219  0.00  0.00    +0.015 A 
ENDBRANCH  52  54
ENDBRANCH  51  52
ENDBRANCH   5  51
BRANCH   1  60
ATOM     60  O   LIG    1       -3.411   3.788   0.623  0.00  0.00    -0.453 OA
BRANCH  60  61
ATOM     61  C   LIG    1       -2.319   4.405   0.930  0.00  0.00    +0.305 C 
ATOM     62  O   LIG    1       -1.636   4.003   1.877  0.00  0.00    -0.251 OA
ATOM     63  C   LIG    1       -1.789   5.617   0.211  0.00  0.00    +0.136 C 
ENDBRANCH  60  61
ENDBRANCH   1  60
TORSDOF 17
