REMARK  Name = molecules/ZEMGGZBWXRYJHK-UHFFFAOYSA-N.pdb
REMARK                            x       y       z     vdW  Elec       q    Type
REMARK                         _______ _______ _______ _____ _____    ______ ____
ROOT
ATOM      1  O   LIG    1       -1.464  -2.169  -0.030  0.00  0.00    -0.268 OA
ATOM      2  C   LIG    1       -0.790  -1.105  -0.015  0.00  0.00    +0.252 A 
ATOM      3  C   LIG    1       -1.401   0.143  -0.008  0.00  0.00    +0.087 A 
ATOM      4  C   LIG    1       -0.595   1.250   0.008  0.00  0.00    +0.090 A 
ATOM      5  N   LIG    1        0.727   1.137   0.015  0.00  0.00    -0.342 N 
ATOM      6  H   LIG    1        1.297   2.014   0.027  0.00  0.00    +0.167 HD
ATOM      7  C   LIG    1        1.272  -0.085   0.007  0.00  0.00    +0.158 A 
ATOM      8  S   LIG    1        2.915  -0.206   0.017  0.00  0.00    -0.013 S 
ATOM      9  N   LIG    1        0.558  -1.227  -0.008  0.00  0.00    -0.303 N 
ATOM     10  H   LIG    1        1.025  -2.180  -0.014  0.00  0.00    +0.171 HD
ENDROOT
TORSDOF 0
