REMARK  Name = molecules/ZFIOCUITTUUVPV-MEDUHNTESA-N.pdb
REMARK                            x       y       z     vdW  Elec       q    Type
REMARK                         _______ _______ _______ _____ _____    ______ ____
ROOT
ATOM      1  C   LIG    1       -1.687  -0.277   0.364  0.00  0.00    +0.168 A 
ATOM      2  C   LIG    1       -0.665   0.530   0.923  0.00  0.00    +0.110 A 
ATOM      3  C   LIG    1       -0.952   1.769   1.475  0.00  0.00    +0.149 A 
ATOM      4  F   LIG    1        0.001   2.567   2.023  0.00  0.00    -0.203 F 
ATOM      5  C   LIG    1       -2.239   2.253   1.495  0.00  0.00    +0.054 A 
ATOM      6  C   LIG    1       -3.238   1.452   0.937  0.00  0.00    +0.052 A 
ATOM      7  C   LIG    1       -4.496   2.031   0.929  0.00  0.00    +0.204 A 
ATOM      8  O   LIG    1       -4.720   3.164   1.446  0.00  0.00    -0.286 OA
ATOM      9  C   LIG    1       -5.502   1.320   0.331  0.00  0.00    +0.122 A 
ATOM     10  C   LIG    1       -5.182   0.111  -0.197  0.00  0.00    +0.105 A 
ATOM     11  N   LIG    1       -3.968  -0.486  -0.204  0.00  0.00    -0.340 N 
ATOM     12  C   LIG    1       -2.961   0.206   0.383  0.00  0.00    +0.097 A 
ENDROOT
BRANCH   2  13
ATOM     13  N   LIG    1        0.694   0.163   0.913  0.00  0.00    -0.322 N 
ATOM     14  C   LIG    1        1.528  -0.516   1.843  0.00  0.00    +0.142 C 
ATOM     15  C   LIG    1        2.942   0.027   1.662  0.00  0.00    +0.189 C 
ATOM     16  F   LIG    1        3.842  -1.018   1.696  0.00  0.00    -0.243 F 
ATOM     17  C   LIG    1        2.896   0.774   0.382  0.00  0.00    +0.055 C 
ATOM     18  C   LIG    1        1.531   0.485  -0.257  0.00  0.00    +0.113 C 
BRANCH  17  19
ATOM     19  C   LIG    1        3.986   0.445  -0.595  0.00  0.00    +0.089 C 
BRANCH  19  20
ATOM     20  N   LIG    1        5.293   0.699  -0.101  0.00  0.00    -0.313 NA
ATOM     21  H   LIG    1        5.431   1.566   0.437  0.00  0.00    +0.122 HD
BRANCH  20  22
ATOM     22  C   LIG    1        6.307   0.575  -1.095  0.00  0.00    +0.054 C 
ATOM     23  C   LIG    1        7.625  -0.058  -0.641  0.00  0.00    +0.020 C 
ATOM     24  C   LIG    1        6.752  -0.673  -1.728  0.00  0.00    +0.020 C 
ENDBRANCH  20  22
ENDBRANCH  19  20
ENDBRANCH  17  19
ENDBRANCH   2  13
BRANCH   9  25
ATOM     25  C   LIG    1       -6.875   1.864   0.260  0.00  0.00    +0.342 C 
ATOM     26  O   LIG    1       -7.207   2.920   0.798  0.00  0.00    -0.245 OA
BRANCH  25  27
ATOM     27  O   LIG    1       -7.826   1.137  -0.463  0.00  0.00    -0.477 OA
ATOM     28  H   LIG    1       -7.729   1.037  -1.491  0.00  0.00    +0.295 HD
ENDBRANCH  25  27
ENDBRANCH   9  25
BRANCH   1  29
ATOM     29  O   LIG    1       -1.304  -1.446  -0.137  0.00  0.00    -0.491 OA
ATOM     30  C   LIG    1       -1.055  -2.655   0.489  0.00  0.00    +0.277 C 
ENDBRANCH   1  29
BRANCH  11  31
ATOM     31  C   LIG    1       -3.789  -1.786  -0.779  0.00  0.00    +0.155 C 
BRANCH  31  32
ATOM     32  C   LIG    1       -3.345  -1.825  -2.212  0.00  0.00    +0.235 C 
ATOM     33  F   LIG    1       -4.304  -1.207  -3.051  0.00  0.00    -0.247 F 
ENDBRANCH  31  32
ENDBRANCH  11  31
TORSDOF 9
