REMARK  Name = molecules/ZFMITUMMTDLWHR-UHFFFAOYSA-N.pdb
REMARK                            x       y       z     vdW  Elec       q    Type
REMARK                         _______ _______ _______ _____ _____    ______ ____
ROOT
ATOM      1  C   LIG    1        2.680  -1.176   0.428  0.00  0.00    +0.310 C 
ATOM      2  C   LIG    1        1.302  -1.155   0.359  0.00  0.00    +0.196 C 
ATOM      3  C   LIG    1        0.633  -0.046  -0.108  0.00  0.00    +0.323 C 
ATOM      4  N   LIG    1        1.365   1.009  -0.492  0.00  0.00    -0.001 NA
ATOM      5  C   LIG    1        2.713   1.014  -0.435  0.00  0.00    +0.482 C 
ATOM      6  N   LIG    1        3.366  -0.067   0.021  0.00  0.00    -0.005 N 
ATOM      7  O   LIG    1        4.737  -0.064   0.081  0.00  0.00    +0.024 OA
ENDROOT
BRANCH   3   8
ATOM      8  N   LIG    1       -0.768   0.028  -0.200  0.00  0.00    -0.221 N 
ATOM      9  C   LIG    1       -1.659  -1.062   0.191  0.00  0.00    +0.226 C 
ATOM     10  C   LIG    1       -2.890  -0.917  -0.712  0.00  0.00    +0.044 C 
ATOM     11  C   LIG    1       -3.661   0.315  -0.291  0.00  0.00    +0.007 C 
ATOM     12  C   LIG    1       -2.683   1.392   0.135  0.00  0.00    +0.044 C 
ATOM     13  C   LIG    1       -1.406   1.226  -0.701  0.00  0.00    +0.226 C 
ENDBRANCH   3   8
BRANCH   1  14
ATOM     14  N   LIG    1        3.362  -2.323   0.911  0.00  0.00    -0.247 N 
ATOM     15  H   LIG    1        3.903  -2.321   1.819  0.00  0.00    +0.288 HD
ATOM     16  H   LIG    1        3.329  -3.200   0.352  0.00  0.00    +0.288 HD
ENDBRANCH   1  14
BRANCH   5  17
ATOM     17  N   LIG    1        3.393   2.180  -0.865  0.00  0.00    -0.237 NA
ATOM     18  H   LIG    1        3.016   3.109  -0.635  0.00  0.00    +0.127 HD
ATOM     19  H   LIG    1        4.269   2.102  -1.410  0.00  0.00    +0.127 HD
ENDBRANCH   5  17
TORSDOF 3
