REMARK  Name = molecules/ZGFASEKBKWVCGP-FOIQADDNSA-N.pdb
REMARK                            x       y       z     vdW  Elec       q    Type
REMARK                         _______ _______ _______ _____ _____    ______ ____
ROOT
ATOM      1  O   LIG    1       -1.034  -1.231  -2.304  0.00  0.00    -0.245 OA
ATOM      2  C   LIG    1        0.074  -0.875  -1.771  0.00  0.00    +0.345 A 
ATOM      3  C   LIG    1        0.079  -0.220  -0.556  0.00  0.00    +0.087 A 
ATOM      4  C   LIG    1       -1.164   0.102   0.184  0.00  0.00    +0.066 C 
ATOM      5  C   LIG    1       -0.908  -0.225   1.639  0.00  0.00    +0.091 C 
ATOM      6  C   LIG    1        0.101   0.829   2.119  0.00  0.00    +0.210 C 
ATOM      7  C   LIG    1        0.558   0.528   3.526  0.00  0.00    +0.089 C 
ATOM      8  O   LIG    1        1.250   0.842   1.283  0.00  0.00    -0.460 OA
ATOM      9  C   LIG    1        1.264   0.176   0.043  0.00  0.00    +0.145 A 
ATOM     10  C   LIG    1        2.442  -0.105  -0.615  0.00  0.00    +0.060 A 
ATOM     11  C   LIG    1        3.647   0.271  -0.058  0.00  0.00    +0.015 A 
ATOM     12  C   LIG    1        4.807  -0.028  -0.746  0.00  0.00    +0.001 A 
ATOM     13  C   LIG    1        4.742  -0.689  -1.967  0.00  0.00    +0.004 A 
ATOM     14  C   LIG    1        3.535  -1.057  -2.511  0.00  0.00    +0.047 A 
ATOM     15  C   LIG    1        2.356  -0.761  -1.825  0.00  0.00    +0.143 A 
ATOM     16  O   LIG    1        1.215  -1.118  -2.356  0.00  0.00    -0.422 OA
ENDROOT
BRANCH   4  17
ATOM     17  C   LIG    1       -2.380  -0.481  -0.357  0.00  0.00    -0.039 A 
ATOM     18  C   LIG    1       -2.877  -1.727  -0.026  0.00  0.00    +0.004 A 
ATOM     19  C   LIG    1       -4.043  -2.196  -0.592  0.00  0.00    +0.000 A 
ATOM     20  C   LIG    1       -4.764  -1.465  -1.501  0.00  0.00    +0.000 A 
ATOM     21  C   LIG    1       -4.282  -0.210  -1.848  0.00  0.00    +0.000 A 
ATOM     22  C   LIG    1       -3.117   0.254  -1.280  0.00  0.00    +0.004 A 
ENDBRANCH   4  17
BRANCH   6  23
ATOM     23  O   LIG    1       -0.520   2.046   1.987  0.00  0.00    -0.343 OA
ATOM     24  C   LIG    1        0.281   3.119   2.356  0.00  0.00    +0.198 C 
ENDBRANCH   6  23
TORSDOF 2
