REMARK  Name = molecules/ZGUGWUXLJSTTMA-UHFFFAOYSA-N.pdb
REMARK                            x       y       z     vdW  Elec       q    Type
REMARK                         _______ _______ _______ _____ _____    ______ ____
ROOT
ATOM      1  N   LIG    1       -1.127  -0.507   0.351  0.00  0.00    -0.313 N 
ATOM      2  C   LIG    1       -1.536   0.749   0.880  0.00  0.00    +0.115 C 
ATOM      3  C   LIG    1       -0.637   1.507   1.651  0.00  0.00    +0.007 C 
ATOM      4  C   LIG    1       -1.051   2.736   2.183  0.00  0.00    -0.002 C 
ATOM      5  C   LIG    1       -2.310   3.239   1.983  0.00  0.00    +0.001 C 
ATOM      6  C   LIG    1       -3.145   2.454   1.222  0.00  0.00    +0.013 C 
ATOM      7  C   LIG    1       -2.793   1.263   0.688  0.00  0.00    +0.020 C 
ATOM      8  S   LIG    1       -4.011   0.404  -0.250  0.00  0.00    -0.089 S 
ATOM      9  C   LIG    1       -3.256  -1.132  -0.781  0.00  0.00    +0.034 A 
ATOM     10  C   LIG    1       -4.020  -2.001  -1.534  0.00  0.00    +0.017 A 
ATOM     11  C   LIG    1       -3.468  -3.173  -1.962  0.00  0.00    +0.001 A 
ATOM     12  C   LIG    1       -2.166  -3.474  -1.641  0.00  0.00    +0.002 A 
ATOM     13  C   LIG    1       -1.428  -2.578  -0.883  0.00  0.00    +0.024 A 
ATOM     14  C   LIG    1       -1.954  -1.364  -0.422  0.00  0.00    +0.045 A 
ENDROOT
BRANCH   1  15
ATOM     15  C   LIG    1        0.273  -0.865   0.627  0.00  0.00    +0.108 C 
BRANCH  15  16
ATOM     16  C   LIG    1        1.233  -0.089  -0.251  0.00  0.00    +0.034 C 
BRANCH  16  17
ATOM     17  C   LIG    1        2.674  -0.439   0.066  0.00  0.00    +0.085 C 
BRANCH  17  19
ATOM     18  C   LIG    1        4.897  -0.012  -0.544  0.00  0.00    +0.104 C 
ATOM     19  N   LIG    1        3.500   0.360  -0.827  0.00  0.00    -0.308 NA
ATOM     20  C   LIG    1        3.397   1.776  -0.509  0.00  0.00    +0.104 C 
ENDBRANCH  17  19
ENDBRANCH  16  17
ENDBRANCH  15  16
ENDBRANCH   1  15
TORSDOF 4
