REMARK  Name = molecules/ZGXJTSGNIOSYLO-UHFFFAOYSA-N.pdb
REMARK                            x       y       z     vdW  Elec       q    Type
REMARK                         _______ _______ _______ _____ _____    ______ ____
ROOT
ATOM      1  C   LIG    1       -0.577  -0.150   0.006  0.00  0.00    +0.147 C 
ATOM      2  O   LIG    1       -0.002  -1.040   0.581  0.00  0.00    -0.296 OA
ENDROOT
BRANCH   1   3
ATOM      3  C   LIG    1       -1.962  -0.279  -0.470  0.00  0.00    +0.152 C 
BRANCH   3   4
ATOM      4  N   LIG    1       -2.442  -1.604  -0.118  0.00  0.00    -0.324 NA
ATOM      5  H   LIG    1       -2.870  -1.634   0.828  0.00  0.00    +0.119 HD
ATOM      6  H   LIG    1       -3.037  -1.948  -0.877  0.00  0.00    +0.119 HD
ENDBRANCH   3   4
ENDBRANCH   1   3
BRANCH   1   7
ATOM      7  C   LIG    1        0.146   1.122  -0.226  0.00  0.00    +0.087 C 
BRANCH   7   8
ATOM      8  C   LIG    1        1.548   1.097   0.321  0.00  0.00    +0.128 C 
BRANCH   8   9
ATOM      9  C   LIG    1        2.373   0.030  -0.292  0.00  0.00    +0.305 C 
ATOM     10  O   LIG    1        2.863   0.178  -1.439  0.00  0.00    -0.251 OA
BRANCH   9  11
ATOM     11  O   LIG    1        2.633  -1.161   0.366  0.00  0.00    -0.481 OA
ATOM     12  H   LIG    1        2.643  -1.278   1.351  0.00  0.00    +0.295 HD
ENDBRANCH   9  11
ENDBRANCH   8   9
ENDBRANCH   7   8
ENDBRANCH   1   7
TORSDOF 6
