REMARK  Name = molecules/ZHDBTKPXEJDTTQ-UHFFFAOYSA-N.pdb
REMARK                            x       y       z     vdW  Elec       q    Type
REMARK                         _______ _______ _______ _____ _____    ______ ____
ROOT
ATOM      1  S   LIG    1        0.738   1.488   1.444  0.00  0.00    -0.030 S 
ENDROOT
BRANCH   1   2
ATOM      2  C   LIG    1        1.961   0.572   0.564  0.00  0.00    +0.113 C 
ATOM      3  C   LIG    1        1.893  -0.795   0.351  0.00  0.00    +0.017 C 
ATOM      4  C   LIG    1        2.875  -1.467  -0.344  0.00  0.00    +0.049 C 
ATOM      5  C   LIG    1        3.964  -0.794  -0.855  0.00  0.00    +0.002 C 
ATOM      6  C   LIG    1        4.008   0.572  -0.629  0.00  0.00    +0.117 C 
ATOM      7  N   LIG    1        3.029   1.216   0.059  0.00  0.00    -0.188 N 
ATOM      8  O   LIG    1        3.184   2.576   0.219  0.00  0.00    -0.080 OA
ENDBRANCH   1   2
BRANCH   1   9
ATOM      9  S   LIG    1       -0.783   0.160   2.086  0.00  0.00    -0.030 S 
BRANCH   9  10
ATOM     10  C   LIG    1       -2.015   0.090   0.802  0.00  0.00    +0.113 C 
ATOM     11  C   LIG    1       -3.141  -0.698   0.927  0.00  0.00    +0.017 C 
ATOM     12  C   LIG    1       -4.105  -0.750  -0.082  0.00  0.00    +0.049 C 
ATOM     13  C   LIG    1       -3.938   0.000  -1.234  0.00  0.00    +0.002 C 
ATOM     14  C   LIG    1       -2.800   0.774  -1.320  0.00  0.00    +0.117 C 
ATOM     15  N   LIG    1       -1.892   0.800  -0.328  0.00  0.00    -0.188 N 
ATOM     16  O   LIG    1       -0.789   1.586  -0.476  0.00  0.00    -0.080 OA
ENDBRANCH   9  10
ENDBRANCH   1   9
TORSDOF 3
