REMARK  Name = molecules/ZHOWHMXTJFZXRB-SNVBAGLBSA-N.pdb
REMARK                            x       y       z     vdW  Elec       q    Type
REMARK                         _______ _______ _______ _____ _____    ______ ____
ROOT
ATOM      1  C   LIG    1        0.745  -0.197   0.372  0.00  0.00    -0.016 A 
ATOM      2  C   LIG    1        0.456  -1.463   0.844  0.00  0.00    +0.006 A 
ATOM      3  C   LIG    1       -0.799  -2.014   0.734  0.00  0.00    +0.002 A 
ATOM      4  C   LIG    1       -1.804  -1.258   0.124  0.00  0.00    +0.024 A 
ATOM      5  C   LIG    1       -1.578   0.008  -0.365  0.00  0.00    +0.048 A 
ATOM      6  C   LIG    1       -0.274   0.508  -0.220  0.00  0.00    +0.030 A 
ENDROOT
BRANCH   5   7
ATOM      7  N   LIG    1       -2.567   0.791  -0.981  0.00  0.00    -0.221 N 
ATOM      8  H   LIG    1       -2.295   1.286  -1.868  0.00  0.00    +0.173 HD
BRANCH   7   9
ATOM      9  S   LIG    1       -4.160   0.994  -0.395  0.00  0.00    +0.040 S 
ATOM     10  O   LIG    1       -4.025   1.510   1.030  0.00  0.00    -0.155 OA
ATOM     11  C   LIG    1       -5.101  -0.485  -0.313  0.00  0.00    +0.218 C 
ATOM     12  O   LIG    1       -4.906   2.012  -1.220  0.00  0.00    -0.155 OA
ENDBRANCH   7   9
ENDBRANCH   5   7
BRANCH   1  13
ATOM     13  C   LIG    1        2.118   0.410   0.486  0.00  0.00    +0.158 C 
BRANCH  13  14
ATOM     14  O   LIG    1        1.984   1.709   0.900  0.00  0.00    -0.386 OA
ATOM     15  H   LIG    1        1.153   1.818   1.461  0.00  0.00    +0.210 HD
ENDBRANCH  13  14
BRANCH  13  16
ATOM     16  C   LIG    1        2.856   0.274  -0.831  0.00  0.00    +0.116 C 
BRANCH  16  17
ATOM     17  N   LIG    1        4.178   0.825  -0.725  0.00  0.00    -0.316 NA
ATOM     18  C   LIG    1        4.972  -0.001   0.160  0.00  0.00    +0.101 C 
ATOM     19  H   LIG    1        4.182   1.791  -0.352  0.00  0.00    +0.122 HD
ENDBRANCH  16  17
ENDBRANCH  13  16
ENDBRANCH   1  13
TORSDOF 6
