REMARK  Name = molecules/ZILPIBYANAFGMS-XGHQBKJUSA-N.pdb
REMARK                            x       y       z     vdW  Elec       q    Type
REMARK                         _______ _______ _______ _____ _____    ______ ____
ROOT
ATOM      1  N   LIG    1        2.742  -1.607   0.076  0.00  0.00    -0.344 N 
ATOM      2  C   LIG    1        1.433  -1.438  -0.251  0.00  0.00    +0.049 A 
ATOM      3  C   LIG    1        1.109  -2.422  -1.147  0.00  0.00    +0.025 A 
ATOM      4  C   LIG    1        2.232  -3.215  -1.380  0.00  0.00    +0.019 A 
ATOM      5  C   LIG    1        3.221  -2.669  -0.598  0.00  0.00    +0.086 A 
ENDROOT
BRANCH   1   6
ATOM      6  C   LIG    1        3.421  -0.767   1.006  0.00  0.00    +0.158 C 
BRANCH   6   7
ATOM      7  C   LIG    1        4.023   0.463   0.443  0.00  0.00    -0.009 A 
ATOM      8  C   LIG    1        3.344   1.681   0.593  0.00  0.00    +0.007 A 
ATOM      9  C   LIG    1        3.826   2.864   0.093  0.00  0.00    +0.000 A 
ATOM     10  C   LIG    1        5.022   2.904  -0.591  0.00  0.00    +0.001 A 
ATOM     11  C   LIG    1        5.713   1.735  -0.756  0.00  0.00    +0.020 A 
ATOM     12  C   LIG    1        5.208   0.545  -0.242  0.00  0.00    +0.046 A 
ATOM     13 CL   LIG    1        6.153  -0.942  -0.454  0.00  0.00    -0.083 Cl
ENDBRANCH   6   7
ENDBRANCH   1   6
BRANCH   2  14
ATOM     14  C   LIG    1        0.467  -0.392   0.246  0.00  0.00    +0.175 C 
BRANCH  14  15
ATOM     15  O   LIG    1        0.620  -0.358   1.615  0.00  0.00    -0.384 OA
ATOM     16  H   LIG    1        0.564  -1.289   1.950  0.00  0.00    +0.210 HD
ENDBRANCH  14  15
BRANCH  14  17
ATOM     17  C   LIG    1       -0.948  -0.772  -0.087  0.00  0.00    +0.122 C 
BRANCH  17  18
ATOM     18  N   LIG    1       -1.999  -0.009   0.337  0.00  0.00    -0.294 NA
BRANCH  18  19
ATOM     19  C   LIG    1       -2.037   1.175   1.029  0.00  0.00    +0.054 C 
ATOM     20  C   LIG    1       -1.681   1.118   2.519  0.00  0.00    +0.024 C 
BRANCH  19  21
ATOM     21  C   LIG    1       -1.444   2.425   0.447  0.00  0.00    +0.015 C 
ATOM     22  C   LIG    1       -2.130   2.762  -0.870  0.00  0.00    +0.005 C 
ENDBRANCH  19  21
ENDBRANCH  18  19
BRANCH  18  23
ATOM     23  C   LIG    1       -3.279  -0.525  -0.105  0.00  0.00    +0.054 C 
ATOM     24  C   LIG    1       -3.386  -0.540  -1.614  0.00  0.00    +0.024 C 
BRANCH  23  25
ATOM     25  C   LIG    1       -3.575  -1.875   0.460  0.00  0.00    +0.015 C 
ATOM     26  C   LIG    1       -4.951  -2.275  -0.089  0.00  0.00    +0.005 C 
ENDBRANCH  23  25
ENDBRANCH  18  23
ENDBRANCH  17  18
ENDBRANCH  14  17
ENDBRANCH   2  14
TORSDOF 10
