REMARK  Name = molecules/ZJAOAACCNHFJAH-UHFFFAOYSA-N.pdb
REMARK                            x       y       z     vdW  Elec       q    Type
REMARK                         _______ _______ _______ _____ _____    ______ ____
ROOT
ATOM      1  P   LIG    1       -0.562  -0.334  -0.422  0.00  0.00    +0.434 P 
ATOM      2  O   LIG    1       -0.285  -1.042  -1.737  0.00  0.00    -0.247 OA
ENDROOT
BRANCH   1   3
ATOM      3  C   LIG    1        0.837   0.685  -0.059  0.00  0.00    +0.418 C 
ATOM      4  O   LIG    1        0.741   1.928  -0.061  0.00  0.00    -0.237 OA
BRANCH   3   5
ATOM      5  O   LIG    1        2.038   0.072   0.226  0.00  0.00    -0.472 OA
ATOM      6  H   LIG    1        2.833   0.606   0.568  0.00  0.00    +0.296 HD
ENDBRANCH   3   5
ENDBRANCH   1   3
BRANCH   1   7
ATOM      7  O   LIG    1       -0.781  -1.425   0.838  0.00  0.00    -0.316 OA
ATOM      8  H   LIG    1       -0.778  -2.345   0.458  0.00  0.00    +0.220 HD
ENDBRANCH   1   7
BRANCH   1   9
ATOM      9  O   LIG    1       -1.982   0.547  -0.603  0.00  0.00    -0.316 OA
ATOM     10  H   LIG    1       -2.061   1.309   0.014  0.00  0.00    +0.220 HD
ENDBRANCH   1   9
TORSDOF 4
