REMARK  Name = molecules/ZJKNESGOIKRXQY-UHFFFAOYSA-N.pdb
REMARK                            x       y       z     vdW  Elec       q    Type
REMARK                         _______ _______ _______ _____ _____    ______ ____
ROOT
ATOM      1  C   LIG    1       -0.990   0.250   1.279  0.00  0.00    +0.211 C 
ATOM      2  O   LIG    1       -0.988   0.815   2.396  0.00  0.00    -0.285 OA
ENDROOT
BRANCH   1   3
ATOM      3  C   LIG    1       -2.200  -0.287   0.670  0.00  0.00    +0.110 A 
ATOM      4  N   LIG    1       -2.515  -1.605   0.596  0.00  0.00    -0.303 N 
ATOM      5  H   LIG    1       -1.965  -2.423   0.932  0.00  0.00    +0.171 HD
ATOM      6  C   LIG    1       -3.715  -1.675  -0.020  0.00  0.00    +0.325 A 
ATOM      7  O   LIG    1       -4.325  -2.773  -0.263  0.00  0.00    -0.247 OA
ATOM      8  N   LIG    1       -4.132  -0.428  -0.318  0.00  0.00    -0.310 N 
ATOM      9  H   LIG    1       -5.032  -0.166  -0.801  0.00  0.00    +0.170 HD
ATOM     10  C   LIG    1       -3.214   0.456   0.097  0.00  0.00    +0.044 A 
ATOM     11  C   LIG    1       -3.241   1.958  -0.032  0.00  0.00    +0.066 C 
ENDBRANCH   1   3
BRANCH   1  12
ATOM     12  C   LIG    1        0.257   0.133   0.567  0.00  0.00    +0.024 A 
ATOM     13  C   LIG    1        1.439   0.087   1.240  0.00  0.00    +0.013 A 
ATOM     14  C   LIG    1        2.660  -0.011   0.579  0.00  0.00    +0.015 A 
ATOM     15  C   LIG    1        2.655  -0.063  -0.794  0.00  0.00    +0.008 A 
ATOM     16  C   LIG    1        1.450  -0.016  -1.471  0.00  0.00    +0.015 A 
ATOM     17  C   LIG    1        0.247   0.081  -0.814  0.00  0.00    +0.013 A 
BRANCH  15  18
ATOM     18  S   LIG    1        4.193  -0.200  -1.669  0.00  0.00    -0.129 S 
ATOM     19  C   LIG    1        5.587  -0.283  -0.504  0.00  0.00    +0.090 C 
ENDBRANCH  15  18
ENDBRANCH   1  12
TORSDOF 3
