REMARK  Name = molecules/ZJVFLBOZORBYFE-UHFFFAOYSA-N.pdb
REMARK                            x       y       z     vdW  Elec       q    Type
REMARK                         _______ _______ _______ _____ _____    ______ ____
ROOT
ATOM      1  C   LIG    1       -2.082   2.689   1.238  0.00  0.00    +0.113 A 
ATOM      2  N   LIG    1       -1.560   1.511   0.780  0.00  0.00    -0.239 N 
ATOM      3  N   LIG    1       -1.812   0.217   1.083  0.00  0.00    -0.170 NA
ATOM      4  C   LIG    1       -1.013  -0.580   0.301  0.00  0.00    +0.077 A 
ATOM      5  C   LIG    1       -0.284   0.261  -0.453  0.00  0.00    +0.066 A 
ATOM      6  C   LIG    1       -0.621   1.591  -0.169  0.00  0.00    +0.078 A 
ATOM      7  C   LIG    1       -0.174   2.784  -0.687  0.00  0.00    +0.028 A 
ATOM      8  C   LIG    1       -0.707   3.962  -0.216  0.00  0.00    +0.004 A 
ATOM      9  C   LIG    1       -1.673   3.902   0.757  0.00  0.00    +0.020 A 
ENDROOT
BRANCH   4  10
ATOM     10  C   LIG    1       -1.217  -2.010   0.106  0.00  0.00    +0.034 C 
ATOM     11  C   LIG    1       -0.347  -2.993   0.851  0.00  0.00    +0.014 C 
ATOM     12  C   LIG    1       -2.639  -2.267   0.832  0.00  0.00    +0.014 C 
ENDBRANCH   4  10
BRANCH   5  13
ATOM     13  C   LIG    1        0.814  -0.062  -1.380  0.00  0.00    +0.170 C 
ATOM     14  O   LIG    1        0.605  -0.278  -2.556  0.00  0.00    -0.292 OA
BRANCH  13  15
ATOM     15  C   LIG    1        2.174  -0.089  -0.796  0.00  0.00    +0.054 C 
ATOM     16  C   LIG    1        2.311  -1.093   0.354  0.00  0.00    +0.015 C 
ATOM     17  C   LIG    1        3.302  -0.141  -1.764  0.00  0.00    +0.015 C 
ENDBRANCH  13  15
ENDBRANCH   5  13
TORSDOF 3
