REMARK  Name = molecules/ZKCWITXZGWUJAV-HXUWFJFHSA-N.pdb
REMARK                            x       y       z     vdW  Elec       q    Type
REMARK                         _______ _______ _______ _____ _____    ______ ____
ROOT
ATOM      1  C   LIG    1       -2.558  -0.099   1.447  0.00  0.00    +0.213 C 
ENDROOT
BRANCH   1   2
ATOM      2  C   LIG    1       -3.085   1.242   1.117  0.00  0.00    -0.001 A 
ATOM      3  C   LIG    1       -4.449   1.399   1.025  0.00  0.00    +0.007 A 
ATOM      4  C   LIG    1       -5.021   2.623   0.722  0.00  0.00    +0.000 A 
ATOM      5  C   LIG    1       -4.217   3.713   0.507  0.00  0.00    +0.000 A 
ATOM      6  C   LIG    1       -2.854   3.564   0.598  0.00  0.00    +0.000 A 
ATOM      7  C   LIG    1       -2.292   2.342   0.900  0.00  0.00    +0.007 A 
ENDBRANCH   1   2
BRANCH   1   8
ATOM      8  C   LIG    1       -2.920  -1.046   0.379  0.00  0.00    -0.001 A 
ATOM      9  C   LIG    1       -3.769  -2.102   0.638  0.00  0.00    +0.007 A 
ATOM     10  C   LIG    1       -4.107  -2.987  -0.364  0.00  0.00    +0.000 A 
ATOM     11  C   LIG    1       -3.608  -2.840  -1.639  0.00  0.00    +0.000 A 
ATOM     12  C   LIG    1       -2.758  -1.790  -1.915  0.00  0.00    +0.000 A 
ATOM     13  C   LIG    1       -2.423  -0.905  -0.906  0.00  0.00    +0.007 A 
ENDBRANCH   1   8
BRANCH   1  14
ATOM     14  O   LIG    1       -3.207  -0.490   2.641  0.00  0.00    -0.370 OA
ATOM     15  H   LIG    1       -2.807   0.026   3.366  0.00  0.00    +0.212 HD
ENDBRANCH   1  14
BRANCH   1  16
ATOM     16  C   LIG    1       -1.096  -0.129   1.644  0.00  0.00    +0.349 C 
ATOM     17  O   LIG    1       -0.575  -0.458   2.764  0.00  0.00    -0.247 OA
BRANCH  16  18
ATOM     18  O   LIG    1       -0.177   0.188   0.656  0.00  0.00    -0.461 OA
BRANCH  18  19
ATOM     19  C   LIG    1        1.198   0.170   0.808  0.00  0.00    +0.159 C 
ATOM     20  C   LIG    1        1.887   1.481   0.592  0.00  0.00    +0.025 C 
ATOM     21  C   LIG    1        3.334   1.032   0.490  0.00  0.00    -0.071 C 
ATOM     22  N   LIG    1        3.252  -0.168  -0.321  0.00  0.00    +0.382 N 
ATOM     23  C   LIG    1        1.945  -0.754  -0.085  0.00  0.00    -0.030 C 
BRANCH  22  24
ATOM     24  C   LIG    1        4.319  -1.044   0.117  0.00  0.00    -0.078 C 
ATOM     25  C   LIG    1        4.483  -2.263  -0.724  0.00  0.00    -0.016 C 
ENDBRANCH  22  24
BRANCH  22  26
ATOM     26  C   LIG    1        3.330   0.162  -1.721  0.00  0.00    -0.078 C 
ATOM     27  C   LIG    1        4.717   0.228  -2.263  0.00  0.00    -0.016 C 
ENDBRANCH  22  26
ENDBRANCH  18  19
ENDBRANCH  16  18
ENDBRANCH   1  16
TORSDOF 8
