REMARK  Name = molecules/ZKGDBJAHIIXDDW-MRVPVSSYSA-N.pdb
REMARK                            x       y       z     vdW  Elec       q    Type
REMARK                         _______ _______ _______ _____ _____    ______ ____
ROOT
ATOM      1  C   LIG    1       -0.022  -0.414   0.015  0.00  0.00    -0.011 A 
ATOM      2  C   LIG    1        0.217  -1.532   0.794  0.00  0.00    +0.055 A 
ATOM      3  C   LIG    1       -0.429  -1.678   2.002  0.00  0.00    +0.165 A 
ATOM      4  C   LIG    1       -1.306  -0.703   2.416  0.00  0.00    +0.201 A 
ATOM      5  C   LIG    1       -1.558   0.429   1.644  0.00  0.00    +0.165 A 
ATOM      6  C   LIG    1       -0.901   0.547   0.448  0.00  0.00    +0.055 A 
ENDROOT
BRANCH   3   7
ATOM      7  O   LIG    1       -0.202  -2.813   2.816  0.00  0.00    -0.491 OA
ATOM      8  C   LIG    1        0.717  -3.811   2.353  0.00  0.00    +0.277 C 
ENDBRANCH   3   7
BRANCH   4   9
ATOM      9  O   LIG    1       -1.969  -0.831   3.633  0.00  0.00    -0.501 OA
ATOM     10  H   LIG    1       -1.800  -1.644   4.208  0.00  0.00    +0.292 HD
ENDBRANCH   4   9
BRANCH   5  11
ATOM     11  O   LIG    1       -2.449   1.380   2.106  0.00  0.00    -0.491 OA
ATOM     12  C   LIG    1       -2.774   2.548   1.414  0.00  0.00    +0.277 C 
ENDBRANCH   5  11
BRANCH   1  13
ATOM     13  C   LIG    1        0.725  -0.358  -1.261  0.00  0.00    +0.158 C 
BRANCH  13  14
ATOM     14  O   LIG    1        2.078  -0.722  -1.064  0.00  0.00    -0.386 OA
ATOM     15  H   LIG    1        2.616   0.039  -0.766  0.00  0.00    +0.210 HD
ENDBRANCH  13  14
BRANCH  13  16
ATOM     16  C   LIG    1        0.780   1.042  -1.853  0.00  0.00    +0.116 C 
BRANCH  16  17
ATOM     17  N   LIG    1        1.539   0.899  -3.102  0.00  0.00    -0.316 NA
ATOM     18  H   LIG    1        2.430   0.401  -2.890  0.00  0.00    +0.122 HD
ATOM     19  C   LIG    1        1.700   2.136  -3.798  0.00  0.00    +0.101 C 
ENDBRANCH  16  17
ENDBRANCH  13  16
ENDBRANCH   1  13
TORSDOF 7
