REMARK  Name = molecules/ZKHQWZAMYRWXGA-KQYNXXCUSA-N.pdb
REMARK                            x       y       z     vdW  Elec       q    Type
REMARK                         _______ _______ _______ _____ _____    ______ ____
ROOT
ATOM      1  C   LIG    1       -2.475  -1.558   1.118  0.00  0.00    +0.195 C 
ATOM      2  C   LIG    1       -2.456  -0.049   1.065  0.00  0.00    +0.253 C 
ATOM      3  O   LIG    1       -1.147   0.349   0.986  0.00  0.00    -0.346 OA
ATOM      4  C   LIG    1       -0.401  -0.628   1.640  0.00  0.00    +0.178 C 
ATOM      5  C   LIG    1       -1.000  -1.895   1.033  0.00  0.00    +0.178 C 
ENDROOT
BRANCH   2   6
ATOM      6  N   LIG    1       -3.266   0.381  -0.035  0.00  0.00    -0.286 N 
ATOM      7  C   LIG    1       -4.627   0.347  -0.004  0.00  0.00    +0.167 A 
ATOM      8  N   LIG    1       -5.510  -0.043   0.933  0.00  0.00    -0.216 NA
ATOM      9  C   LIG    1       -6.840   0.014   0.738  0.00  0.00    +0.225 A 
ATOM     10  N   LIG    1       -7.298   0.478  -0.437  0.00  0.00    -0.219 NA
ATOM     11  C   LIG    1       -6.487   0.887  -1.422  0.00  0.00    +0.147 A 
ATOM     12  C   LIG    1       -5.114   0.822  -1.205  0.00  0.00    +0.147 A 
ATOM     13  N   LIG    1       -4.059   1.140  -1.957  0.00  0.00    -0.231 NA
ATOM     14  C   LIG    1       -2.949   0.868  -1.236  0.00  0.00    +0.203 A 
BRANCH  11  15
ATOM     15  N   LIG    1       -7.007   1.373  -2.653  0.00  0.00    -0.341 N 
ATOM     16  H   LIG    1       -7.901   1.944  -2.629  0.00  0.00    +0.144 HD
ATOM     17  H   LIG    1       -6.527   1.177  -3.558  0.00  0.00    +0.144 HD
ENDBRANCH  11  15
ENDBRANCH   2   6
BRANCH   1  18
ATOM     18  O   LIG    1       -2.945  -2.007   2.349  0.00  0.00    -0.385 OA
ATOM     19  H   LIG    1       -2.958  -1.305   3.040  0.00  0.00    +0.210 HD
ENDBRANCH   1  18
BRANCH   5  20
ATOM     20  O   LIG    1       -0.692  -3.009   1.828  0.00  0.00    -0.386 OA
ATOM     21  H   LIG    1       -1.155  -3.775   1.407  0.00  0.00    +0.210 HD
ENDBRANCH   5  20
BRANCH   4  22
ATOM     22  C   LIG    1        1.071  -0.520   1.335  0.00  0.00    +0.206 C 
BRANCH  22  23
ATOM     23  O   LIG    1        1.499   0.737   1.756  0.00  0.00    -0.284 OA
BRANCH  23  24
ATOM     24  P   LIG    1        3.141   0.973   1.463  0.00  0.00    +0.483 P 
ATOM     25  O   LIG    1        3.525   2.323   2.013  0.00  0.00    -0.227 OA
BRANCH  24  26
ATOM     26  O   LIG    1        4.070  -0.186   2.276  0.00  0.00    -0.302 OA
ATOM     27  H   LIG    1        3.873  -1.098   1.963  0.00  0.00    +0.222 HD
ENDBRANCH  24  26
BRANCH  24  28
ATOM     28  O   LIG    1        3.418   0.892  -0.196  0.00  0.00    -0.186 OA
BRANCH  28  29
ATOM     29  P   LIG    1        5.061   1.212  -0.475  0.00  0.00    +0.492 P 
ATOM     30  O   LIG    1        5.243   2.687  -0.754  0.00  0.00    -0.226 OA
BRANCH  29  31
ATOM     31  O   LIG    1        5.968   0.768   0.878  0.00  0.00    -0.302 OA
ATOM     32  H   LIG    1        6.043  -0.206   0.947  0.00  0.00    +0.222 HD
ENDBRANCH  29  31
BRANCH  29  33
ATOM     33  O   LIG    1        5.609   0.351  -1.820  0.00  0.00    -0.186 OA
BRANCH  33  34
ATOM     34  P   LIG    1        7.256   0.019  -1.635  0.00  0.00    +0.481 P 
ATOM     35  O   LIG    1        7.403  -1.472  -1.489  0.00  0.00    -0.227 OA
BRANCH  34  36
ATOM     36  O   LIG    1        7.846   0.730  -0.212  0.00  0.00    -0.302 OA
ATOM     37  H   LIG    1        8.338   1.567  -0.381  0.00  0.00    +0.222 HD
ENDBRANCH  34  36
BRANCH  34  38
ATOM     38  O   LIG    1        8.153   0.590  -2.966  0.00  0.00    -0.302 OA
ATOM     39  H   LIG    1        9.105   0.644  -2.656  0.00  0.00    +0.222 HD
ENDBRANCH  34  38
ENDBRANCH  33  34
ENDBRANCH  29  33
ENDBRANCH  28  29
ENDBRANCH  24  28
ENDBRANCH  23  24
ENDBRANCH  22  23
ENDBRANCH   4  22
TORSDOF 15
