REMARK  Name = molecules/ZKLPARSLTMPFCP-OAQYLSRUSA-N.pdb
REMARK                            x       y       z     vdW  Elec       q    Type
REMARK                         _______ _______ _______ _____ _____    ______ ____
ROOT
ATOM      1  C   LIG    1       -1.847  -0.107   0.662  0.00  0.00    +0.117 C 
ENDROOT
BRANCH   1   2
ATOM      2  C   LIG    1       -2.577   1.190   0.665  0.00  0.00    -0.026 A 
ATOM      3  C   LIG    1       -2.025   2.366   1.112  0.00  0.00    +0.007 A 
ATOM      4  C   LIG    1       -2.792   3.509   1.071  0.00  0.00    +0.020 A 
ATOM      5  C   LIG    1       -4.097   3.517   0.597  0.00  0.00    +0.041 A 
ATOM      6 CL   LIG    1       -5.034   5.018   0.569  0.00  0.00    -0.084 Cl
ATOM      7  C   LIG    1       -4.643   2.335   0.151  0.00  0.00    +0.020 A 
ATOM      8  C   LIG    1       -3.866   1.206   0.198  0.00  0.00    +0.007 A 
ENDBRANCH   1   2
BRANCH   1   9
ATOM      9  N   LIG    1       -0.537  -0.023   0.173  0.00  0.00    -0.289 NA
ATOM     10  C   LIG    1        0.113  -1.299   0.142  0.00  0.00    +0.100 C 
ATOM     11  C   LIG    1        1.516  -1.075  -0.468  0.00  0.00    +0.100 C 
ATOM     12  N   LIG    1        1.936   0.197  -0.028  0.00  0.00    -0.298 NA
ATOM     13  C   LIG    1        1.244   1.324  -0.622  0.00  0.00    +0.100 C 
ATOM     14  C   LIG    1       -0.203   0.853  -0.872  0.00  0.00    +0.100 C 
BRANCH  12  15
ATOM     15  C   LIG    1        3.376   0.432   0.011  0.00  0.00    +0.112 C 
BRANCH  15  16
ATOM     16  C   LIG    1        3.961  -0.383   1.112  0.00  0.00    +0.176 C 
BRANCH  16  17
ATOM     17  O   LIG    1        5.270  -0.352   1.388  0.00  0.00    -0.367 OA
BRANCH  17  18
ATOM     18  C   LIG    1        6.128  -0.709   0.429  0.00  0.00    +0.280 C 
BRANCH  18  19
ATOM     19  C   LIG    1        6.313   0.267  -0.648  0.00  0.00    +0.331 C 
ATOM     20  O   LIG    1        5.936   1.435  -0.724  0.00  0.00    -0.248 OA
BRANCH  19  21
ATOM     21  O   LIG    1        7.036  -0.204  -1.775  0.00  0.00    -0.479 OA
ATOM     22  H   LIG    1        7.774   0.406  -2.099  0.00  0.00    +0.295 HD
ENDBRANCH  19  21
ENDBRANCH  18  19
ENDBRANCH  17  18
ENDBRANCH  16  17
ENDBRANCH  15  16
ENDBRANCH  12  15
ENDBRANCH   1   9
BRANCH   1  23
ATOM     23  C   LIG    1       -2.694  -1.133   0.018  0.00  0.00    -0.026 A 
ATOM     24  C   LIG    1       -3.461  -1.985   0.820  0.00  0.00    +0.005 A 
ATOM     25  C   LIG    1       -4.277  -2.957   0.312  0.00  0.00    +0.000 A 
ATOM     26  C   LIG    1       -4.365  -3.126  -1.054  0.00  0.00    +0.000 A 
ATOM     27  C   LIG    1       -3.626  -2.307  -1.857  0.00  0.00    +0.000 A 
ATOM     28  C   LIG    1       -2.799  -1.321  -1.336  0.00  0.00    +0.005 A 
ENDBRANCH   1  23
TORSDOF 9
