REMARK  Name = molecules/ZKMNUMMKYBVTFN-HNNXBMFYSA-N.pdb
REMARK                            x       y       z     vdW  Elec       q    Type
REMARK                         _______ _______ _______ _____ _____    ______ ____
ROOT
ATOM      1  C   LIG    1       -0.306   0.008   0.177  0.00  0.00    +0.234 C 
ATOM      2  O   LIG    1       -0.153   1.026   0.912  0.00  0.00    -0.274 OA
ATOM      3  N   LIG    1       -1.566  -0.413  -0.295  0.00  0.00    -0.284 N 
ATOM      4  H   LIG    1       -1.645  -1.260  -0.902  0.00  0.00    +0.155 HD
ENDROOT
BRANCH   3   5
ATOM      5  C   LIG    1       -2.787   0.256   0.002  0.00  0.00    +0.039 A 
ATOM      6  C   LIG    1       -3.535  -0.061   1.110  0.00  0.00    -0.029 A 
ATOM      7  C   LIG    1       -3.077  -1.126   2.038  0.00  0.00    +0.045 C 
ATOM      8  C   LIG    1       -4.728   0.585   1.408  0.00  0.00    +0.005 A 
ATOM      9  C   LIG    1       -5.215   1.584   0.591  0.00  0.00    +0.001 A 
ATOM     10  C   LIG    1       -4.475   1.912  -0.523  0.00  0.00    +0.005 A 
ATOM     11  C   LIG    1       -3.293   1.270  -0.816  0.00  0.00    -0.029 A 
ATOM     12  C   LIG    1       -2.488   1.615  -2.016  0.00  0.00    +0.045 C 
ENDBRANCH   3   5
BRANCH   1  13
ATOM     13  C   LIG    1        0.888  -0.786  -0.209  0.00  0.00    +0.143 C 
ATOM     14  N   LIG    1        2.111  -0.237   0.347  0.00  0.00    -0.292 NA
ATOM     15  C   LIG    1        3.058  -1.296   0.463  0.00  0.00    +0.085 C 
ATOM     16  C   LIG    1        2.904  -2.399  -0.564  0.00  0.00    +0.015 C 
ATOM     17  C   LIG    1        1.579  -3.096  -0.484  0.00  0.00    +0.003 C 
ATOM     18  C   LIG    1        0.661  -2.195   0.312  0.00  0.00    +0.028 C 
BRANCH  14  19
ATOM     19  C   LIG    1        2.546   0.930  -0.350  0.00  0.00    +0.085 C 
BRANCH  19  20
ATOM     20  C   LIG    1        3.766   1.530   0.302  0.00  0.00    +0.012 C 
ATOM     21  C   LIG    1        4.210   2.787  -0.447  0.00  0.00    +0.005 C 
ENDBRANCH  19  20
ENDBRANCH  14  19
ENDBRANCH   1  13
TORSDOF 4
