REMARK  Name = molecules/ZKUDBRCEOBOWLF-UHFFFAOYSA-N.pdb
REMARK                            x       y       z     vdW  Elec       q    Type
REMARK                         _______ _______ _______ _____ _____    ______ ____
ROOT
ATOM      1  C   LIG    1        0.042  -1.202  -1.509  0.00  0.00    +0.109 A 
ATOM      2  C   LIG    1        0.784  -1.939  -0.617  0.00  0.00    +0.029 A 
ATOM      3  C   LIG    1        1.977  -1.464  -0.116  0.00  0.00    +0.005 A 
ATOM      4  C   LIG    1        2.478  -0.226  -0.493  0.00  0.00    -0.046 A 
ATOM      5  C   LIG    1        1.751   0.521  -1.382  0.00  0.00    +0.005 A 
ATOM      6  C   LIG    1        0.534   0.029  -1.886  0.00  0.00    +0.029 A 
ENDROOT
BRANCH   1   7
ATOM      7  S   LIG    1       -1.487  -1.805  -2.122  0.00  0.00    +0.076 S 
ATOM      8  O   LIG    1       -1.222  -3.161  -2.712  0.00  0.00    -0.150 OA
ATOM      9  O   LIG    1       -1.948  -0.911  -3.241  0.00  0.00    -0.150 OA
BRANCH   7  10
ATOM     10  N   LIG    1       -2.659  -1.880  -0.902  0.00  0.00    -0.168 N 
ATOM     11  H   LIG    1       -2.504  -2.554  -0.113  0.00  0.00    +0.178 HD
ATOM     12  C   LIG    1       -3.819  -1.042  -0.942  0.00  0.00    +0.333 C 
ATOM     13  N   LIG    1       -4.804  -1.093   0.058  0.00  0.00    -0.231 N 
ATOM     14  H   LIG    1       -4.591  -1.824   0.838  0.00  0.00    +0.171 HD
ATOM     15  O   LIG    1       -3.924  -0.256  -1.908  0.00  0.00    -0.250 OA
BRANCH  13  16
ATOM     16  N   LIG    1       -5.955  -0.417   0.237  0.00  0.00    -0.226 NA
ATOM     17  C   LIG    1       -6.432  -0.338   1.576  0.00  0.00    +0.105 C 
ATOM     18  C   LIG    1       -7.925  -0.307   1.608  0.00  0.00    +0.017 C 
ATOM     19  C   LIG    1       -8.351   1.158   1.703  0.00  0.00    +0.001 C 
ATOM     20  C   LIG    1       -8.404   1.705   0.302  0.00  0.00    +0.001 C 
ATOM     21  C   LIG    1       -7.036   1.709  -0.339  0.00  0.00    +0.017 C 
ATOM     22  C   LIG    1       -6.576   0.322  -0.758  0.00  0.00    +0.105 C 
ENDBRANCH  13  16
ENDBRANCH   7  10
ENDBRANCH   1   7
BRANCH   4  23
ATOM     23  C   LIG    1        3.794   0.251   0.028  0.00  0.00    +0.054 C 
BRANCH  23  24
ATOM     24  C   LIG    1        4.908  -0.333  -0.805  0.00  0.00    +0.109 C 
BRANCH  24  25
ATOM     25  N   LIG    1        6.229   0.047  -0.365  0.00  0.00    -0.310 N 
ATOM     26  H   LIG    1        6.321   0.685   0.448  0.00  0.00    +0.149 HD
ATOM     27  C   LIG    1        7.400  -0.420  -1.003  0.00  0.00    +0.266 C 
ATOM     28  O   LIG    1        7.317  -1.184  -1.994  0.00  0.00    -0.268 OA
BRANCH  27  29
ATOM     29  C   LIG    1        8.716  -0.030  -0.533  0.00  0.00    +0.168 A 
ATOM     30  C   LIG    1        9.006   0.756   0.593  0.00  0.00    +0.080 A 
ATOM     31  C   LIG    1       10.380   0.856   0.670  0.00  0.00    +0.135 A 
ATOM     32  C   LIG    1       11.159   1.601   1.712  0.00  0.00    +0.089 C 
ATOM     33  O   LIG    1       10.863   0.175  -0.341  0.00  0.00    -0.359 OA
ATOM     34  N   LIG    1        9.916  -0.338  -1.039  0.00  0.00    -0.073 NA
ENDBRANCH  27  29
ENDBRANCH  24  25
ENDBRANCH  23  24
ENDBRANCH   4  23
TORSDOF 7
