REMARK  Name = molecules/ZLHZLMOSPGACSZ-NSHDSACASA-N.pdb
REMARK                            x       y       z     vdW  Elec       q    Type
REMARK                         _______ _______ _______ _____ _____    ______ ____
ROOT
ATOM      1  O   LIG    1       -0.771  -2.408   0.002  0.00  0.00    -0.367 OA
ENDROOT
BRANCH   1   2
ATOM      2  C   LIG    1       -1.377  -1.188   0.066  0.00  0.00    +0.176 C 
ATOM      3  C   LIG    1       -1.628  -0.713   1.480  0.00  0.00    +0.265 C 
ATOM      4  O   LIG    1       -2.307   0.516   1.437  0.00  0.00    -0.461 OA
ATOM      5  C   LIG    1       -2.879   1.034   0.258  0.00  0.00    +0.300 A 
ATOM      6  N   LIG    1       -3.286   2.265  -0.091  0.00  0.00    -0.171 NA
ATOM      7  C   LIG    1       -3.767   2.204  -1.367  0.00  0.00    +0.236 A 
ATOM      8  C   LIG    1       -3.642   0.887  -1.794  0.00  0.00    +0.144 A 
ATOM      9  N   LIG    1       -3.100   0.218  -0.777  0.00  0.00    -0.296 N 
ATOM     10  C   LIG    1       -2.738  -1.171  -0.633  0.00  0.00    +0.161 C 
BRANCH   7  11
ATOM     11  N   LIG    1       -4.299   3.262  -2.135  0.00  0.00    +0.077 N 
ATOM     12  O   LIG    1       -4.367   4.512  -1.602  0.00  0.00    -0.125 OA
ATOM     13  O   LIG    1       -4.697   3.052  -3.280  0.00  0.00    -0.125 OA
ENDBRANCH   7  11
ENDBRANCH   1   2
BRANCH   1  14
ATOM     14  C   LIG    1        0.434  -2.314  -0.667  0.00  0.00    +0.195 C 
BRANCH  14  20
ATOM     15  C   LIG    1        2.056  -1.719   1.137  0.00  0.00    +0.009 A 
ATOM     16  C   LIG    1        2.968  -0.858   1.718  0.00  0.00    +0.046 A 
ATOM     17  C   LIG    1        3.271   0.359   1.153  0.00  0.00    +0.130 A 
ATOM     18  C   LIG    1        2.623   0.695  -0.029  0.00  0.00    +0.046 A 
ATOM     19  C   LIG    1        1.709  -0.176  -0.605  0.00  0.00    +0.009 A 
ATOM     20  C   LIG    1        1.408  -1.394  -0.036  0.00  0.00    -0.022 A 
BRANCH  17  21
ATOM     21  O   LIG    1        4.185   1.248   1.714  0.00  0.00    -0.406 OA
BRANCH  21  22
ATOM     22  C   LIG    1        5.542   1.108   1.300  0.00  0.00    +0.575 C 
ATOM     23  F   LIG    1        6.261   2.074   1.969  0.00  0.00    -0.133 F 
ATOM     24  F   LIG    1        6.027  -0.133   1.632  0.00  0.00    -0.133 F 
ATOM     25  F   LIG    1        5.658   1.274  -0.067  0.00  0.00    -0.133 F 
ENDBRANCH  21  22
ENDBRANCH  17  21
ENDBRANCH  14  20
ENDBRANCH   1  14
TORSDOF 6
