REMARK  Name = molecules/ZLOXYEZYWCTXHU-UHFFFAOYSA-N.pdb
REMARK                            x       y       z     vdW  Elec       q    Type
REMARK                         _______ _______ _______ _____ _____    ______ ____
ROOT
ATOM      1  N   LIG    1       -0.094  -0.023   0.534  0.00  0.00    -0.260 N 
ATOM      2  H   LIG    1       -0.471  -0.084   1.488  0.00  0.00    +0.157 HD
ATOM      3  C   LIG    1       -0.883  -0.080  -0.628  0.00  0.00    +0.256 C 
ATOM      4  O   LIG    1       -0.438  -0.007  -1.778  0.00  0.00    -0.269 OA
ENDROOT
BRANCH   1   5
ATOM      5  C   LIG    1        1.329   0.131   0.331  0.00  0.00    +0.167 A 
ATOM      6  N   LIG    1        2.271   0.209   1.260  0.00  0.00    -0.231 NA
ATOM      7  C   LIG    1        3.506   0.347   0.908  0.00  0.00    +0.153 A 
ATOM      8  C   LIG    1        3.787   0.406  -0.432  0.00  0.00    +0.185 A 
ATOM      9  S   LIG    1        2.227   0.258  -1.113  0.00  0.00    -0.028 S 
BRANCH   8  10
ATOM     10  N   LIG    1        5.071   0.556  -1.068  0.00  0.00    +0.065 N 
ATOM     11  O   LIG    1        6.096   0.648  -0.387  0.00  0.00    -0.126 OA
ATOM     12  O   LIG    1        5.149   0.594  -2.427  0.00  0.00    -0.126 OA
ENDBRANCH   8  10
ENDBRANCH   1   5
BRANCH   3  13
ATOM     13  C   LIG    1       -2.349  -0.237  -0.473  0.00  0.00    +0.074 A 
ATOM     14  C   LIG    1       -3.055  -0.338   0.698  0.00  0.00    +0.021 A 
ATOM     15  C   LIG    1       -4.389  -0.475   0.601  0.00  0.00    +0.008 A 
ATOM     16  C   LIG    1       -4.928  -0.504  -0.654  0.00  0.00    +0.046 A 
ATOM     17  S   LIG    1       -3.565  -0.338  -1.662  0.00  0.00    -0.092 S 
ENDBRANCH   3  13
TORSDOF 3
