REMARK  Name = molecules/ZLVMAMIPILWYHQ-INIZCTEOSA-N.pdb
REMARK                            x       y       z     vdW  Elec       q    Type
REMARK                         _______ _______ _______ _____ _____    ______ ____
ROOT
ATOM      1  C   LIG    1       -3.460   0.138  -0.152  0.00  0.00    +0.177 A 
ATOM      2  C   LIG    1       -2.941   1.289   0.377  0.00  0.00    +0.050 A 
ATOM      3  C   LIG    1       -1.571   1.526   0.261  0.00  0.00    +0.007 A 
ATOM      4  C   LIG    1       -0.745   0.644  -0.362  0.00  0.00    -0.042 A 
ATOM      5  C   LIG    1       -1.302  -0.507  -0.884  0.00  0.00    +0.054 A 
ATOM      6  C   LIG    1       -2.648  -0.761  -0.782  0.00  0.00    +0.178 A 
ENDROOT
BRANCH   6   7
ATOM      7  O   LIG    1       -3.112  -1.954  -1.341  0.00  0.00    -0.391 OA
BRANCH   7   8
ATOM      8  C   LIG    1       -3.190  -3.125  -0.608  0.00  0.00    +0.516 C 
ATOM      9  O   LIG    1       -2.822  -3.046   0.580  0.00  0.00    -0.202 OA
BRANCH   8  10
ATOM     10  O   LIG    1       -3.630  -4.343  -1.068  0.00  0.00    -0.434 OA
BRANCH  10  11
ATOM     11  C   LIG    1       -3.694  -5.505  -0.280  0.00  0.00    +0.232 C 
ATOM     12  C   LIG    1       -2.372  -5.937   0.281  0.00  0.00    +0.048 C 
ENDBRANCH  10  11
ENDBRANCH   8  10
ENDBRANCH   7   8
ENDBRANCH   6   7
BRANCH   4  13
ATOM     13  C   LIG    1        0.725   0.861  -0.518  0.00  0.00    +0.054 C 
BRANCH  13  14
ATOM     14  C   LIG    1        1.488   0.300   0.632  0.00  0.00    +0.109 C 
BRANCH  14  15
ATOM     15  N   LIG    1        2.900   0.520   0.444  0.00  0.00    -0.313 N 
ATOM     16  C   LIG    1        3.431   1.800   0.361  0.00  0.00    +0.233 C 
ATOM     17  O   LIG    1        2.631   2.798   0.454  0.00  0.00    -0.274 OA
ATOM     18  H   LIG    1        3.507  -0.318   0.352  0.00  0.00    +0.149 HD
BRANCH  16  19
ATOM     19  C   LIG    1        4.888   2.158   0.164  0.00  0.00    +0.160 C 
BRANCH  19  20
ATOM     20  N   LIG    1        5.052   3.516  -0.048  0.00  0.00    -0.304 N 
ATOM     21  C   LIG    1        5.215   4.856  -0.261  0.00  0.00    +0.211 C 
ATOM     22  C   LIG    1        4.851   5.867   0.844  0.00  0.00    +0.109 C 
ATOM     23  O   LIG    1        5.646   5.432  -1.285  0.00  0.00    -0.276 OA
ATOM     24  H   LIG    1        5.513   3.293  -1.319  0.00  0.00    +0.149 HD
ENDBRANCH  19  20
BRANCH  19  25
ATOM     25  C   LIG    1        5.704   1.774   1.408  0.00  0.00    +0.042 C 
BRANCH  25  26
ATOM     26  C   LIG    1        5.721   0.358   1.780  0.00  0.00    +0.071 C 
BRANCH  26  27
ATOM     27  S   LIG    1        6.405  -0.745   0.505  0.00  0.00    -0.164 S 
ATOM     28  C   LIG    1        6.313  -2.441   1.179  0.00  0.00    +0.084 C 
ENDBRANCH  26  27
ENDBRANCH  25  26
ENDBRANCH  19  25
ENDBRANCH  16  19
ENDBRANCH  14  15
ENDBRANCH  13  14
ENDBRANCH   4  13
BRANCH   1  29
ATOM     29  O   LIG    1       -4.810  -0.181  -0.083  0.00  0.00    -0.391 OA
BRANCH  29  30
ATOM     30  C   LIG    1       -5.707   0.176  -1.062  0.00  0.00    +0.516 C 
ATOM     31  O   LIG    1       -5.271   0.820  -2.050  0.00  0.00    -0.202 OA
BRANCH  30  32
ATOM     32  O   LIG    1       -7.031  -0.171  -0.939  0.00  0.00    -0.434 OA
BRANCH  32  33
ATOM     33  C   LIG    1       -7.991   0.181  -1.927  0.00  0.00    +0.232 C 
ATOM     34  C   LIG    1       -9.324  -0.379  -1.499  0.00  0.00    +0.048 C 
ENDBRANCH  32  33
ENDBRANCH  30  32
ENDBRANCH  29  30
ENDBRANCH   1  29
TORSDOF 16
