REMARK  Name = molecules/ZMISODWVFHHWNR-UHFFFAOYSA-N.pdb
REMARK                            x       y       z     vdW  Elec       q    Type
REMARK                         _______ _______ _______ _____ _____    ______ ____
ROOT
ATOM      1  C   LIG    1       -0.070  -0.062   0.254  0.00  0.00    +0.119 C 
ENDROOT
BRANCH   1   2
ATOM      2  C   LIG    1        1.020   0.096  -0.818  0.00  0.00    +0.032 C 
ATOM      3  C   LIG    1        1.954   1.182  -0.398  0.00  0.00    +0.022 C 
ATOM      4  C   LIG    1        3.102   0.723   0.443  0.00  0.00    +0.081 C 
ATOM      5  N   LIG    1        3.775  -0.435  -0.109  0.00  0.00    -0.316 NA
ATOM      6  C   LIG    1        2.811  -1.533  -0.108  0.00  0.00    +0.081 C 
ATOM      7  H   LIG    1        4.003  -0.218  -1.093  0.00  0.00    +0.122 HD
ATOM      8  C   LIG    1        1.726  -1.207  -1.073  0.00  0.00    +0.022 C 
ENDBRANCH   1   2
BRANCH   1   9
ATOM      9  C   LIG    1       -0.748   1.246   0.507  0.00  0.00    -0.011 A 
ATOM     10  C   LIG    1       -1.194   1.554   1.792  0.00  0.00    +0.007 A 
ATOM     11  C   LIG    1       -1.820   2.759   2.015  0.00  0.00    +0.000 A 
ATOM     12  C   LIG    1       -2.024   3.676   1.010  0.00  0.00    +0.000 A 
ATOM     13  C   LIG    1       -1.594   3.394  -0.259  0.00  0.00    +0.000 A 
ATOM     14  C   LIG    1       -0.966   2.183  -0.477  0.00  0.00    +0.007 A 
ENDBRANCH   1   9
BRANCH   1  15
ATOM     15  C   LIG    1       -0.993  -1.151  -0.073  0.00  0.00    -0.011 A 
ATOM     16  C   LIG    1       -1.108  -2.323   0.640  0.00  0.00    +0.007 A 
ATOM     17  C   LIG    1       -2.017  -3.309   0.249  0.00  0.00    +0.000 A 
ATOM     18  C   LIG    1       -2.830  -3.158  -0.851  0.00  0.00    +0.000 A 
ATOM     19  C   LIG    1       -2.719  -1.986  -1.568  0.00  0.00    +0.000 A 
ATOM     20  C   LIG    1       -1.824  -1.014  -1.185  0.00  0.00    +0.007 A 
ENDBRANCH   1  15
BRANCH   1  21
ATOM     21  O   LIG    1        0.653  -0.391   1.396  0.00  0.00    -0.379 OA
ATOM     22  H   LIG    1        0.149  -0.693   2.157  0.00  0.00    +0.211 HD
ENDBRANCH   1  21
TORSDOF 4
