REMARK  Name = molecules/ZNNLBTZKUZBEKO-UHFFFAOYSA-N.pdb
REMARK                            x       y       z     vdW  Elec       q    Type
REMARK                         _______ _______ _______ _____ _____    ______ ____
ROOT
ATOM      1  C   LIG    1       -1.489  -0.633   1.254  0.00  0.00    -0.046 A 
ATOM      2  C   LIG    1       -1.604   0.658   0.756  0.00  0.00    +0.005 A 
ATOM      3  C   LIG    1       -0.837   1.105  -0.325  0.00  0.00    +0.029 A 
ATOM      4  C   LIG    1        0.059   0.254  -0.918  0.00  0.00    +0.109 A 
ATOM      5  C   LIG    1        0.192  -1.023  -0.447  0.00  0.00    +0.029 A 
ATOM      6  C   LIG    1       -0.562  -1.463   0.615  0.00  0.00    +0.005 A 
ENDROOT
BRANCH   4   7
ATOM      7  S   LIG    1        1.030   0.779  -2.260  0.00  0.00    +0.076 S 
ATOM      8  O   LIG    1        0.260   1.783  -3.086  0.00  0.00    -0.150 OA
ATOM      9  O   LIG    1        1.290  -0.444  -3.121  0.00  0.00    -0.150 OA
BRANCH   7  10
ATOM     10  N   LIG    1        2.523   1.450  -1.760  0.00  0.00    -0.169 N 
ATOM     11  C   LIG    1        3.585   0.630  -1.284  0.00  0.00    +0.319 C 
ATOM     12  N   LIG    1        4.815   1.200  -0.869  0.00  0.00    -0.295 N 
ATOM     13  H   LIG    1        4.928   2.233  -0.925  0.00  0.00    +0.151 HD
ATOM     14  O   LIG    1        3.401  -0.619  -1.239  0.00  0.00    -0.251 OA
ATOM     15  H   LIG    1        2.638   2.501  -1.814  0.00  0.00    +0.178 HD
BRANCH  12  16
ATOM     16  C   LIG    1        5.907   0.419  -0.381  0.00  0.00    +0.074 C 
ATOM     17  C   LIG    1        6.271   0.767   1.048  0.00  0.00    +0.022 C 
ATOM     18  C   LIG    1        7.428  -0.072   1.491  0.00  0.00    +0.002 C 
ATOM     19  C   LIG    1        8.609   0.021   0.549  0.00  0.00    +0.000 C 
ATOM     20  C   LIG    1        8.186  -0.295  -0.868  0.00  0.00    +0.002 C 
ATOM     21  C   LIG    1        7.121   0.720  -1.242  0.00  0.00    +0.022 C 
ENDBRANCH  12  16
ENDBRANCH   7  10
ENDBRANCH   4   7
BRANCH   1  22
ATOM     22  C   LIG    1       -2.192  -1.128   2.418  0.00  0.00    +0.054 C 
BRANCH  22  23
ATOM     23  C   LIG    1       -3.394  -1.944   2.193  0.00  0.00    +0.109 C 
BRANCH  23  25
ATOM     24  C   LIG    1       -4.513  -1.059   0.145  0.00  0.00    +0.248 C 
ATOM     25  N   LIG    1       -4.498  -1.388   1.498  0.00  0.00    -0.311 N 
ATOM     26  H   LIG    1       -5.382  -1.215   2.071  0.00  0.00    +0.149 HD
ATOM     27  O   LIG    1       -3.477  -1.286  -0.577  0.00  0.00    -0.270 OA
BRANCH  24  28
ATOM     28  C   LIG    1       -5.641  -0.463  -0.536  0.00  0.00    +0.080 A 
ATOM     29  C   LIG    1       -6.837  -0.148   0.050  0.00  0.00    +0.132 A 
ATOM     30  C   LIG    1       -7.846   0.431  -0.718  0.00  0.00    +0.048 A 
ATOM     31  C   LIG    1       -7.649   0.684  -2.041  0.00  0.00    +0.023 A 
ATOM     32  C   LIG    1       -6.462   0.386  -2.678  0.00  0.00    +0.042 A 
ATOM     33 CL   LIG    1       -6.223   0.717  -4.393  0.00  0.00    -0.084 Cl
ATOM     34  C   LIG    1       -5.486  -0.182  -1.909  0.00  0.00    +0.036 A 
BRANCH  29  35
ATOM     35  O   LIG    1       -7.059  -0.395   1.387  0.00  0.00    -0.494 OA
ATOM     36  C   LIG    1       -8.220  -0.128   2.104  0.00  0.00    +0.277 C 
ENDBRANCH  29  35
ENDBRANCH  24  28
ENDBRANCH  23  25
ENDBRANCH  22  23
ENDBRANCH   1  22
TORSDOF 8
