REMARK  Name = molecules/ZNPOCLHDJCAZAH-UHFFFAOYSA-N.pdb
REMARK                            x       y       z     vdW  Elec       q    Type
REMARK                         _______ _______ _______ _____ _____    ______ ____
ROOT
ATOM      1  N   LIG    1       -0.955   0.386  -0.003  0.00  0.00    -0.211 NA
ATOM      2  C   LIG    1       -0.410  -0.365   0.954  0.00  0.00    +0.160 A 
ATOM      3  C   LIG    1       -1.270  -0.978   1.874  0.00  0.00    +0.164 A 
ATOM      4  F   LIG    1       -0.699  -1.738   2.838  0.00  0.00    -0.202 F 
ATOM      5  C   LIG    1       -2.629  -0.812   1.793  0.00  0.00    +0.057 A 
ATOM      6  C   LIG    1       -3.144  -0.031   0.793  0.00  0.00    +0.068 A 
ATOM      7  C   LIG    1       -4.509   0.175   0.659  0.00  0.00    +0.205 A 
ATOM      8  O   LIG    1       -5.325  -0.362   1.472  0.00  0.00    -0.286 OA
ATOM      9  C   LIG    1       -4.978   0.964  -0.356  0.00  0.00    +0.122 A 
ATOM     10  C   LIG    1       -4.076   1.537  -1.226  0.00  0.00    +0.106 A 
ATOM     11  N   LIG    1       -2.760   1.335  -1.093  0.00  0.00    -0.328 N 
ATOM     12  C   LIG    1       -2.283   0.570  -0.112  0.00  0.00    +0.147 A 
ENDROOT
BRANCH   2  13
ATOM     13  N   LIG    1        0.986  -0.522   1.022  0.00  0.00    -0.306 N 
ATOM     14  C   LIG    1        1.673  -1.304   2.033  0.00  0.00    +0.161 C 
ATOM     15  C   LIG    1        3.095  -1.163   1.677  0.00  0.00    +0.085 C 
ATOM     16  N   LIG    1        4.090  -1.223   2.447  0.00  0.00    -0.092 NA
ATOM     17  C   LIG    1        3.091  -0.935   0.232  0.00  0.00    +0.054 C 
ATOM     18  C   LIG    1        4.344  -0.659  -0.488  0.00  0.00    +0.096 C 
ATOM     19  N   LIG    1        3.788  -1.440  -1.611  0.00  0.00    -0.314 NA
ATOM     20  H   LIG    1        3.177  -0.773  -2.164  0.00  0.00    +0.122 HD
ATOM     21  C   LIG    1        2.954  -2.161  -0.633  0.00  0.00    +0.096 C 
ATOM     22  C   LIG    1        1.972   0.066   0.100  0.00  0.00    +0.122 C 
BRANCH  16  23
ATOM     23  O   LIG    1        5.404  -1.098   2.172  0.00  0.00    -0.397 OA
ATOM     24  C   LIG    1        6.014   0.176   2.417  0.00  0.00    +0.313 C 
ENDBRANCH  16  23
ENDBRANCH   2  13
BRANCH  11  25
ATOM     25  C   LIG    1       -1.828   1.955  -2.031  0.00  0.00    +0.089 C 
ATOM     26  C   LIG    1       -0.832   1.143  -2.733  0.00  0.00    +0.027 C 
ATOM     27  C   LIG    1       -2.038   1.588  -3.483  0.00  0.00    +0.027 C 
ENDBRANCH  11  25
BRANCH   9  28
ATOM     28  C   LIG    1       -6.405   1.204  -0.529  0.00  0.00    +0.342 C 
ATOM     29  O   LIG    1       -6.836   1.917  -1.447  0.00  0.00    -0.245 OA
BRANCH  28  30
ATOM     30  O   LIG    1       -7.300   0.620   0.357  0.00  0.00    -0.477 OA
ATOM     31  H   LIG    1       -7.911  -0.156   0.107  0.00  0.00    +0.295 HD
ENDBRANCH  28  30
ENDBRANCH   9  28
TORSDOF 5
