REMARK  Name = molecules/ZNRGQMMCGHDTEI-ITGUQSILSA-N.pdb
REMARK                            x       y       z     vdW  Elec       q    Type
REMARK                         _______ _______ _______ _____ _____    ______ ____
ROOT
ATOM      1  C   LIG    1        1.364   0.060   0.206  0.00  0.00    +0.341 C 
ATOM      2  O   LIG    1        1.291   0.814   1.204  0.00  0.00    -0.245 OA
ENDROOT
BRANCH   1   3
ATOM      3  C   LIG    1        2.641  -0.452  -0.264  0.00  0.00    +0.084 A 
ATOM      4  C   LIG    1        3.855  -0.171   0.321  0.00  0.00    +0.014 A 
ATOM      5  C   LIG    1        4.211   0.594   1.407  0.00  0.00    +0.011 A 
ATOM      6  C   LIG    1        5.543   0.675   1.743  0.00  0.00    +0.001 A 
ATOM      7  C   LIG    1        6.515   0.016   1.025  0.00  0.00    +0.002 A 
ATOM      8  C   LIG    1        6.139  -0.741  -0.054  0.00  0.00    +0.026 A 
ATOM      9  C   LIG    1        4.832  -0.840  -0.411  0.00  0.00    +0.047 A 
ATOM     10  N   LIG    1        4.208  -1.496  -1.397  0.00  0.00    -0.360 N 
ATOM     11  H   LIG    1        4.671  -2.081  -2.103  0.00  0.00    +0.165 HD
ATOM     12  C   LIG    1        2.876  -1.282  -1.337  0.00  0.00    +0.098 A 
ENDBRANCH   1   3
BRANCH   1  13
ATOM     13  O   LIG    1        0.156  -0.242  -0.405  0.00  0.00    -0.458 OA
BRANCH  13  18
ATOM     14  C   LIG    1       -4.669   1.208   1.287  0.00  0.00    +0.105 C 
ATOM     15  N   LIG    1       -3.432   0.778   0.699  0.00  0.00    -0.299 NA
ATOM     16  C   LIG    1       -3.360  -0.653   0.500  0.00  0.00    +0.060 C 
ATOM     17  C   LIG    1       -1.870  -0.998   0.472  0.00  0.00    +0.063 C 
ATOM     18  C   LIG    1       -1.084   0.230   0.017  0.00  0.00    +0.180 C 
ATOM     19  C   LIG    1       -1.822   1.001  -1.051  0.00  0.00    +0.063 C 
ATOM     20  C   LIG    1       -3.913  -0.955  -0.856  0.00  0.00    +0.020 C 
ATOM     21  C   LIG    1       -4.154   0.410  -1.504  0.00  0.00    +0.020 C 
ATOM     22  C   LIG    1       -3.232   1.280  -0.641  0.00  0.00    +0.060 C 
ENDBRANCH  13  18
ENDBRANCH   1  13
TORSDOF 3
