REMARK  Name = molecules/ZOCKGBMQLCSHFP-KQRAQHLDSA-N.pdb
REMARK                            x       y       z     vdW  Elec       q    Type
REMARK                         _______ _______ _______ _____ _____    ______ ____
ROOT
ATOM      1  C   LIG    1       -0.235  -0.474   1.791  0.00  0.00    +0.158 C 
ATOM      2  C   LIG    1        1.227  -0.710   1.900  0.00  0.00    +0.079 C 
ATOM      3  C   LIG    1        1.940  -0.923   0.637  0.00  0.00    +0.134 C 
ATOM      4  C   LIG    1        1.438  -0.024  -0.517  0.00  0.00    +0.082 C 
ATOM      5  C   LIG    1        0.267   0.761  -0.263  0.00  0.00    +0.007 A 
ATOM      6  C   LIG    1       -0.032   1.776  -1.223  0.00  0.00    +0.132 A 
ATOM      7  C   LIG    1       -1.094   2.607  -0.987  0.00  0.00    +0.078 A 
ATOM      8  C   LIG    1       -1.861   2.489   0.129  0.00  0.00    +0.078 A 
ATOM      9  C   LIG    1       -1.573   1.483   1.104  0.00  0.00    +0.134 A 
ATOM     10  C   LIG    1       -2.995   3.357   0.328  0.00  0.00    +0.202 C 
ATOM     11  O   LIG    1       -3.732   3.295   1.332  0.00  0.00    -0.286 OA
ATOM     12  C   LIG    1       -3.341   4.372  -0.672  0.00  0.00    +0.075 A 
ATOM     13  C   LIG    1       -4.514   5.170  -0.472  0.00  0.00    +0.132 A 
ATOM     14  C   LIG    1       -4.858   6.066  -1.486  0.00  0.00    +0.046 A 
ATOM     15  C   LIG    1       -4.091   6.189  -2.636  0.00  0.00    +0.004 A 
ATOM     16  C   LIG    1       -2.970   5.423  -2.781  0.00  0.00    +0.012 A 
ATOM     17  C   LIG    1       -2.595   4.500  -1.785  0.00  0.00    +0.037 A 
ATOM     18  C   LIG    1       -1.445   3.632  -1.985  0.00  0.00    +0.198 C 
ATOM     19  O   LIG    1       -0.767   3.768  -3.018  0.00  0.00    -0.286 OA
ATOM     20  C   LIG    1       -0.492   0.664   0.818  0.00  0.00    +0.030 A 
ENDROOT
BRANCH   6  21
ATOM     21  O   LIG    1        0.762   1.825  -2.296  0.00  0.00    -0.506 OA
ATOM     22  H   LIG    1        0.803   2.367  -3.081  0.00  0.00    +0.292 HD
ENDBRANCH   6  21
BRANCH  13  23
ATOM     23  O   LIG    1       -5.139   4.984   0.659  0.00  0.00    -0.494 OA
ATOM     24  C   LIG    1       -6.139   5.305   1.450  0.00  0.00    +0.277 C 
ENDBRANCH  13  23
BRANCH   9  25
ATOM     25  O   LIG    1       -2.350   1.399   2.196  0.00  0.00    -0.506 OA
ATOM     26  H   LIG    1       -3.092   1.683   2.656  0.00  0.00    +0.292 HD
ENDBRANCH   9  25
BRANCH   3  27
ATOM     27  O   LIG    1        1.863  -2.182   0.091  0.00  0.00    -0.381 OA
ATOM     28  H   LIG    1        2.750  -2.641   0.268  0.00  0.00    +0.211 HD
ENDBRANCH   3  27
BRANCH   3  29
ATOM     29  C   LIG    1        3.376  -0.545   0.728  0.00  0.00    +0.202 C 
ATOM     30  O   LIG    1        3.752   0.107   1.683  0.00  0.00    -0.291 OA
BRANCH  29  31
ATOM     31  C   LIG    1        4.304  -0.950  -0.362  0.00  0.00    +0.309 C 
BRANCH  31  32
ATOM     32  O   LIG    1        5.381  -0.077  -0.408  0.00  0.00    -0.457 OA
BRANCH  32  33
ATOM     33  C   LIG    1        6.365   0.178   0.574  0.00  0.00    +0.307 C 
ATOM     34  O   LIG    1        6.325  -0.456   1.587  0.00  0.00    -0.251 OA
BRANCH  33  35
ATOM     35  C   LIG    1        7.367   1.273   0.179  0.00  0.00    +0.120 C 
BRANCH  35  36
ATOM     36  C   LIG    1        8.675   0.925   0.819  0.00  0.00    +0.011 C 
BRANCH  36  37
ATOM     37  C   LIG    1        9.089  -0.442   0.224  0.00  0.00    -0.003 C 
ATOM     38  C   LIG    1       10.360  -0.879   0.877  0.00  0.00    +0.004 C 
ENDBRANCH  36  37
ENDBRANCH  35  36
ENDBRANCH  33  35
ENDBRANCH  32  33
ENDBRANCH  31  32
ENDBRANCH  29  31
ENDBRANCH   3  29
BRANCH   1  39
ATOM     39  O   LIG    1       -0.860  -1.553   1.197  0.00  0.00    -0.343 OA
BRANCH  39  40
ATOM     40  C   LIG    1       -2.102  -1.892   1.705  0.00  0.00    +0.253 C 
ATOM     41  O   LIG    1       -2.100  -3.143   2.233  0.00  0.00    -0.346 OA
ATOM     42  C   LIG    1       -1.966  -4.148   1.325  0.00  0.00    +0.148 C 
ATOM     43  C   LIG    1       -2.877  -5.294   1.607  0.00  0.00    +0.041 C 
ATOM     44  C   LIG    1       -1.978  -3.764  -0.088  0.00  0.00    +0.163 C 
ATOM     45  C   LIG    1       -2.956  -2.714  -0.482  0.00  0.00    +0.109 C 
ATOM     46  C   LIG    1       -3.093  -1.693   0.615  0.00  0.00    +0.086 C 
BRANCH  45  47
ATOM     47  N   LIG    1       -4.082  -3.223  -1.088  0.00  0.00    -0.302 N 
ATOM     48  H   LIG    1       -4.606  -1.944  -1.186  0.00  0.00    +0.149 HD
ATOM     49  C   LIG    1       -5.218  -3.700  -1.702  0.00  0.00    +0.318 C 
ATOM     50  O   LIG    1       -6.151  -3.007  -2.229  0.00  0.00    -0.266 OA
BRANCH  49  51
ATOM     51  C   LIG    1       -5.433  -5.204  -1.797  0.00  0.00    +0.469 C 
ATOM     52  F   LIG    1       -4.987  -5.742  -0.636  0.00  0.00    -0.162 F 
ATOM     53  F   LIG    1       -6.743  -5.525  -2.066  0.00  0.00    -0.162 F 
ATOM     54  F   LIG    1       -4.708  -5.646  -2.903  0.00  0.00    -0.162 F 
ENDBRANCH  49  51
ENDBRANCH  45  47
BRANCH  44  55
ATOM     55  O   LIG    1       -2.055  -4.912  -0.923  0.00  0.00    -0.387 OA
ATOM     56  H   LIG    1       -2.312  -4.576  -1.871  0.00  0.00    +0.210 HD
ENDBRANCH  44  55
ENDBRANCH  39  40
ENDBRANCH   1  39
TORSDOF 16
