REMARK  Name = molecules/ZOCUOMKMBMEYQV-GSLJADNHSA-N.pdb
REMARK                            x       y       z     vdW  Elec       q    Type
REMARK                         _______ _______ _______ _____ _____    ______ ____
ROOT
ATOM      1  C   LIG    1       -3.614  -1.642   1.402  0.00  0.00    -0.009 C 
ATOM      2  C   LIG    1       -4.671  -1.466   2.150  0.00  0.00    +0.047 C 
ATOM      3  C   LIG    1       -5.540  -0.312   1.992  0.00  0.00    +0.179 C 
ATOM      4  O   LIG    1       -6.555  -0.133   2.703  0.00  0.00    -0.288 OA
ATOM      5  C   LIG    1       -5.134   0.615   0.943  0.00  0.00    +0.051 C 
ATOM      6  C   LIG    1       -4.079   0.432   0.202  0.00  0.00    -0.053 C 
ATOM      7  C   LIG    1       -3.747   1.484  -0.855  0.00  0.00    +0.032 C 
ATOM      8  C   LIG    1       -2.341   1.922  -0.715  0.00  0.00    +0.011 C 
ATOM      9  C   LIG    1       -1.412   0.716  -0.547  0.00  0.00    +0.034 C 
ATOM     10  C   LIG    1       -1.808  -0.134   0.617  0.00  0.00    +0.153 C 
ATOM     11  F   LIG    1       -2.099   0.800   1.646  0.00  0.00    -0.238 F 
ATOM     12  C   LIG    1       -0.803  -1.048   1.148  0.00  0.00    +0.154 C 
ATOM     13  C   LIG    1        0.644  -0.745   0.920  0.00  0.00    +0.044 C 
ATOM     14  C   LIG    1        0.908   0.040  -0.338  0.00  0.00    +0.009 C 
ATOM     15  C   LIG    1        2.264   0.708  -0.373  0.00  0.00    +0.133 C 
ATOM     16  C   LIG    1        2.001   2.207  -0.611  0.00  0.00    +0.043 C 
ATOM     17  C   LIG    1        0.569   2.182  -1.182  0.00  0.00    +0.008 C 
ATOM     18  C   LIG    1        0.661  -0.829  -1.516  0.00  0.00    +0.015 C 
ATOM     19  C   LIG    1       -0.021   1.221  -0.239  0.00  0.00    +0.004 C 
ATOM     20  C   LIG    1       -3.187  -0.731   0.347  0.00  0.00    +0.044 C 
ATOM     21  C   LIG    1       -3.218  -1.497  -0.973  0.00  0.00    +0.023 C 
ENDROOT
BRANCH  15  22
ATOM     22  O   LIG    1        2.924   0.580   0.839  0.00  0.00    -0.380 OA
ATOM     23  H   LIG    1        2.965  -0.323   1.197  0.00  0.00    +0.211 HD
ENDBRANCH  15  22
BRANCH  15  24
ATOM     24  C   LIG    1        3.085   0.292  -1.521  0.00  0.00    +0.202 C 
ATOM     25  O   LIG    1        2.634   0.328  -2.634  0.00  0.00    -0.291 OA
BRANCH  24  26
ATOM     26  C   LIG    1        4.464  -0.172  -1.332  0.00  0.00    +0.309 C 
BRANCH  26  27
ATOM     27  O   LIG    1        4.926  -0.173  -0.014  0.00  0.00    -0.457 OA
BRANCH  27  28
ATOM     28  C   LIG    1        6.225  -0.604   0.211  0.00  0.00    +0.304 C 
ATOM     29  C   LIG    1        6.827  -0.651   1.557  0.00  0.00    +0.136 C 
ATOM     30  O   LIG    1        6.960  -0.984  -0.759  0.00  0.00    -0.251 OA
ENDBRANCH  27  28
ENDBRANCH  26  27
ENDBRANCH  24  26
ENDBRANCH  15  24
BRANCH  12  31
ATOM     31  O   LIG    1       -1.009  -2.337   0.663  0.00  0.00    -0.389 OA
ATOM     32  H   LIG    1       -0.632  -3.038   1.276  0.00  0.00    +0.210 HD
ENDBRANCH  12  31
TORSDOF 6
