REMARK  Name = molecules/ZOWQTJXNFTWSCS-IAQYHMDHSA-N.pdb
REMARK                            x       y       z     vdW  Elec       q    Type
REMARK                         _______ _______ _______ _____ _____    ______ ____
ROOT
ATOM      1  C   LIG    1        0.783   2.491   0.057  0.00  0.00    +0.016 C 
ATOM      2  C   LIG    1        0.290   1.056   0.017  0.00  0.00    -0.005 C 
ATOM      3  C   LIG    1       -0.664   0.872   1.144  0.00  0.00    +0.026 C 
ATOM      4  C   LIG    1       -2.075   1.052   0.686  0.00  0.00    +0.085 C 
ATOM      5  N   LIG    1       -2.600  -0.175   0.255  0.00  0.00    -0.305 NA
ATOM      6  C   LIG    1       -3.646  -0.762   1.000  0.00  0.00    +0.104 C 
ATOM      7  C   LIG    1       -2.338  -0.635  -1.026  0.00  0.00    +0.088 C 
ATOM      8  C   LIG    1       -0.927  -0.530  -1.526  0.00  0.00    +0.008 C 
ATOM      9  C   LIG    1       -0.035  -1.620  -1.042  0.00  0.00    +0.040 C 
ATOM     10  C   LIG    1        1.217  -1.166  -0.395  0.00  0.00    -0.043 A 
ATOM     11  C   LIG    1        2.291  -2.047  -0.284  0.00  0.00    +0.007 A 
ATOM     12  C   LIG    1        3.474  -1.700   0.301  0.00  0.00    +0.045 A 
ATOM     13  C   LIG    1        3.649  -0.446   0.809  0.00  0.00    +0.117 A 
ATOM     14  C   LIG    1        2.573   0.443   0.699  0.00  0.00    +0.049 A 
ATOM     15  C   LIG    1        1.398   0.087   0.114  0.00  0.00    -0.035 A 
ATOM     16  C   LIG    1       -0.318   0.817  -1.360  0.00  0.00    +0.016 C 
ENDROOT
BRANCH  13  17
ATOM     17  O   LIG    1        4.847  -0.061   1.412  0.00  0.00    -0.507 OA
ATOM     18  H   LIG    1        5.560   0.347   0.816  0.00  0.00    +0.292 HD
ENDBRANCH  13  17
TORSDOF 1
