REMARK  Name = molecules/ZOZKYEHVNDEUCO-DKXJUACHSA-N.pdb
REMARK                            x       y       z     vdW  Elec       q    Type
REMARK                         _______ _______ _______ _____ _____    ______ ____
ROOT
ATOM      1  C   LIG    1        1.500  -0.812   0.282  0.00  0.00    +0.328 C 
ATOM      2  C   LIG    1        0.292   0.080   0.438  0.00  0.00    +0.273 C 
ATOM      3  O   LIG    1        0.444   1.315  -0.217  0.00  0.00    -0.450 OA
ATOM      4  C   LIG    1       -0.473   1.457  -1.247  0.00  0.00    +0.353 C 
ATOM      5  C   LIG    1       -1.515   0.411  -1.092  0.00  0.00    +0.328 C 
ATOM      6  O   LIG    1       -0.434   2.316  -2.153  0.00  0.00    -0.246 OA
ATOM      7  C   LIG    1       -0.744  -0.688  -0.393  0.00  0.00    +0.273 C 
ATOM      8  O   LIG    1       -0.006  -1.461  -1.306  0.00  0.00    -0.450 OA
ATOM      9  C   LIG    1        1.363  -1.227  -1.158  0.00  0.00    +0.353 C 
ATOM     10  O   LIG    1        2.276  -1.335  -2.018  0.00  0.00    -0.246 OA
ENDROOT
BRANCH   1  11
ATOM     11  O   LIG    1        2.713  -0.151   0.425  0.00  0.00    -0.446 OA
BRANCH  11  12
ATOM     12  C   LIG    1        3.676  -0.584   1.326  0.00  0.00    +0.305 C 
ATOM     13  O   LIG    1        3.390  -1.603   2.002  0.00  0.00    -0.251 OA
ATOM     14  C   LIG    1        4.993   0.130   1.484  0.00  0.00    +0.136 C 
ENDBRANCH  11  12
ENDBRANCH   1  11
BRANCH   5  15
ATOM     15  O   LIG    1       -2.575   0.843  -0.258  0.00  0.00    -0.446 OA
BRANCH  15  16
ATOM     16  C   LIG    1       -3.878   0.747  -0.704  0.00  0.00    +0.305 C 
ATOM     17  C   LIG    1       -5.040   1.193   0.145  0.00  0.00    +0.136 C 
ATOM     18  O   LIG    1       -4.068   0.269  -1.856  0.00  0.00    -0.251 OA
ENDBRANCH  15  16
ENDBRANCH   5  15
TORSDOF 4
