REMARK  Name = molecules/ZPACYDRSPFRDHO-ROBAGEODSA-N.pdb
REMARK                            x       y       z     vdW  Elec       q    Type
REMARK                         _______ _______ _______ _____ _____    ______ ____
ROOT
ATOM      1  C   LIG    1        0.471   1.271  -2.329  0.00  0.00    +0.038 C 
ENDROOT
BRANCH   1   3
ATOM      2  C   LIG    1       -1.602  -0.005  -1.802  0.00  0.00    -0.076 C 
ATOM      3  C   LIG    1       -0.252   0.072  -1.907  0.00  0.00    -0.027 C 
ATOM      4  C   LIG    1       -2.381   1.197  -2.186  0.00  0.00    +0.039 C 
BRANCH   2   5
ATOM      5  C   LIG    1       -2.254  -1.249  -1.368  0.00  0.00    +0.034 C 
BRANCH   5   6
ATOM      6  C   LIG    1       -3.025  -1.113  -0.115  0.00  0.00    +0.031 C 
BRANCH   6   7
ATOM      7  C   LIG    1       -4.127  -0.160  -0.095  0.00  0.00    -0.028 C 
ATOM      8  C   LIG    1       -5.370  -0.616   0.080  0.00  0.00    -0.076 C 
ATOM      9  C   LIG    1       -5.671  -2.062   0.255  0.00  0.00    +0.039 C 
BRANCH   8  10
ATOM     10  C   LIG    1       -6.483   0.339   0.101  0.00  0.00    +0.034 C 
BRANCH  10  11
ATOM     11  C   LIG    1       -7.187   0.232   1.448  0.00  0.00    +0.031 C 
BRANCH  11  12
ATOM     12  C   LIG    1       -8.338   1.177   1.539  0.00  0.00    -0.028 C 
ATOM     13  C   LIG    1       -9.559   0.745   1.736  0.00  0.00    -0.080 C 
ATOM     14  C   LIG    1       -9.910  -0.695   1.885  0.00  0.00    +0.038 C 
ATOM     15  C   LIG    1      -10.681   1.720   1.821  0.00  0.00    +0.038 C 
ENDBRANCH  11  12
ENDBRANCH  10  11
ENDBRANCH   8  10
ENDBRANCH   6   7
ENDBRANCH   5   6
ENDBRANCH   2   5
ENDBRANCH   1   3
BRANCH   1  16
ATOM     16  C   LIG    1        1.436   1.690  -1.243  0.00  0.00    +0.124 C 
BRANCH  16  17
ATOM     17  C   LIG    1        2.435   0.628  -0.972  0.00  0.00    +0.308 C 
ATOM     18  O   LIG    1        3.262   0.871  -0.052  0.00  0.00    -0.251 OA
BRANCH  17  19
ATOM     19  O   LIG    1        2.537  -0.566  -1.616  0.00  0.00    -0.460 OA
BRANCH  19  20
ATOM     20  C   LIG    1        3.444  -1.598  -1.411  0.00  0.00    +0.259 C 
BRANCH  20  21
ATOM     21  C   LIG    1        4.825  -1.104  -1.626  0.00  0.00    +0.012 C 
ATOM     22  C   LIG    1        5.708  -1.166  -0.639  0.00  0.00    -0.073 C 
ATOM     23  C   LIG    1        5.277  -1.750   0.654  0.00  0.00    +0.039 C 
BRANCH  22  24
ATOM     24  C   LIG    1        7.122  -0.668  -0.834  0.00  0.00    +0.034 C 
BRANCH  24  25
ATOM     25  C   LIG    1        7.375   0.446   0.170  0.00  0.00    +0.031 C 
BRANCH  25  26
ATOM     26  C   LIG    1        8.785   0.895  -0.075  0.00  0.00    -0.028 C 
ATOM     27  C   LIG    1        9.669   0.809   0.884  0.00  0.00    -0.080 C 
ATOM     28  C   LIG    1        9.285   0.272   2.204  0.00  0.00    +0.038 C 
ATOM     29  C   LIG    1       11.069   1.256   0.640  0.00  0.00    +0.038 C 
ENDBRANCH  25  26
ENDBRANCH  24  25
ENDBRANCH  22  24
ENDBRANCH  20  21
ENDBRANCH  19  20
ENDBRANCH  17  19
ENDBRANCH  16  17
ENDBRANCH   1  16
TORSDOF 15
