REMARK  Name = molecules/ZPEIMTDSQAKGNT-UHFFFAOYSA-N.pdb
REMARK                            x       y       z     vdW  Elec       q    Type
REMARK                         _______ _______ _______ _____ _____    ______ ____
ROOT
ATOM      1  N   LIG    1       -0.998  -0.304   0.214  0.00  0.00    -0.298 N 
ATOM      2  C   LIG    1       -1.594   0.974   0.305  0.00  0.00    +0.044 C 
ATOM      3  C   LIG    1       -0.772   2.102   0.503  0.00  0.00    +0.006 C 
ATOM      4  C   LIG    1       -1.286   3.382   0.601  0.00  0.00    +0.047 C 
ATOM      5  C   LIG    1       -2.640   3.602   0.505  0.00  0.00    -0.017 C 
ATOM      6  C   LIG    1       -3.439   2.471   0.309  0.00  0.00    +0.013 C 
ATOM      7  C   LIG    1       -2.938   1.222   0.214  0.00  0.00    +0.034 C 
ATOM      8  S   LIG    1       -4.081  -0.095  -0.018  0.00  0.00    -0.086 S 
ATOM      9  C   LIG    1       -3.106  -1.597  -0.113  0.00  0.00    +0.034 A 
ATOM     10  C   LIG    1       -3.762  -2.793  -0.321  0.00  0.00    +0.018 A 
ATOM     11  C   LIG    1       -3.068  -3.968  -0.413  0.00  0.00    +0.021 A 
ATOM     12  C   LIG    1       -1.698  -3.938  -0.295  0.00  0.00    +0.043 A 
ATOM     13  C   LIG    1       -1.057  -2.717  -0.085  0.00  0.00    +0.044 A 
ATOM     14 CL   LIG    1       -0.803  -5.437  -0.412  0.00  0.00    -0.083 Cl
ATOM     15  C   LIG    1       -1.746  -1.501   0.014  0.00  0.00    +0.049 A 
ENDROOT
BRANCH   1  16
ATOM     16  C   LIG    1        0.463  -0.434   0.305  0.00  0.00    +0.112 C 
BRANCH  16  17
ATOM     17  C   LIG    1        1.178  -0.077  -0.956  0.00  0.00    +0.035 C 
BRANCH  17  18
ATOM     18  C   LIG    1        2.670  -0.283  -0.864  0.00  0.00    +0.085 C 
BRANCH  18  20
ATOM     19  C   LIG    1        3.390   1.908  -0.103  0.00  0.00    +0.104 C 
ATOM     20  N   LIG    1        3.281   0.514   0.129  0.00  0.00    -0.308 NA
ATOM     21  C   LIG    1        4.409  -0.046   0.804  0.00  0.00    +0.104 C 
ENDBRANCH  18  20
ENDBRANCH  17  18
ENDBRANCH  16  17
ENDBRANCH   1  16
TORSDOF 4
