REMARK  Name = molecules/ZPLQIPFOCGIIHV-UHFFFAOYSA-N.pdb
REMARK                            x       y       z     vdW  Elec       q    Type
REMARK                         _______ _______ _______ _____ _____    ______ ____
ROOT
ATOM      1  C   LIG    1        1.006   0.474   0.030  0.00  0.00    +0.142 A 
ATOM      2  C   LIG    1        0.743  -0.881   0.078  0.00  0.00    +0.098 A 
ATOM      3 CL   LIG    1        2.108  -1.967   0.198  0.00  0.00    -0.078 Cl
ATOM      4  C   LIG    1       -0.558  -1.341   0.032  0.00  0.00    +0.109 A 
ATOM      5  N   LIG    1       -1.615  -0.502  -0.060  0.00  0.00    -0.327 N 
ATOM      6  H   LIG    1       -2.606  -0.835  -0.096  0.00  0.00    +0.168 HD
ATOM      7  C   LIG    1       -1.384   0.824  -0.108  0.00  0.00    +0.252 A 
ATOM      8  O   LIG    1       -2.333   1.673  -0.196  0.00  0.00    -0.268 OA
ATOM      9  C   LIG    1       -0.091   1.306  -0.064  0.00  0.00    +0.117 A 
ENDROOT
BRANCH   1  10
ATOM     10  O   LIG    1        2.312   0.975   0.075  0.00  0.00    -0.505 OA
ATOM     11  H   LIG    1        3.062   0.299   0.144  0.00  0.00    +0.292 HD
ENDBRANCH   1  10
TORSDOF 1
