REMARK  Name = molecules/ZPUCINDJVBIVPJ-LJISPDSOSA-N.pdb
REMARK                            x       y       z     vdW  Elec       q    Type
REMARK                         _______ _______ _______ _____ _____    ______ ____
ROOT
ATOM      1  C   LIG    1       -0.742   0.336  -1.137  0.00  0.00    +0.193 C 
ATOM      2  C   LIG    1       -1.735   0.657  -0.051  0.00  0.00    +0.155 C 
ATOM      3  C   LIG    1       -1.918  -0.440   0.945  0.00  0.00    +0.074 C 
ATOM      4  C   LIG    1       -3.325  -1.048   0.881  0.00  0.00    +0.021 C 
ATOM      5  C   LIG    1       -3.290  -1.638  -0.534  0.00  0.00    +0.020 C 
ATOM      6  C   LIG    1       -1.834  -1.868  -0.787  0.00  0.00    +0.060 C 
ATOM      7  N   LIG    1       -1.135  -1.589   0.460  0.00  0.00    -0.298 NA
ATOM      8  C   LIG    1       -1.262  -2.721   1.357  0.00  0.00    +0.105 C 
ATOM      9  C   LIG    1       -1.269  -0.923  -1.838  0.00  0.00    +0.064 C 
ENDROOT
BRANCH   2  10
ATOM     10  C   LIG    1       -1.456   1.971   0.597  0.00  0.00    +0.315 C 
ATOM     11  O   LIG    1       -1.213   2.010   1.828  0.00  0.00    -0.250 OA
BRANCH  10  12
ATOM     12  O   LIG    1       -1.454   3.157  -0.111  0.00  0.00    -0.468 OA
ATOM     13  C   LIG    1       -1.196   4.420   0.457  0.00  0.00    +0.280 C 
ENDBRANCH  10  12
ENDBRANCH   2  10
BRANCH   1  14
ATOM     14  O   LIG    1        0.528   0.011  -0.642  0.00  0.00    -0.457 OA
BRANCH  14  15
ATOM     15  C   LIG    1        1.706   0.626  -1.019  0.00  0.00    +0.339 C 
ATOM     16  O   LIG    1        1.627   1.543  -1.869  0.00  0.00    -0.245 OA
BRANCH  15  17
ATOM     17  C   LIG    1        3.010   0.268  -0.489  0.00  0.00    +0.059 A 
ATOM     18  C   LIG    1        3.184  -0.730   0.449  0.00  0.00    +0.015 A 
ATOM     19  C   LIG    1        4.465  -0.991   0.887  0.00  0.00    +0.001 A 
ATOM     20  C   LIG    1        5.577  -0.309   0.439  0.00  0.00    +0.000 A 
ATOM     21  C   LIG    1        5.396   0.685  -0.497  0.00  0.00    +0.001 A 
ATOM     22  C   LIG    1        4.115   0.954  -0.943  0.00  0.00    +0.015 A 
ENDBRANCH  15  17
ENDBRANCH  14  15
ENDBRANCH   1  14
TORSDOF 5
