REMARK  Name = molecules/ZPXSCAKFGYXMGA-INIZCTEOSA-N.pdb
REMARK                            x       y       z     vdW  Elec       q    Type
REMARK                         _______ _______ _______ _____ _____    ______ ____
ROOT
ATOM      1  C   LIG    1       -2.298  -3.272  -0.682  0.00  0.00    +0.001 A 
ATOM      2  C   LIG    1       -1.098  -3.500  -0.045  0.00  0.00    +0.001 A 
ATOM      3  C   LIG    1       -0.320  -2.455   0.409  0.00  0.00    +0.011 A 
ATOM      4  C   LIG    1       -0.697  -1.131   0.252  0.00  0.00    +0.045 A 
ATOM      5  C   LIG    1       -0.056   0.134   0.644  0.00  0.00    +0.256 C 
ATOM      6  N   LIG    1       -0.948   1.171   0.188  0.00  0.00    -0.180 N 
ATOM      7  C   LIG    1       -1.147   2.604   0.116  0.00  0.00    +0.279 C 
ATOM      8  C   LIG    1       -2.470   2.760  -0.580  0.00  0.00    +0.334 C 
ATOM      9  N   LIG    1       -2.897   1.422  -0.851  0.00  0.00    -0.079 NA
ATOM     10  C   LIG    1       -2.062   0.544  -0.430  0.00  0.00    +0.318 C 
ATOM     11  C   LIG    1       -1.896  -0.905  -0.386  0.00  0.00    +0.075 A 
ATOM     12  C   LIG    1       -2.687  -1.963  -0.847  0.00  0.00    +0.016 A 
ENDROOT
BRANCH   5  13
ATOM     13  C   LIG    1        1.308   0.296   0.118  0.00  0.00    +0.031 A 
ATOM     14  C   LIG    1        2.352   0.383   1.024  0.00  0.00    +0.012 A 
ATOM     15  C   LIG    1        3.674   0.537   0.641  0.00  0.00    +0.020 A 
ATOM     16  C   LIG    1        3.973   0.608  -0.702  0.00  0.00    +0.041 A 
ATOM     17 CL   LIG    1        5.633   0.804  -1.243  0.00  0.00    -0.084 Cl
ATOM     18  C   LIG    1        2.919   0.520  -1.610  0.00  0.00    +0.020 A 
ATOM     19  C   LIG    1        1.615   0.367  -1.215  0.00  0.00    +0.012 A 
ENDBRANCH   5  13
BRANCH   5  20
ATOM     20  O   LIG    1       -0.037   0.192   2.054  0.00  0.00    -0.346 OA
ATOM     21  H   LIG    1        0.398  -0.682   2.320  0.00  0.00    +0.215 HD
ENDBRANCH   5  20
TORSDOF 2
