REMARK  Name = molecules/ZQBAKBUEJOMQEX-UHFFFAOYSA-N.pdb
REMARK                            x       y       z     vdW  Elec       q    Type
REMARK                         _______ _______ _______ _____ _____    ______ ____
ROOT
ATOM      1  C   LIG    1       -0.381  -0.470   0.197  0.00  0.00    +0.348 C 
ATOM      2  O   LIG    1        0.104  -1.537   0.587  0.00  0.00    -0.244 OA
ENDROOT
BRANCH   1   8
ATOM      3  C   LIG    1       -2.835  -0.959   0.411  0.00  0.00    +0.131 A 
ATOM      4  C   LIG    1       -4.171  -0.528   0.268  0.00  0.00    +0.046 A 
ATOM      5  C   LIG    1       -4.481   0.719  -0.192  0.00  0.00    +0.004 A 
ATOM      6  C   LIG    1       -3.454   1.557  -0.517  0.00  0.00    +0.001 A 
ATOM      7  C   LIG    1       -2.148   1.144  -0.381  0.00  0.00    +0.018 A 
ATOM      8  C   LIG    1       -1.790  -0.127   0.088  0.00  0.00    +0.101 A 
BRANCH   3   9
ATOM      9  O   LIG    1       -2.595  -2.217   0.876  0.00  0.00    -0.506 OA
ATOM     10  H   LIG    1       -1.738  -2.657   1.028  0.00  0.00    +0.292 HD
ENDBRANCH   3   9
ENDBRANCH   1   8
BRANCH   1  11
ATOM     11  O   LIG    1        0.563   0.492  -0.174  0.00  0.00    -0.422 OA
BRANCH  11  12
ATOM     12  C   LIG    1        1.919   0.284  -0.114  0.00  0.00    +0.132 A 
ATOM     13  C   LIG    1        2.601   0.595   1.028  0.00  0.00    +0.046 A 
ATOM     14  C   LIG    1        3.977   0.372   1.056  0.00  0.00    +0.004 A 
ATOM     15  C   LIG    1        4.605  -0.148  -0.050  0.00  0.00    +0.000 A 
ATOM     16  C   LIG    1        3.911  -0.461  -1.200  0.00  0.00    +0.004 A 
ATOM     17  C   LIG    1        2.544  -0.234  -1.215  0.00  0.00    +0.046 A 
ENDBRANCH  11  12
ENDBRANCH   1  11
TORSDOF 4
