REMARK  Name = molecules/ZQHFZHPUZXNPMF-UHFFFAOYSA-N.pdb
REMARK                            x       y       z     vdW  Elec       q    Type
REMARK                         _______ _______ _______ _____ _____    ______ ____
ROOT
ATOM      1  C   LIG    1       -0.100   0.176  -0.024  0.00  0.00    +0.088 C 
ENDROOT
BRANCH   1   2
ATOM      2  S   LIG    1        1.605  -0.107   0.548  0.00  0.00    -0.153 S 
BRANCH   2   3
ATOM      3  C   LIG    1        2.666  -0.202  -0.934  0.00  0.00    +0.125 C 
BRANCH   3   4
ATOM      4  C   LIG    1        4.107  -0.451  -0.505  0.00  0.00    +0.062 A 
ATOM      5  N   LIG    1        4.912   0.547  -0.261  0.00  0.00    -0.213 NA
ATOM      6  C   LIG    1        6.160   0.316   0.107  0.00  0.00    +0.233 A 
ATOM      7  S   LIG    1        6.220  -1.393   0.116  0.00  0.00    -0.041 S 
ATOM      8  C   LIG    1        4.617  -1.718  -0.360  0.00  0.00    +0.074 A 
BRANCH   6   9
ATOM      9  N   LIG    1        7.174   1.274   0.413  0.00  0.00    -0.222 N 
ATOM     10  H   LIG    1        6.944   2.273   0.355  0.00  0.00    +0.267 HD
BRANCH   9  11
ATOM     11  C   LIG    1        8.448   0.824   0.782  0.00  0.00    +0.383 C 
ATOM     12  N   LIG    1        9.515   0.811  -0.150  0.00  0.00    -0.289 N 
ATOM     13  H   LIG    1       10.514   0.911   0.152  0.00  0.00    +0.255 HD
ATOM     14  H   LIG    1        9.352   0.701  -1.176  0.00  0.00    +0.255 HD
BRANCH  11  15
ATOM     15  N   LIG    1        8.670   0.415   1.976  0.00  0.00    -0.129 NA
ATOM     16  H   LIG    1        7.898   0.420   2.668  0.00  0.00    +0.306 HD
ENDBRANCH  11  15
ENDBRANCH   9  11
ENDBRANCH   6   9
ENDBRANCH   3   4
ENDBRANCH   2   3
ENDBRANCH   1   2
BRANCH   1  17
ATOM     17  C   LIG    1       -0.554  -1.076  -0.787  0.00  0.00    +0.113 C 
BRANCH  17  18
ATOM     18  N   LIG    1       -1.883  -0.955  -1.279  0.00  0.00    -0.333 N 
ATOM     19  H   LIG    1       -2.063  -0.890  -2.298  0.00  0.00    +0.147 HD
BRANCH  18  20
ATOM     20  C   LIG    1       -2.987  -0.919  -0.394  0.00  0.00    +0.205 C 
ATOM     21  N   LIG    1       -3.888  -1.827  -0.334  0.00  0.00    -0.122 NA
BRANCH  21  22
ATOM     22  S   LIG    1       -5.230  -1.738   0.773  0.00  0.00    +0.100 S 
ATOM     23  O   LIG    1       -4.712  -1.736   2.183  0.00  0.00    -0.146 OA
ATOM     24  O   LIG    1       -6.136  -2.889   0.541  0.00  0.00    -0.146 OA
BRANCH  22  25
ATOM     25  C   LIG    1       -6.069  -0.233   0.523  0.00  0.00    +0.113 A 
ATOM     26  C   LIG    1       -5.734   0.905   1.220  0.00  0.00    +0.030 A 
ATOM     27  C   LIG    1       -6.423   2.107   1.002  0.00  0.00    +0.017 A 
ATOM     28  C   LIG    1       -7.437   2.160   0.091  0.00  0.00    +0.018 A 
ATOM     29 BR   LIG    1       -8.368   3.824  -0.191  0.00  0.00    -0.050 Br
ATOM     30  C   LIG    1       -7.772   1.027  -0.604  0.00  0.00    +0.017 A 
ATOM     31  C   LIG    1       -7.090  -0.182  -0.395  0.00  0.00    +0.030 A 
ENDBRANCH  22  25
ENDBRANCH  21  22
ENDBRANCH  18  20
ENDBRANCH  17  18
ENDBRANCH   1  17
TORSDOF 11
