REMARK  Name = molecules/ZQHYKVKNPWDQSL-XGRCMKMKSA-N.pdb
REMARK                            x       y       z     vdW  Elec       q    Type
REMARK                         _______ _______ _______ _____ _____    ______ ____
ROOT
ATOM      1  C   LIG    1       -2.790   2.346   0.855  0.00  0.00    +0.007 A 
ATOM      2  C   LIG    1       -2.168   1.139   0.697  0.00  0.00    -0.042 A 
ATOM      3  C   LIG    1       -0.844   0.933   1.294  0.00  0.00    +0.054 C 
ATOM      4  C   LIG    1       -0.228  -0.401   1.067  0.00  0.00    +0.065 C 
ATOM      5  C   LIG    1       -1.313  -1.454   1.018  0.00  0.00    +0.014 C 
ATOM      6  C   LIG    1       -2.217  -1.400   2.229  0.00  0.00    +0.010 C 
ATOM      7  C   LIG    1       -2.132  -1.150  -0.190  0.00  0.00    -0.002 C 
ATOM      8  C   LIG    1       -3.227  -2.217  -0.278  0.00  0.00    +0.016 C 
ATOM      9  C   LIG    1       -1.332  -1.132  -1.466  0.00  0.00    +0.027 C 
ATOM     10  C   LIG    1        0.009  -0.504  -1.339  0.00  0.00    +0.085 C 
ATOM     11  N   LIG    1        0.592  -0.513  -0.065  0.00  0.00    -0.298 NA
ATOM     12  C   LIG    1       -2.801   0.160  -0.014  0.00  0.00    -0.034 A 
ATOM     13  C   LIG    1       -4.060   0.375  -0.573  0.00  0.00    +0.049 A 
ATOM     14  C   LIG    1       -4.673   1.584  -0.409  0.00  0.00    +0.117 A 
ATOM     15  C   LIG    1       -4.048   2.574   0.302  0.00  0.00    +0.045 A 
ENDROOT
BRANCH  14  16
ATOM     16  O   LIG    1       -5.944   1.854  -0.952  0.00  0.00    -0.507 OA
ATOM     17  H   LIG    1       -6.799   1.674  -0.441  0.00  0.00    +0.292 HD
ENDBRANCH  14  16
BRANCH  11  18
ATOM     18  C   LIG    1        1.932  -0.170   0.090  0.00  0.00    +0.089 C 
BRANCH  18  19
ATOM     19  C   LIG    1        2.808  -0.281  -1.094  0.00  0.00    +0.050 C 
BRANCH  19  20
ATOM     20  C   LIG    1        4.186   0.135  -0.695  0.00  0.00    -0.046 A 
ATOM     21  C   LIG    1        5.123  -0.755  -0.211  0.00  0.00    +0.003 A 
ATOM     22  C   LIG    1        6.394  -0.397   0.161  0.00  0.00    +0.000 A 
ATOM     23  C   LIG    1        6.788   0.912   0.058  0.00  0.00    +0.000 A 
ATOM     24  C   LIG    1        5.886   1.837  -0.420  0.00  0.00    +0.000 A 
ATOM     25  C   LIG    1        4.615   1.453  -0.788  0.00  0.00    +0.003 A 
ENDBRANCH  19  20
ENDBRANCH  18  19
ENDBRANCH  11  18
TORSDOF 4
