REMARK  Name = molecules/ZQTNQVWKHCQYLQ-UHFFFAOYSA-N.pdb
REMARK                            x       y       z     vdW  Elec       q    Type
REMARK                         _______ _______ _______ _____ _____    ______ ____
ROOT
ATOM      1  C   LIG    1       -4.015  -0.832   0.901  0.00  0.00    +0.197 C 
ATOM      2  O   LIG    1       -4.422  -0.679   2.079  0.00  0.00    -0.287 OA
ENDROOT
BRANCH   1   3
ATOM      3  C   LIG    1       -4.861  -0.997  -0.266  0.00  0.00    +0.071 A 
ATOM      4  C   LIG    1       -5.716  -0.013  -0.756  0.00  0.00    +0.033 A 
ATOM      5  C   LIG    1       -6.060   1.252  -0.352  0.00  0.00    +0.036 A 
ATOM      6  C   LIG    1       -6.963   2.013  -1.053  0.00  0.00    +0.048 A 
ATOM      7  C   LIG    1       -7.554   1.490  -2.217  0.00  0.00    +0.028 A 
ATOM      8  C   LIG    1       -7.222   0.238  -2.627  0.00  0.00    +0.049 A 
ATOM      9  C   LIG    1       -6.308  -0.513  -1.901  0.00  0.00    +0.136 A 
ATOM     10  O   LIG    1       -5.820  -1.719  -2.058  0.00  0.00    -0.459 OA
ATOM     11  C   LIG    1       -4.972  -2.071  -1.142  0.00  0.00    +0.117 A 
BRANCH   6  12
ATOM     12  N   LIG    1       -7.361   3.314  -0.652  0.00  0.00    -0.221 N 
ATOM     13  H   LIG    1       -7.566   4.021  -1.395  0.00  0.00    +0.173 HD
BRANCH  12  14
ATOM     14  S   LIG    1       -7.525   3.779   0.979  0.00  0.00    +0.040 S 
ATOM     15  O   LIG    1       -7.222   2.631   1.928  0.00  0.00    -0.155 OA
ATOM     16  C   LIG    1       -6.327   5.084   1.272  0.00  0.00    +0.218 C 
ATOM     17  O   LIG    1       -8.891   4.281   1.248  0.00  0.00    -0.155 OA
ENDBRANCH  12  14
ENDBRANCH   6  12
BRANCH  11  18
ATOM     18  C   LIG    1       -4.242  -3.352  -0.997  0.00  0.00    +0.075 C 
BRANCH  18  19
ATOM     19  C   LIG    1       -5.007  -4.423  -0.348  0.00  0.00    +0.007 C 
BRANCH  19  20
ATOM     20  C   LIG    1       -5.612  -4.249   0.988  0.00  0.00    -0.003 C 
ATOM     21  C   LIG    1       -6.689  -3.221   1.100  0.00  0.00    +0.004 C 
ENDBRANCH  19  20
ENDBRANCH  18  19
ENDBRANCH  11  18
ENDBRANCH   1   3
BRANCH   1  22
ATOM     22  C   LIG    1       -2.535  -0.834   0.756  0.00  0.00    +0.023 A 
ATOM     23  C   LIG    1       -1.732  -1.050   1.860  0.00  0.00    +0.015 A 
ATOM     24  C   LIG    1       -0.360  -1.051   1.797  0.00  0.00    +0.046 A 
ATOM     25  C   LIG    1        0.229  -0.826   0.574  0.00  0.00    +0.121 A 
ATOM     26  C   LIG    1       -0.533  -0.611  -0.538  0.00  0.00    +0.046 A 
ATOM     27  C   LIG    1       -1.925  -0.613  -0.458  0.00  0.00    +0.015 A 
BRANCH  25  28
ATOM     28  O   LIG    1        1.630  -0.810   0.426  0.00  0.00    -0.492 OA
BRANCH  28  29
ATOM     29  C   LIG    1        2.468  -1.014   1.516  0.00  0.00    +0.230 C 
BRANCH  29  30
ATOM     30  C   LIG    1        3.924  -0.927   1.133  0.00  0.00    +0.056 C 
BRANCH  30  31
ATOM     31  C   LIG    1        4.192   0.401   0.526  0.00  0.00    +0.087 C 
BRANCH  31  32
ATOM     32  N   LIG    1        5.629   0.611   0.244  0.00  0.00    -0.302 NA
BRANCH  32  33
ATOM     33  C   LIG    1        6.334   0.709   1.439  0.00  0.00    +0.084 C 
BRANCH  33  34
ATOM     34  C   LIG    1        7.637   1.312   1.621  0.00  0.00    +0.015 C 
BRANCH  34  35
ATOM     35  C   LIG    1        8.790   0.740   0.847  0.00  0.00    -0.002 C 
ATOM     36  C   LIG    1       10.075   1.499   1.182  0.00  0.00    +0.004 C 
ENDBRANCH  34  35
ENDBRANCH  33  34
ENDBRANCH  32  33
BRANCH  32  37
ATOM     37  C   LIG    1        5.817   1.503  -0.819  0.00  0.00    +0.084 C 
BRANCH  37  38
ATOM     38  C   LIG    1        5.439   1.036  -2.191  0.00  0.00    +0.015 C 
BRANCH  38  39
ATOM     39  C   LIG    1        6.205  -0.155  -2.702  0.00  0.00    -0.002 C 
ATOM     40  C   LIG    1        7.695   0.168  -2.832  0.00  0.00    +0.004 C 
ENDBRANCH  38  39
ENDBRANCH  37  38
ENDBRANCH  32  37
ENDBRANCH  31  32
ENDBRANCH  30  31
ENDBRANCH  29  30
ENDBRANCH  28  29
ENDBRANCH  25  28
ENDBRANCH   1  22
TORSDOF 18
