REMARK  Name = molecules/ZRALSGWEFCBTJO-UHFFFAOYSA-N.pdb
REMARK                            x       y       z     vdW  Elec       q    Type
REMARK                         _______ _______ _______ _____ _____    ______ ____
ROOT
ATOM      1  N   LIG    1        1.042  -0.524  -0.322  0.00  0.00    -0.289 N 
ATOM      2  C   LIG    1       -0.058   0.223   0.138  0.00  0.00    +0.374 C 
ATOM      3  H   LIG    1        1.067  -1.564  -0.256  0.00  0.00    +0.255 HD
ATOM      4  H   LIG    1        1.846  -0.007  -0.738  0.00  0.00    +0.255 HD
ENDROOT
BRANCH   2   5
ATOM      5  N   LIG    1       -1.363  -0.227  -0.152  0.00  0.00    -0.289 N 
ATOM      6  H   LIG    1       -1.702  -1.073   0.348  0.00  0.00    +0.255 HD
ATOM      7  H   LIG    1       -1.981   0.265  -0.844  0.00  0.00    +0.255 HD
ENDBRANCH   2   5
BRANCH   2   8
ATOM      8  N   LIG    1        0.089   1.296   0.811  0.00  0.00    -0.130 NA
ATOM      9  H   LIG    1        1.060   1.611   1.014  0.00  0.00    +0.306 HD
ENDBRANCH   2   8
TORSDOF 2
