REMARK  Name = molecules/ZRCVYEYHRGVLOC-APKGJDNQSA-N.pdb
REMARK                            x       y       z     vdW  Elec       q    Type
REMARK                         _______ _______ _______ _____ _____    ______ ____
ROOT
ATOM      1  O   LIG    1       -4.019  -2.277  -2.587  0.00  0.00    -0.286 OA
ATOM      2  C   LIG    1       -3.777  -1.345  -1.758  0.00  0.00    +0.205 A 
ATOM      3  C   LIG    1       -2.489  -1.228  -1.244  0.00  0.00    +0.068 A 
ATOM      4  C   LIG    1       -2.200  -0.228  -0.344  0.00  0.00    +0.147 A 
ATOM      5  N   LIG    1       -0.984  -0.109   0.148  0.00  0.00    -0.211 NA
ATOM      6  C   LIG    1        0.030  -0.929  -0.183  0.00  0.00    +0.159 A 
ATOM      7  C   LIG    1       -0.247  -1.938  -1.086  0.00  0.00    +0.164 A 
ATOM      8  F   LIG    1        0.725  -2.786  -1.453  0.00  0.00    -0.202 F 
ATOM      9  N   LIG    1       -3.127   0.661   0.071  0.00  0.00    -0.328 N 
ATOM     10  C   LIG    1       -4.359   0.512  -0.451  0.00  0.00    +0.106 A 
ATOM     11  C   LIG    1       -1.493  -2.091  -1.614  0.00  0.00    +0.057 A 
ATOM     12  C   LIG    1       -4.727  -0.454  -1.349  0.00  0.00    +0.122 A 
ENDROOT
BRANCH   6  13
ATOM     13  N   LIG    1        1.336  -0.768   0.372  0.00  0.00    -0.307 N 
ATOM     14  C   LIG    1        1.685  -0.827   1.774  0.00  0.00    +0.117 C 
ATOM     15  C   LIG    1        3.179  -0.599   1.840  0.00  0.00    +0.069 C 
ATOM     16  C   LIG    1        3.430   0.109   0.558  0.00  0.00    +0.080 C 
ATOM     17  N   LIG    1        4.250   1.064   0.292  0.00  0.00    -0.092 NA
ATOM     18  C   LIG    1        2.510  -0.517  -0.428  0.00  0.00    +0.161 C 
BRANCH  17  19
ATOM     19  O   LIG    1        4.359   1.614  -0.959  0.00  0.00    -0.397 OA
ATOM     20  C   LIG    1        4.495   3.001  -1.176  0.00  0.00    +0.313 C 
ENDBRANCH  17  19
BRANCH  15  21
ATOM     21  C   LIG    1        3.883  -1.944   1.809  0.00  0.00    +0.088 C 
BRANCH  21  22
ATOM     22  N   LIG    1        5.306  -1.810   1.869  0.00  0.00    -0.329 NA
ATOM     23  H   LIG    1        5.668  -1.636   2.830  0.00  0.00    +0.118 HD
ATOM     24  H   LIG    1        5.826  -2.575   1.379  0.00  0.00    +0.118 HD
ENDBRANCH  21  22
ENDBRANCH  15  21
ENDBRANCH   6  13
BRANCH   9  25
ATOM     25  C   LIG    1       -2.853   1.718   1.011  0.00  0.00    +0.089 C 
ATOM     26  C   LIG    1       -1.564   2.372   1.173  0.00  0.00    +0.027 C 
ATOM     27  C   LIG    1       -2.723   3.140   0.530  0.00  0.00    +0.027 C 
ENDBRANCH   9  25
BRANCH  12  28
ATOM     28  C   LIG    1       -6.094  -0.553  -1.874  0.00  0.00    +0.342 C 
ATOM     29  O   LIG    1       -7.001   0.240  -1.530  0.00  0.00    -0.245 OA
BRANCH  28  30
ATOM     30  O   LIG    1       -6.410  -1.543  -2.773  0.00  0.00    -0.477 OA
ATOM     31  H   LIG    1       -6.554  -2.523  -2.500  0.00  0.00    +0.295 HD
ENDBRANCH  28  30
ENDBRANCH  12  28
TORSDOF 7
