REMARK  Name = molecules/ZRVUJXDFFKFLMG-UHFFFAOYSA-N.pdb
REMARK                            x       y       z     vdW  Elec       q    Type
REMARK                         _______ _______ _______ _____ _____    ______ ____
ROOT
ATOM      1  C   LIG    1       -1.141   0.776   0.809  0.00  0.00    +0.153 C 
ATOM      2  C   LIG    1       -2.542   1.132   1.058  0.00  0.00    +0.045 A 
ATOM      3  C   LIG    1       -2.837   2.026   2.094  0.00  0.00    +0.013 A 
ATOM      4  C   LIG    1       -4.147   2.333   2.395  0.00  0.00    +0.001 A 
ATOM      5  C   LIG    1       -5.212   1.800   1.721  0.00  0.00    +0.002 A 
ATOM      6  C   LIG    1       -4.893   0.924   0.705  0.00  0.00    +0.029 A 
ATOM      7  C   LIG    1       -3.614   0.609   0.391  0.00  0.00    +0.119 A 
ATOM      8  S   LIG    1       -3.298  -0.448  -0.963  0.00  0.00    +0.075 S 
ATOM      9  N   LIG    1       -1.646  -0.898  -0.844  0.00  0.00    -0.197 N 
ATOM     10  C   LIG    1       -1.214  -2.086  -1.489  0.00  0.00    +0.158 C 
ATOM     11  O   LIG    1       -4.220  -1.622  -1.002  0.00  0.00    -0.150 OA
ATOM     12  O   LIG    1       -3.435   0.391  -2.220  0.00  0.00    -0.150 OA
ATOM     13  C   LIG    1       -0.716  -0.101  -0.078  0.00  0.00    +0.155 C 
ENDROOT
BRANCH  13  14
ATOM     14  C   LIG    1        0.680  -0.405  -0.307  0.00  0.00    +0.269 C 
ATOM     15  N   LIG    1        1.734   0.199   0.411  0.00  0.00    -0.259 N 
ATOM     16  H   LIG    1        1.607   0.895   1.149  0.00  0.00    +0.157 HD
ATOM     17  O   LIG    1        1.023  -1.267  -1.208  0.00  0.00    -0.268 OA
BRANCH  15  18
ATOM     18  C   LIG    1        3.113  -0.172   0.105  0.00  0.00    +0.165 A 
ATOM     19  S   LIG    1        4.596   0.336   0.751  0.00  0.00    -0.057 S 
ATOM     20  C   LIG    1        5.633  -0.635  -0.221  0.00  0.00    +0.008 A 
ATOM     21  C   LIG    1        7.135  -0.751  -0.244  0.00  0.00    +0.053 C 
ATOM     22  C   LIG    1        4.725  -1.303  -0.998  0.00  0.00    +0.124 A 
ATOM     23  N   LIG    1        3.468  -1.050  -0.812  0.00  0.00    -0.233 NA
ENDBRANCH  15  18
ENDBRANCH  13  14
BRANCH   1  24
ATOM     24  O   LIG    1       -0.217   1.476   1.614  0.00  0.00    -0.504 OA
ATOM     25  H   LIG    1       -0.247   1.461   2.611  0.00  0.00    +0.292 HD
ENDBRANCH   1  24
TORSDOF 3
