REMARK  Name = molecules/ZRYHPQCHHOKSMD-HXUWFJFHSA-N.pdb
REMARK                            x       y       z     vdW  Elec       q    Type
REMARK                         _______ _______ _______ _____ _____    ______ ____
ROOT
ATOM      1  C   LIG    1       -0.987   0.624   0.356  0.00  0.00    +0.106 C 
ENDROOT
BRANCH   1   2
ATOM      2  C   LIG    1       -1.827   1.897   0.313  0.00  0.00    -0.015 A 
ATOM      3  C   LIG    1       -2.165   2.566   1.467  0.00  0.00    +0.006 A 
ATOM      4  C   LIG    1       -2.930   3.715   1.412  0.00  0.00    +0.000 A 
ATOM      5  C   LIG    1       -3.339   4.165   0.172  0.00  0.00    +0.000 A 
ATOM      6  C   LIG    1       -2.996   3.489  -0.986  0.00  0.00    +0.000 A 
ATOM      7  C   LIG    1       -2.236   2.348  -0.923  0.00  0.00    +0.006 A 
ENDBRANCH   1   2
BRANCH   1   8
ATOM      8  C   LIG    1       -1.884  -0.430  -0.224  0.00  0.00    +0.026 C 
ATOM      9  C   LIG    1       -3.131  -0.494   0.648  0.00  0.00    +0.007 C 
ATOM     10  C   LIG    1       -3.425  -1.885   1.140  0.00  0.00    +0.000 C 
ATOM     11  C   LIG    1       -3.484  -2.893   0.025  0.00  0.00    +0.000 C 
ATOM     12  C   LIG    1       -2.312  -2.765  -0.907  0.00  0.00    +0.000 C 
ATOM     13  C   LIG    1       -1.320  -1.805  -0.277  0.00  0.00    +0.007 C 
ENDBRANCH   1   8
BRANCH   1  14
ATOM     14  O   LIG    1       -0.855   0.350   1.707  0.00  0.00    -0.382 OA
ATOM     15  H   LIG    1       -1.050  -0.550   1.990  0.00  0.00    +0.211 HD
ENDBRANCH   1  14
BRANCH   1  16
ATOM     16  C   LIG    1        0.293   0.858  -0.368  0.00  0.00    +0.124 C 
BRANCH  16  17
ATOM     17  N   LIG    1        1.211  -0.209  -0.355  0.00  0.00    -0.303 NA
ATOM     18  C   LIG    1        1.851  -0.553   0.853  0.00  0.00    +0.066 C 
ATOM     19  C   LIG    1        3.280  -0.063   0.944  0.00  0.00    -0.060 C 
ATOM     20  N   LIG    1        4.047  -0.321  -0.225  0.00  0.00    +0.378 N 
ATOM     21  C   LIG    1        4.693  -1.636  -0.170  0.00  0.00    -0.092 C 
ATOM     22  C   LIG    1        5.172   0.638  -0.184  0.00  0.00    -0.092 C 
ATOM     23  C   LIG    1        3.401  -0.119  -1.479  0.00  0.00    -0.060 C 
ATOM     24  C   LIG    1        1.951  -0.404  -1.556  0.00  0.00    +0.066 C 
ENDBRANCH  16  17
ENDBRANCH   1  16
TORSDOF 5
