REMARK  Name = molecules/ZSBOMTDTBDDKMP-OAHLLOKOSA-N.pdb
REMARK                            x       y       z     vdW  Elec       q    Type
REMARK                         _______ _______ _______ _____ _____    ______ ____
ROOT
ATOM      1  N   LIG    1        0.666   1.344   0.024  0.00  0.00    -0.277 N 
ATOM      2  C   LIG    1        1.257   2.377   0.638  0.00  0.00    +0.333 A 
ATOM      3  N   LIG    1        0.719   2.947   1.751  0.00  0.00    -0.264 N 
ATOM      4  C   LIG    1        1.406   4.059   2.370  0.00  0.00    +0.157 C 
ATOM      5  C   LIG    1       -0.426   2.497   2.280  0.00  0.00    +0.258 A 
ATOM      6  O   LIG    1       -0.941   3.022   3.322  0.00  0.00    -0.267 OA
ATOM      7  C   LIG    1       -1.049   1.434   1.661  0.00  0.00    +0.112 A 
ATOM      8  O   LIG    1        2.342   2.867   0.204  0.00  0.00    -0.246 OA
ATOM      9  C   LIG    1       -0.477   0.868   0.521  0.00  0.00    +0.111 A 
ENDROOT
BRANCH   9  10
ATOM     10  N   LIG    1       -1.203  -0.214  -0.050  0.00  0.00    -0.315 N 
ATOM     11  C   LIG    1       -0.964  -1.587   0.277  0.00  0.00    +0.106 C 
ATOM     12  C   LIG    1       -2.226  -2.341   0.616  0.00  0.00    +0.020 C 
ATOM     13  C   LIG    1       -3.464  -1.608   0.163  0.00  0.00    +0.021 C 
ATOM     14  C   LIG    1       -3.227  -0.979  -1.187  0.00  0.00    +0.068 C 
ATOM     15  C   LIG    1       -2.238   0.144  -1.013  0.00  0.00    +0.125 C 
BRANCH  14  16
ATOM     16  N   LIG    1       -4.506  -0.439  -1.618  0.00  0.00    -0.326 NA
ATOM     17  H   LIG    1       -5.133  -1.221  -1.862  0.00  0.00    +0.119 HD
ATOM     18  H   LIG    1       -4.390   0.274  -2.365  0.00  0.00    +0.119 HD
ENDBRANCH  14  16
ENDBRANCH   9  10
BRANCH   1  19
ATOM     19  C   LIG    1        1.278   0.758  -1.118  0.00  0.00    +0.164 C 
BRANCH  19  20
ATOM     20  C   LIG    1        2.258  -0.293  -0.788  0.00  0.00    -0.010 A 
ATOM     21  C   LIG    1        2.843  -0.406   0.451  0.00  0.00    +0.006 A 
ATOM     22  C   LIG    1        3.764  -1.390   0.743  0.00  0.00    +0.000 A 
ATOM     23  C   LIG    1        4.123  -2.303  -0.228  0.00  0.00    +0.001 A 
ATOM     24  C   LIG    1        3.536  -2.190  -1.475  0.00  0.00    +0.019 A 
ATOM     25  C   LIG    1        2.609  -1.196  -1.761  0.00  0.00    +0.057 A 
BRANCH  25  26
ATOM     26  C   LIG    1        2.059  -1.170  -3.093  0.00  0.00    +0.099 C 
ATOM     27  N   LIG    1        1.630  -1.135  -4.169  0.00  0.00    -0.191 NA
ENDBRANCH  25  26
ENDBRANCH  19  20
ENDBRANCH   1  19
TORSDOF 5
