REMARK  Name = molecules/ZSQANMZWGKYDER-ZRFNAWPJSA-N.pdb
REMARK                            x       y       z     vdW  Elec       q    Type
REMARK                         _______ _______ _______ _____ _____    ______ ____
ROOT
ATOM      1  N   LIG    1       -1.368   0.473  -0.504  0.00  0.00    -0.289 NA
ATOM      2  C   LIG    1       -0.322  -0.434  -0.110  0.00  0.00    +0.100 C 
ATOM      3  C   LIG    1        1.033   0.072  -0.431  0.00  0.00    +0.100 C 
ATOM      4  N   LIG    1        1.367   1.346   0.202  0.00  0.00    -0.296 NA
ATOM      5  C   LIG    1        0.156   2.106   0.473  0.00  0.00    +0.100 C 
ATOM      6  C   LIG    1       -0.903   1.840  -0.573  0.00  0.00    +0.100 C 
ENDROOT
BRANCH   1   7
ATOM      7  C   LIG    1       -2.535   0.351   0.345  0.00  0.00    +0.117 C 
BRANCH   7   8
ATOM      8  C   LIG    1       -2.938  -1.079   0.356  0.00  0.00    -0.026 A 
ATOM      9  C   LIG    1       -3.327  -1.690   1.540  0.00  0.00    +0.007 A 
ATOM     10  C   LIG    1       -3.677  -3.017   1.516  0.00  0.00    +0.020 A 
ATOM     11  C   LIG    1       -3.639  -3.724   0.323  0.00  0.00    +0.041 A 
ATOM     12 CL   LIG    1       -4.088  -5.416   0.309  0.00  0.00    -0.084 Cl
ATOM     13  C   LIG    1       -3.252  -3.116  -0.859  0.00  0.00    +0.020 A 
ATOM     14  C   LIG    1       -2.900  -1.782  -0.830  0.00  0.00    +0.007 A 
ENDBRANCH   7   8
BRANCH   7  15
ATOM     15  C   LIG    1       -3.644   1.173  -0.128  0.00  0.00    -0.026 A 
ATOM     16  C   LIG    1       -4.411   1.860   0.808  0.00  0.00    +0.005 A 
ATOM     17  C   LIG    1       -5.475   2.653   0.423  0.00  0.00    +0.000 A 
ATOM     18  C   LIG    1       -5.804   2.783  -0.910  0.00  0.00    +0.000 A 
ATOM     19  C   LIG    1       -5.062   2.116  -1.849  0.00  0.00    +0.000 A 
ATOM     20  C   LIG    1       -4.007   1.333  -1.433  0.00  0.00    +0.005 A 
ENDBRANCH   7  15
ENDBRANCH   1   7
BRANCH   4  21
ATOM     21  C   LIG    1        2.101   1.103   1.437  0.00  0.00    +0.111 C 
BRANCH  21  22
ATOM     22  C   LIG    1        3.457   0.548   1.192  0.00  0.00    -0.011 C 
ATOM     23  C   LIG    1        4.012   0.351   0.035  0.00  0.00    +0.005 C 
BRANCH  23  24
ATOM     24  C   LIG    1        5.356  -0.206  -0.152  0.00  0.00    -0.025 A 
ATOM     25  C   LIG    1        6.137  -0.610   0.904  0.00  0.00    +0.008 A 
ATOM     26  C   LIG    1        7.389  -1.133   0.659  0.00  0.00    +0.001 A 
ATOM     27  C   LIG    1        7.894  -1.269  -0.600  0.00  0.00    +0.000 A 
ATOM     28  C   LIG    1        7.084  -0.853  -1.646  0.00  0.00    +0.001 A 
ATOM     29  C   LIG    1        5.830  -0.326  -1.449  0.00  0.00    +0.008 A 
ENDBRANCH  23  24
ENDBRANCH  21  22
ENDBRANCH   4  21
TORSDOF 6
