REMARK  Name = molecules/ZUBDXGHKAAMAAA-RFXJPFPRSA-N.pdb
REMARK                            x       y       z     vdW  Elec       q    Type
REMARK                         _______ _______ _______ _____ _____    ______ ____
ROOT
ATOM      1  C   LIG    1        3.676   0.574   1.782  0.00  0.00    +0.014 C 
ATOM      2  C   LIG    1        3.610   0.769   0.292  0.00  0.00    -0.000 C 
ATOM      3  C   LIG    1        2.623   1.792  -0.119  0.00  0.00    +0.010 C 
ATOM      4  C   LIG    1        1.248   1.413   0.317  0.00  0.00    +0.005 C 
ATOM      5  C   LIG    1        0.866   0.012   0.037  0.00  0.00    +0.003 C 
ATOM      6  C   LIG    1       -0.294  -0.483   0.869  0.00  0.00    -0.004 C 
ATOM      7  C   LIG    1        0.216  -1.143   2.155  0.00  0.00    +0.016 C 
ATOM      8  C   LIG    1       -1.294   0.530   1.228  0.00  0.00    +0.019 C 
ATOM      9  C   LIG    1       -2.596   0.495   0.501  0.00  0.00    +0.074 C 
ATOM     10  C   LIG    1       -3.075  -0.830   0.136  0.00  0.00    +0.098 C 
ATOM     11  C   LIG    1       -2.276  -1.863  -0.072  0.00  0.00    +0.045 C 
ATOM     12  C   LIG    1       -0.850  -1.638   0.076  0.00  0.00    -0.042 C 
ATOM     13  C   LIG    1        0.047  -2.438  -0.477  0.00  0.00    -0.022 C 
ATOM     14  C   LIG    1        1.499  -2.297  -0.386  0.00  0.00    +0.031 C 
ATOM     15  C   LIG    1        1.964  -1.004   0.199  0.00  0.00    +0.000 C 
ATOM     16  C   LIG    1        5.002   0.984  -0.215  0.00  0.00    +0.069 C 
ATOM     17  C   LIG    1        5.607  -0.415  -0.034  0.00  0.00    +0.035 C 
ATOM     18  C   LIG    1        4.422  -1.377  -0.155  0.00  0.00    +0.007 C 
ATOM     19  C   LIG    1        5.058   1.409  -1.656  0.00  0.00    +0.042 C 
ATOM     20  C   LIG    1        3.235  -0.532  -0.432  0.00  0.00    +0.001 C 
ENDROOT
BRANCH  16  21
ATOM     21  O   LIG    1        5.626   1.924   0.564  0.00  0.00    -0.388 OA
ATOM     22  H   LIG    1        6.582   1.750   0.742  0.00  0.00    +0.210 HD
ENDBRANCH  16  21
BRANCH  10  23
ATOM     23  O   LIG    1       -4.435  -1.043  -0.005  0.00  0.00    -0.493 OA
BRANCH  23  24
ATOM     24  C   LIG    1       -5.428  -0.058   0.042  0.00  0.00    +0.173 C 
ATOM     25  C   LIG    1       -6.768  -0.709  -0.254  0.00  0.00    +0.044 C 
ATOM     26  C   LIG    1       -7.498   0.192  -1.198  0.00  0.00    +0.004 C 
ATOM     27  C   LIG    1       -6.742   1.490  -1.243  0.00  0.00    +0.004 C 
ATOM     28  C   LIG    1       -5.309   1.010  -0.992  0.00  0.00    +0.044 C 
ENDBRANCH  23  24
ENDBRANCH  10  23
TORSDOF 3
