REMARK  Name = molecules/ZVGNESXIJDCBKN-VUCVDCOISA-N.pdb
REMARK                            x       y       z     vdW  Elec       q    Type
REMARK                         _______ _______ _______ _____ _____    ______ ____
ROOT
ATOM      1  C   LIG    1       -2.477  -1.212  -0.156  0.00  0.00    +0.062 C 
ATOM      2  C   LIG    1       -2.107  -2.409   0.280  0.00  0.00    +0.012 C 
ATOM      3  C   LIG    1       -0.913  -3.172   0.097  0.00  0.00    -0.004 C 
ATOM      4  C   LIG    1        0.187  -3.307   0.793  0.00  0.00    -0.024 C 
ATOM      5  C   LIG    1        0.405  -2.595   2.061  0.00  0.00    +0.063 C 
ATOM      6  C   LIG    1        1.797  -2.783   2.618  0.00  0.00    +0.144 C 
ATOM      7  C   LIG    1        2.054  -1.625   3.515  0.00  0.00    -0.048 C 
ATOM      8  C   LIG    1        1.113  -1.460   4.654  0.00  0.00    +0.041 C 
ATOM      9  C   LIG    1        3.073  -0.792   3.343  0.00  0.00    -0.019 C 
ATOM     10  C   LIG    1        4.051  -0.947   2.236  0.00  0.00    +0.045 C 
ATOM     11  C   LIG    1        4.782   0.303   1.861  0.00  0.00    +0.154 C 
ATOM     12  C   LIG    1        4.189   1.581   2.295  0.00  0.00    -0.043 C 
ATOM     13  C   LIG    1        5.277   2.588   2.742  0.00  0.00    +0.042 C 
ATOM     14  C   LIG    1        2.962   1.994   2.365  0.00  0.00    +0.004 C 
ATOM     15  C   LIG    1        1.653   1.460   2.076  0.00  0.00    -0.054 C 
ATOM     16  C   LIG    1        0.585   1.548   3.191  0.00  0.00    +0.043 C 
ATOM     17  C   LIG    1        1.181   0.921   0.988  0.00  0.00    -0.020 C 
ATOM     18  C   LIG    1        1.821   0.636  -0.315  0.00  0.00    +0.074 C 
ATOM     19  C   LIG    1        0.716   0.419  -1.384  0.00  0.00    +0.209 C 
ATOM     20  O   LIG    1       -0.493   0.159  -0.829  0.00  0.00    -0.455 OA
ATOM     21  C   LIG    1       -1.735  -0.287  -1.042  0.00  0.00    +0.338 C 
ATOM     22  O   LIG    1       -2.480   0.045  -2.091  0.00  0.00    -0.245 OA
ENDROOT
BRANCH   6  23
ATOM     23  O   LIG    1        1.800  -3.950   3.419  0.00  0.00    -0.387 OA
ATOM     24  H   LIG    1        2.547  -3.934   4.074  0.00  0.00    +0.210 HD
ENDBRANCH   6  23
BRANCH  19  25
ATOM     25  C   LIG    1        1.200  -0.582  -2.398  0.00  0.00    +0.152 C 
ATOM     26  C   LIG    1        2.545  -0.138  -2.917  0.00  0.00    +0.041 C 
BRANCH  25  27
ATOM     27  O   LIG    1        1.329  -1.834  -1.838  0.00  0.00    -0.388 OA
ATOM     28  H   LIG    1        2.146  -1.978  -1.324  0.00  0.00    +0.210 HD
ENDBRANCH  25  27
ENDBRANCH  19  25
BRANCH  10  29
ATOM     29  C   LIG    1        5.064  -1.983   2.802  0.00  0.00    +0.007 C 
ATOM     30  C   LIG    1        5.702  -1.406   4.060  0.00  0.00    +0.004 C 
ENDBRANCH  10  29
BRANCH  11  31
ATOM     31  O   LIG    1        5.215   0.343   0.534  0.00  0.00    -0.341 OA
BRANCH  31  32
ATOM     32  C   LIG    1        6.558   0.156   0.345  0.00  0.00    +0.283 C 
ATOM     33  O   LIG    1        7.157   1.384  -0.008  0.00  0.00    -0.339 OA
ATOM     34  C   LIG    1        8.524   1.181  -0.137  0.00  0.00    +0.106 C 
ATOM     35  C   LIG    1        9.055   0.449   1.043  0.00  0.00    +0.045 C 
ATOM     36  C   LIG    1        9.248   2.519  -0.189  0.00  0.00    +0.045 C 
ATOM     37  C   LIG    1        8.730   0.441  -1.441  0.00  0.00    +0.239 C 
ATOM     38  C   LIG    1        7.966  -0.817  -1.537  0.00  0.00    +0.191 C 
ATOM     39  C   LIG    1        6.815  -0.916  -0.624  0.00  0.00    +0.202 C 
BRANCH  39  40
ATOM     40  O   LIG    1        5.643  -1.130  -1.367  0.00  0.00    -0.384 OA
ATOM     41  H   LIG    1        5.684  -0.494  -2.133  0.00  0.00    +0.210 HD
ENDBRANCH  39  40
BRANCH  38  42
ATOM     42  O   LIG    1        7.484  -0.905  -2.874  0.00  0.00    -0.385 OA
ATOM     43  H   LIG    1        8.011  -0.362  -3.482  0.00  0.00    +0.210 HD
ENDBRANCH  38  42
BRANCH  37  44
ATOM     44  O   LIG    1       10.114   0.279  -1.706  0.00  0.00    -0.456 OA
BRANCH  44  45
ATOM     45  C   LIG    1       10.716   0.944  -2.731  0.00  0.00    +0.310 C 
ATOM     46  O   LIG    1       10.035   1.703  -3.440  0.00  0.00    -0.251 OA
BRANCH  45  47
ATOM     47  C   LIG    1       12.175   0.783  -3.024  0.00  0.00    +0.092 C 
ATOM     48  C   LIG    1       12.521  -0.618  -3.414  0.00  0.00    +0.019 C 
ATOM     49  C   LIG    1       12.626   1.820  -4.025  0.00  0.00    +0.019 C 
ENDBRANCH  45  47
ENDBRANCH  44  45
ENDBRANCH  37  44
ENDBRANCH  31  32
ENDBRANCH  11  31
BRANCH   1  50
ATOM     50  C   LIG    1       -3.853  -0.713   0.260  0.00  0.00    +0.205 C 
BRANCH  50  51
ATOM     51  O   LIG    1       -4.692  -0.474  -0.798  0.00  0.00    -0.344 OA
BRANCH  51  56
ATOM     52  C   LIG    1       -8.712  -0.012  -1.067  0.00  0.00    +0.236 C 
ATOM     53  C   LIG    1       -7.986  -0.588   0.151  0.00  0.00    +0.162 C 
ATOM     54  C   LIG    1       -8.812  -1.674   0.800  0.00  0.00    +0.042 C 
ATOM     55  O   LIG    1       -6.787  -1.124  -0.379  0.00  0.00    -0.342 OA
ATOM     56  C   LIG    1       -5.920   0.011  -0.370  0.00  0.00    +0.282 C 
ATOM     57  C   LIG    1       -6.425   1.078  -1.240  0.00  0.00    +0.206 C 
ATOM     58  C   LIG    1       -7.776   0.788  -1.859  0.00  0.00    +0.191 C 
BRANCH  58  59
ATOM     59  O   LIG    1       -7.504   0.114  -3.073  0.00  0.00    -0.385 OA
ATOM     60  H   LIG    1       -8.306  -0.029  -3.603  0.00  0.00    +0.210 HD
ENDBRANCH  58  59
BRANCH  57  61
ATOM     61  O   LIG    1       -5.498   1.460  -2.206  0.00  0.00    -0.372 OA
ATOM     62  C   LIG    1       -5.106   2.798  -2.057  0.00  0.00    +0.194 C 
ENDBRANCH  57  61
BRANCH  52  63
ATOM     63  O   LIG    1       -9.861   0.703  -0.664  0.00  0.00    -0.452 OA
BRANCH  63  64
ATOM     64  C   LIG    1      -11.135   0.193  -0.790  0.00  0.00    +0.344 C 
ATOM     65  O   LIG    1      -11.166  -0.982  -1.291  0.00  0.00    -0.245 OA
BRANCH  64  66
ATOM     66  C   LIG    1      -12.358   0.877  -0.406  0.00  0.00    +0.106 A 
ATOM     67  C   LIG    1      -12.299   2.156   0.129  0.00  0.00    +0.153 A 
ATOM     68  C   LIG    1      -13.455   2.840   0.527  0.00  0.00    +0.126 A 
ATOM     69 CL   LIG    1      -13.344   4.455   1.200  0.00  0.00    -0.076 Cl
ATOM     70  C   LIG    1      -14.661   2.234   0.383  0.00  0.00    +0.157 A 
ATOM     71  C   LIG    1      -14.718   0.954  -0.152  0.00  0.00    +0.088 A 
ATOM     72 CL   LIG    1      -16.293   0.202  -0.324  0.00  0.00    -0.079 Cl
ATOM     73  C   LIG    1      -13.586   0.276  -0.545  0.00  0.00    -0.008 A 
BRANCH  73  74
ATOM     74  C   LIG    1      -13.728  -1.109  -1.081  0.00  0.00    +0.034 C 
ATOM     75  C   LIG    1      -13.319  -2.107  -0.030  0.00  0.00    +0.009 C 
ENDBRANCH  73  74
BRANCH  67  76
ATOM     76  O   LIG    1      -11.139   2.867   0.320  0.00  0.00    -0.504 OA
ATOM     77  H   LIG    1      -10.201   2.681   0.153  0.00  0.00    +0.292 HD
ENDBRANCH  67  76
BRANCH  70  78
ATOM     78  O   LIG    1      -15.823   2.879   0.764  0.00  0.00    -0.504 OA
ATOM     79  H   LIG    1      -15.774   3.796   1.144  0.00  0.00    +0.292 HD
ENDBRANCH  70  78
ENDBRANCH  64  66
ENDBRANCH  63  64
ENDBRANCH  52  63
ENDBRANCH  51  56
ENDBRANCH  50  51
ENDBRANCH   1  50
TORSDOF 22
