REMARK  Name = molecules/ZVNYJIZDIRKMBF-UHFFFAOYSA-N.pdb
REMARK                            x       y       z     vdW  Elec       q    Type
REMARK                         _______ _______ _______ _____ _____    ______ ____
ROOT
ATOM      1  C   LIG    1       -1.992  -0.561   2.035  0.00  0.00    +0.247 C 
ATOM      2  O   LIG    1       -1.883  -1.518   2.901  0.00  0.00    -0.270 OA
ATOM      3  N   LIG    1       -0.948   0.341   2.001  0.00  0.00    -0.295 N 
ATOM      4  C   LIG    1        0.249   0.072   2.887  0.00  0.00    +0.127 C 
ATOM      5  C   LIG    1        1.359  -0.186   1.920  0.00  0.00    +0.124 C 
ATOM      6  N   LIG    1        1.369   0.596   0.721  0.00  0.00    -0.327 N 
ATOM      7  C   LIG    1        0.295   1.450   0.239  0.00  0.00    +0.124 C 
ATOM      8  C   LIG    1       -0.792   1.561   1.292  0.00  0.00    +0.127 C 
ENDROOT
BRANCH   6   9
ATOM      9  C   LIG    1        2.557   0.534  -0.095  0.00  0.00    +0.030 A 
ATOM     10  C   LIG    1        3.630  -0.270   0.240  0.00  0.00    +0.028 A 
ATOM     11  C   LIG    1        4.779  -0.341  -0.530  0.00  0.00    -0.024 A 
ATOM     12  C   LIG    1        5.852  -1.242  -0.057  0.00  0.00    +0.046 C 
ATOM     13  C   LIG    1        6.841  -1.589  -1.123  0.00  0.00    +0.101 C 
ATOM     14  C   LIG    1        7.124  -0.507  -2.068  0.00  0.00    +0.218 C 
ATOM     15  N   LIG    1        6.062   0.344  -2.481  0.00  0.00    -0.285 N 
ATOM     16  H   LIG    1        6.126   0.927  -3.363  0.00  0.00    +0.155 HD
ATOM     17  O   LIG    1        8.295  -0.297  -2.539  0.00  0.00    -0.275 OA
ATOM     18  C   LIG    1        4.888   0.407  -1.682  0.00  0.00    +0.037 A 
ATOM     19  C   LIG    1        3.811   1.216  -2.021  0.00  0.00    +0.025 A 
ATOM     20  C   LIG    1        2.672   1.280  -1.249  0.00  0.00    +0.025 A 
ENDBRANCH   6   9
BRANCH   1  21
ATOM     21  C   LIG    1       -3.183  -0.569   1.232  0.00  0.00    +0.041 A 
ATOM     22  C   LIG    1       -4.253  -1.348   1.709  0.00  0.00    +0.017 A 
ATOM     23  C   LIG    1       -5.438  -1.369   1.050  0.00  0.00    +0.050 A 
ATOM     24  C   LIG    1       -5.606  -0.628  -0.094  0.00  0.00    +0.162 A 
ATOM     25  C   LIG    1       -4.592   0.143  -0.595  0.00  0.00    +0.162 A 
ATOM     26  C   LIG    1       -3.374   0.165   0.082  0.00  0.00    +0.062 A 
BRANCH  25  27
ATOM     27  O   LIG    1       -4.823   0.863  -1.744  0.00  0.00    -0.491 OA
ATOM     28  C   LIG    1       -3.888   1.696  -2.378  0.00  0.00    +0.277 C 
ENDBRANCH  25  27
BRANCH  24  29
ATOM     29  O   LIG    1       -6.836  -0.674  -0.742  0.00  0.00    -0.491 OA
ATOM     30  C   LIG    1       -7.899  -1.460  -0.249  0.00  0.00    +0.277 C 
ENDBRANCH  24  29
ENDBRANCH   1  21
TORSDOF 4
