REMARK  Name = molecules/ZVSGUZQJNXHNIL-UHFFFAOYSA-N.pdb
REMARK                            x       y       z     vdW  Elec       q    Type
REMARK                         _______ _______ _______ _____ _____    ______ ____
ROOT
ATOM      1  C   LIG    1        0.307  -0.250   0.023  0.00  0.00    +0.051 A 
ATOM      2  C   LIG    1        1.313   0.663   0.145  0.00  0.00    +0.049 A 
ATOM      3  C   LIG    1        2.651   0.328   0.216  0.00  0.00    +0.027 A 
ATOM      4  C   LIG    1        2.992  -1.006   0.160  0.00  0.00    +0.023 A 
ATOM      5  C   LIG    1        2.003  -1.963   0.037  0.00  0.00    +0.004 A 
ATOM      6  C   LIG    1        0.691  -1.595  -0.030  0.00  0.00    +0.026 A 
ENDROOT
BRANCH   1  13
ATOM      7  O   LIG    1       -0.934   1.787   1.390  0.00  0.00    -0.267 OA
ATOM      8  C   LIG    1       -1.637   1.073   0.630  0.00  0.00    +0.256 A 
ATOM      9  C   LIG    1       -2.985   1.347   0.524  0.00  0.00    +0.071 A 
ATOM     10  C   LIG    1       -3.808   0.585  -0.304  0.00  0.00    +0.007 A 
ATOM     11  C   LIG    1       -3.219  -0.434  -0.995  0.00  0.00    +0.018 A 
ATOM     12  C   LIG    1       -1.867  -0.672  -0.858  0.00  0.00    +0.095 A 
ATOM     13  N   LIG    1       -1.073   0.073  -0.051  0.00  0.00    -0.284 N 
ENDBRANCH   1  13
BRANCH   3  14
ATOM     14  N   LIG    1        3.686   1.298   0.343  0.00  0.00    -0.358 N 
ATOM     15  H   LIG    1        4.025   1.499   1.313  0.00  0.00    +0.142 HD
ATOM     16  H   LIG    1        4.096   1.788  -0.458  0.00  0.00    +0.142 HD
ENDBRANCH   3  14
TORSDOF 2
