REMARK  Name = molecules/ZVXBAHLOGZCFTP-UHFFFAOYSA-N.pdb
REMARK                            x       y       z     vdW  Elec       q    Type
REMARK                         _______ _______ _______ _____ _____    ______ ____
ROOT
ATOM      1  O   LIG    1        2.186   3.136  -2.147  0.00  0.00    -0.287 OA
ATOM      2  C   LIG    1        2.274   2.113  -1.430  0.00  0.00    +0.193 A 
ATOM      3  C   LIG    1        1.127   1.473  -1.010  0.00  0.00    +0.064 A 
ATOM      4  C   LIG    1        1.228   0.347  -0.221  0.00  0.00    +0.143 A 
ATOM      5  C   LIG    1        0.066  -0.310   0.210  0.00  0.00    +0.092 A 
ATOM      6  C   LIG    1       -1.190   0.132  -0.129  0.00  0.00    +0.125 A 
ATOM      7  C   LIG    1       -1.244   1.261  -0.919  0.00  0.00    +0.046 A 
ATOM      8  O   LIG    1        2.406  -0.111   0.128  0.00  0.00    -0.454 OA
ATOM      9  C   LIG    1        3.529   0.470  -0.251  0.00  0.00    +0.139 A 
ATOM     10  C   LIG    1       -0.128   1.926  -1.357  0.00  0.00    +0.019 A 
ATOM     11  C   LIG    1        3.480   1.586  -1.032  0.00  0.00    +0.098 A 
ENDROOT
BRANCH   9  12
ATOM     12  C   LIG    1        4.809  -0.093   0.174  0.00  0.00    +0.017 A 
ATOM     13  C   LIG    1        4.815  -1.239   0.975  0.00  0.00    +0.011 A 
ATOM     14  C   LIG    1        5.976  -1.827   1.415  0.00  0.00    +0.001 A 
ATOM     15  C   LIG    1        7.189  -1.266   1.052  0.00  0.00    +0.000 A 
ATOM     16  C   LIG    1        7.228  -0.134   0.261  0.00  0.00    +0.001 A 
ATOM     17  C   LIG    1        6.014   0.424  -0.158  0.00  0.00    +0.011 A 
ENDBRANCH   9  12
BRANCH   6  18
ATOM     18  O   LIG    1       -2.327  -0.541   0.314  0.00  0.00    -0.481 OA
BRANCH  18  19
ATOM     19  C   LIG    1       -3.574  -0.040  -0.067  0.00  0.00    +0.349 C 
BRANCH  19  20
ATOM     20  C   LIG    1       -4.712  -0.797   0.436  0.00  0.00    +0.345 C 
ATOM     21  O   LIG    1       -4.519  -1.810   1.151  0.00  0.00    -0.247 OA
BRANCH  20  22
ATOM     22  O   LIG    1       -6.021  -0.449   0.161  0.00  0.00    -0.463 OA
BRANCH  22  23
ATOM     23  C   LIG    1       -7.134  -1.181   0.647  0.00  0.00    +0.229 C 
ATOM     24  C   LIG    1       -8.382  -0.498   0.138  0.00  0.00    +0.048 C 
ENDBRANCH  22  23
ENDBRANCH  20  22
ENDBRANCH  19  20
ENDBRANCH  18  19
ENDBRANCH   6  18
TORSDOF 6
