REMARK  Name = molecules/ZVXNYZWXUADSRV-UHFFFAOYSA-N.pdb
REMARK                            x       y       z     vdW  Elec       q    Type
REMARK                         _______ _______ _______ _____ _____    ______ ____
ROOT
ATOM      1  C   LIG    1       -0.574   1.331  -2.735  0.00  0.00    +0.000 C 
ENDROOT
BRANCH   1   2
ATOM      2  C   LIG    1       -1.331   0.260  -1.993  0.00  0.00    +0.000 C 
BRANCH   2   3
ATOM      3  C   LIG    1       -1.125  -1.106  -2.522  0.00  0.00    +0.000 C 
BRANCH   3   4
ATOM      4  C   LIG    1       -1.926  -2.100  -1.719  0.00  0.00    +0.002 C 
BRANCH   4   5
ATOM      5  C   LIG    1       -1.500  -2.093  -0.283  0.00  0.00    +0.019 C 
BRANCH   5   6
ATOM      6  C   LIG    1       -2.305  -3.125   0.470  0.00  0.00    +0.105 C 
BRANCH   6   7
ATOM      7  N   LIG    1       -3.699  -2.796   0.383  0.00  0.00    -0.327 N 
ATOM      8  C   LIG    1       -4.250  -1.994   1.303  0.00  0.00    +0.122 C 
ATOM      9  C   LIG    1       -5.591  -1.657   1.271  0.00  0.00    +0.022 C 
ATOM     10  C   LIG    1       -6.375  -2.174   0.250  0.00  0.00    +0.047 C 
ATOM     11  C   LIG    1       -5.793  -2.996  -0.687  0.00  0.00    +0.039 C 
ATOM     12  C   LIG    1       -4.449  -3.295  -0.601  0.00  0.00    +0.072 C 
BRANCH  10  13
ATOM     13  N   LIG    1       -7.620  -1.846   0.243  0.00  0.00    -0.251 NA
BRANCH  13  14
ATOM     14  C   LIG    1       -8.469  -2.359  -0.798  0.00  0.00    +0.128 C 
BRANCH  14  15
ATOM     15  C   LIG    1       -9.829  -1.693  -0.790  0.00  0.00    +0.021 C 
BRANCH  15  16
ATOM     16  C   LIG    1       -9.704  -0.199  -0.999  0.00  0.00    +0.002 C 
BRANCH  16  17
ATOM     17  C   LIG    1      -11.077   0.421  -0.989  0.00  0.00    +0.000 C 
BRANCH  17  18
ATOM     18  C   LIG    1      -11.835   0.215   0.286  0.00  0.00    -0.000 C 
BRANCH  18  19
ATOM     19  C   LIG    1      -11.095   0.814   1.443  0.00  0.00    -0.000 C 
BRANCH  19  20
ATOM     20  C   LIG    1      -10.875   2.304   1.280  0.00  0.00    -0.003 C 
ATOM     21  C   LIG    1      -12.163   3.068   1.161  0.00  0.00    +0.004 C 
ENDBRANCH  19  20
ENDBRANCH  18  19
ENDBRANCH  17  18
ENDBRANCH  16  17
ENDBRANCH  15  16
ENDBRANCH  14  15
ENDBRANCH  13  14
ENDBRANCH  10  13
ENDBRANCH   6   7
ENDBRANCH   5   6
ENDBRANCH   4   5
ENDBRANCH   3   4
ENDBRANCH   2   3
ENDBRANCH   1   2
BRANCH   1  22
ATOM     22  C   LIG    1        0.915   1.124  -2.699  0.00  0.00    +0.000 C 
BRANCH  22  23
ATOM     23  C   LIG    1        1.445   1.115  -1.280  0.00  0.00    +0.002 C 
BRANCH  23  24
ATOM     24  C   LIG    1        1.174   2.390  -0.553  0.00  0.00    +0.021 C 
BRANCH  24  25
ATOM     25  C   LIG    1        1.721   2.266   0.850  0.00  0.00    +0.121 C 
BRANCH  25  26
ATOM     26  N   LIG    1        3.150   2.022   0.890  0.00  0.00    -0.353 N 
ATOM     27  C   LIG    1        3.972   3.084   0.941  0.00  0.00    +0.087 A 
ATOM     28  C   LIG    1        5.326   2.896   0.987  0.00  0.00    +0.045 A 
ATOM     29  C   LIG    1        5.885   1.635   0.982  0.00  0.00    +0.061 A 
ATOM     30  N   LIG    1        7.190   1.498   1.036  0.00  0.00    -0.284 NA
ATOM     31  C   LIG    1        5.039   0.548   0.929  0.00  0.00    +0.045 A 
ATOM     32  C   LIG    1        3.661   0.772   0.883  0.00  0.00    +0.087 A 
BRANCH  30  33
ATOM     33  C   LIG    1        7.845   0.230   1.034  0.00  0.00    +0.142 C 
BRANCH  33  34
ATOM     34  C   LIG    1        9.229   0.350   1.663  0.00  0.00    +0.023 C 
BRANCH  34  35
ATOM     35  C   LIG    1       10.029   1.353   0.850  0.00  0.00    +0.002 C 
BRANCH  35  36
ATOM     36  C   LIG    1       11.411   1.545   1.396  0.00  0.00    +0.000 C 
BRANCH  36  37
ATOM     37  C   LIG    1       12.241   0.295   1.419  0.00  0.00    -0.000 C 
BRANCH  37  38
ATOM     38  C   LIG    1       12.431  -0.295   0.039  0.00  0.00    -0.000 C 
BRANCH  38  39
ATOM     39  C   LIG    1       13.276  -1.539   0.186  0.00  0.00    -0.003 C 
ATOM     40  C   LIG    1       13.519  -2.193  -1.161  0.00  0.00    +0.004 C 
ENDBRANCH  38  39
ENDBRANCH  37  38
ENDBRANCH  36  37
ENDBRANCH  35  36
ENDBRANCH  34  35
ENDBRANCH  33  34
ENDBRANCH  30  33
ENDBRANCH  25  26
ENDBRANCH  24  25
ENDBRANCH  23  24
ENDBRANCH  22  23
ENDBRANCH   1  22
TORSDOF 26
