REMARK  Name = molecules/ZWAOHEXOSAUJHY-ZIYNGMLESA-N.pdb
REMARK                            x       y       z     vdW  Elec       q    Type
REMARK                         _______ _______ _______ _____ _____    ______ ____
ROOT
ATOM      1  C   LIG    1       -0.551   0.560  -1.193  0.00  0.00    +0.195 C 
ATOM      2  C   LIG    1       -0.003   0.617   0.193  0.00  0.00    +0.255 C 
ATOM      3  O   LIG    1       -1.006   0.090   0.972  0.00  0.00    -0.348 OA
ATOM      4  C   LIG    1       -2.217   0.398   0.424  0.00  0.00    +0.149 C 
ATOM      5  C   LIG    1       -3.072  -0.851   0.220  0.00  0.00    +0.041 C 
ATOM      6  C   LIG    1       -1.981   0.997  -0.943  0.00  0.00    +0.176 C 
ENDROOT
BRANCH   2   7
ATOM      7  N   LIG    1        1.252  -0.044   0.370  0.00  0.00    -0.269 N 
ATOM      8  C   LIG    1        1.641  -0.344   1.623  0.00  0.00    +0.332 A 
ATOM      9  O   LIG    1        0.894  -0.035   2.594  0.00  0.00    -0.246 OA
ATOM     10  N   LIG    1        2.824  -0.974   1.877  0.00  0.00    -0.273 N 
ATOM     11  H   LIG    1        3.122  -1.205   2.853  0.00  0.00    +0.174 HD
ATOM     12  C   LIG    1        3.662  -1.328   0.891  0.00  0.00    +0.289 A 
ATOM     13  O   LIG    1        4.755  -1.910   1.120  0.00  0.00    -0.265 OA
ATOM     14  C   LIG    1        3.283  -1.031  -0.400  0.00  0.00    +0.204 A 
ATOM     15  F   LIG    1        4.081  -1.360  -1.444  0.00  0.00    -0.198 F 
ATOM     16  C   LIG    1        2.066  -0.384  -0.643  0.00  0.00    +0.137 A 
ENDBRANCH   2   7
BRANCH   1  17
ATOM     17  O   LIG    1        0.075   1.429  -2.080  0.00  0.00    -0.385 OA
ATOM     18  H   LIG    1        0.070   0.953  -2.971  0.00  0.00    +0.210 HD
ENDBRANCH   1  17
BRANCH   6  19
ATOM     19  O   LIG    1       -1.978   2.389  -0.870  0.00  0.00    -0.387 OA
ATOM     20  H   LIG    1       -2.857   2.761  -0.612  0.00  0.00    +0.210 HD
ENDBRANCH   6  19
TORSDOF 3
