REMARK  Name = molecules/ZWIAODBBEZGVPY-UHFFFAOYSA-N.pdb
REMARK                            x       y       z     vdW  Elec       q    Type
REMARK                         _______ _______ _______ _____ _____    ______ ____
ROOT
ATOM      1  N   LIG    1       -0.955  -1.086  -0.616  0.00  0.00    -0.321 N 
ATOM      2  C   LIG    1       -2.083  -0.377  -0.438  0.00  0.00    +0.152 A 
ATOM      3  C   LIG    1       -2.389   0.949  -0.162  0.00  0.00    +0.282 A 
ATOM      4  O   LIG    1       -1.419   1.749  -0.033  0.00  0.00    -0.265 OA
ATOM      5  N   LIG    1       -3.664   1.383  -0.034  0.00  0.00    -0.262 N 
ATOM      6  C   LIG    1       -3.876   2.789   0.254  0.00  0.00    +0.157 C 
ATOM      7  C   LIG    1       -4.661   0.494  -0.180  0.00  0.00    +0.333 A 
ATOM      8  O   LIG    1       -5.830   0.906  -0.059  0.00  0.00    -0.246 OA
ATOM      9  N   LIG    1       -4.449  -0.804  -0.446  0.00  0.00    -0.280 N 
ATOM     10  C   LIG    1       -5.599  -1.677  -0.584  0.00  0.00    +0.155 C 
ATOM     11  C   LIG    1       -3.182  -1.233  -0.573  0.00  0.00    +0.168 A 
ATOM     12  N   LIG    1       -2.664  -2.448  -0.833  0.00  0.00    -0.218 NA
ATOM     13  C   LIG    1       -1.329  -2.344  -0.855  0.00  0.00    +0.202 A 
ENDROOT
BRANCH   1  14
ATOM     14  C   LIG    1        0.402  -0.537  -0.550  0.00  0.00    +0.164 C 
BRANCH  14  15
ATOM     15  C   LIG    1        0.958  -0.599   0.834  0.00  0.00    +0.254 C 
BRANCH  15  16
ATOM     16  O   LIG    1        2.252  -0.061   0.848  0.00  0.00    -0.459 OA
BRANCH  16  17
ATOM     17  C   LIG    1        3.265  -0.620   0.104  0.00  0.00    +0.341 C 
ATOM     18  O   LIG    1        3.079  -1.630  -0.613  0.00  0.00    -0.245 OA
BRANCH  17  19
ATOM     19  C   LIG    1        4.632  -0.057   0.109  0.00  0.00    +0.077 A 
ATOM     20  C   LIG    1        4.891   1.042   0.871  0.00  0.00    +0.018 A 
ATOM     21  C   LIG    1        6.160   1.584   0.891  0.00  0.00    +0.020 A 
ATOM     22  C   LIG    1        7.175   1.021   0.143  0.00  0.00    +0.111 A 
ATOM     23  N   LIG    1        6.883  -0.060  -0.594  0.00  0.00    -0.262 NA
ATOM     24  C   LIG    1        5.648  -0.614  -0.634  0.00  0.00    +0.125 A 
ENDBRANCH  17  19
ENDBRANCH  16  17
ENDBRANCH  15  16
ENDBRANCH  14  15
ENDBRANCH   1  14
TORSDOF 5
