REMARK  Name = molecules/ZWPRRQZNBDYKLH-VIFPVBQESA-N.pdb
REMARK                            x       y       z     vdW  Elec       q    Type
REMARK                         _______ _______ _______ _____ _____    ______ ____
ROOT
ATOM      1  C   LIG    1        5.548   0.252  -0.727  0.00  0.00    +0.151 A 
ATOM      2  N   LIG    1        5.987  -0.989  -0.478  0.00  0.00    -0.220 NA
ATOM      3  C   LIG    1        5.160  -1.923  -0.029  0.00  0.00    +0.235 A 
ATOM      4  N   LIG    1        3.851  -1.694   0.204  0.00  0.00    -0.227 NA
ATOM      5  C   LIG    1        3.401  -0.458  -0.040  0.00  0.00    +0.066 A 
ATOM      6  C   LIG    1        1.934  -0.240   0.251  0.00  0.00    +0.163 C 
ATOM      7  N   LIG    1        1.550   1.131   0.222  0.00  0.00    -0.295 N 
ATOM      8  C   LIG    1        0.217   1.427   0.704  0.00  0.00    +0.217 C 
ATOM      9  O   LIG    1       -0.150   2.656   0.447  0.00  0.00    -0.276 OA
ATOM     10  C   LIG    1        2.431   2.220  -0.119  0.00  0.00    +0.113 C 
ATOM     11  C   LIG    1        3.663   1.844  -0.805  0.00  0.00    +0.058 C 
ATOM     12  C   LIG    1        4.199   0.526  -0.499  0.00  0.00    +0.007 A 
ENDROOT
BRANCH   1  13
ATOM     13  C   LIG    1        6.461   1.330  -1.206  0.00  0.00    +0.435 C 
ATOM     14  F   LIG    1        6.633   2.246  -0.166  0.00  0.00    -0.164 F 
ATOM     15  F   LIG    1        7.715   0.761  -1.395  0.00  0.00    -0.164 F 
ATOM     16  F   LIG    1        6.029   1.871  -2.365  0.00  0.00    -0.164 F 
ENDBRANCH   1  13
BRANCH   3  17
ATOM     17  C   LIG    1        5.732  -3.274   0.218  0.00  0.00    +0.452 C 
ATOM     18  F   LIG    1        6.636  -3.302   1.254  0.00  0.00    -0.163 F 
ATOM     19  F   LIG    1        4.704  -4.191   0.461  0.00  0.00    -0.163 F 
ATOM     20  F   LIG    1        6.379  -3.695  -0.916  0.00  0.00    -0.163 F 
ENDBRANCH   3  17
BRANCH   8  21
ATOM     21  C   LIG    1       -0.651   0.546   1.417  0.00  0.00    +0.116 C 
BRANCH  21  22
ATOM     22  C   LIG    1       -1.895  -0.010   0.845  0.00  0.00    +0.077 C 
BRANCH  22  23
ATOM     23  N   LIG    1       -1.586  -0.997  -0.129  0.00  0.00    -0.326 NA
ATOM     24  H   LIG    1       -1.393  -1.930   0.199  0.00  0.00    +0.119 HD
ATOM     25  H   LIG    1       -1.365  -0.696  -1.064  0.00  0.00    +0.119 HD
ENDBRANCH  22  23
BRANCH  22  26
ATOM     26  C   LIG    1       -2.924   0.979   0.363  0.00  0.00    +0.126 C 
BRANCH  26  27
ATOM     27  N   LIG    1       -4.105   0.290  -0.036  0.00  0.00    -0.294 N 
ATOM     28  C   LIG    1       -5.219   0.120   0.949  0.00  0.00    +0.183 C 
ATOM     29  C   LIG    1       -6.479   0.200   0.143  0.00  0.00    +0.265 C 
ATOM     30  F   LIG    1       -7.586   0.177   0.959  0.00  0.00    -0.204 F 
ATOM     31  F   LIG    1       -6.451   1.401  -0.560  0.00  0.00    -0.204 F 
ATOM     32  C   LIG    1       -6.607  -0.949  -0.847  0.00  0.00    +0.086 C 
ATOM     33  C   LIG    1       -5.289  -1.396  -1.395  0.00  0.00    +0.102 C 
ATOM     34  C   LIG    1       -4.333  -0.238  -1.311  0.00  0.00    +0.216 C 
ATOM     35  O   LIG    1       -3.752   0.263  -2.296  0.00  0.00    -0.276 OA
ENDBRANCH  26  27
ENDBRANCH  22  26
ENDBRANCH  21  22
ENDBRANCH   8  21
TORSDOF 7
