REMARK  Name = molecules/ZXVNMYWKKDOREA-UHFFFAOYSA-N.pdb
REMARK                            x       y       z     vdW  Elec       q    Type
REMARK                         _______ _______ _______ _____ _____    ______ ____
ROOT
ATOM      1  C   LIG    1       -0.264  -1.130  -0.241  0.00  0.00    +0.093 A 
ATOM      2  N   LIG    1       -1.224  -0.467   0.433  0.00  0.00    -0.344 N 
ATOM      3  C   LIG    1       -1.266  -0.029   1.824  0.00  0.00    +0.149 C 
ATOM      4  C   LIG    1       -2.237  -0.261  -0.439  0.00  0.00    +0.030 A 
ATOM      5  C   LIG    1       -1.904  -0.803  -1.673  0.00  0.00    +0.027 A 
ATOM      6  C   LIG    1       -0.648  -1.356  -1.543  0.00  0.00    -0.022 A 
ATOM      7  C   LIG    1        0.107  -2.049  -2.629  0.00  0.00    +0.046 C 
ENDROOT
BRANCH   1   8
ATOM      8  C   LIG    1        1.015  -1.518   0.338  0.00  0.00    +0.210 C 
ATOM      9  O   LIG    1        1.184  -2.715   0.668  0.00  0.00    -0.285 OA
BRANCH   8  10
ATOM     10  C   LIG    1        2.062  -0.532   0.519  0.00  0.00    +0.024 A 
ATOM     11  C   LIG    1        3.371  -0.951   0.696  0.00  0.00    +0.013 A 
ATOM     12  C   LIG    1        4.404  -0.081   0.848  0.00  0.00    +0.021 A 
ATOM     13  C   LIG    1        4.155   1.289   0.829  0.00  0.00    +0.041 A 
ATOM     14 CL   LIG    1        5.489   2.412   1.024  0.00  0.00    -0.084 Cl
ATOM     15  C   LIG    1        2.862   1.732   0.654  0.00  0.00    +0.021 A 
ATOM     16  C   LIG    1        1.827   0.809   0.502  0.00  0.00    +0.013 A 
ENDBRANCH   8  10
ENDBRANCH   1   8
BRANCH   4  17
ATOM     17  C   LIG    1       -3.506   0.430  -0.122  0.00  0.00    +0.173 C 
BRANCH  17  18
ATOM     18  C   LIG    1       -3.325   1.904  -0.329  0.00  0.00    +0.311 C 
ATOM     19  O   LIG    1       -2.204   2.358  -0.717  0.00  0.00    -0.251 OA
BRANCH  18  20
ATOM     20  O   LIG    1       -4.353   2.785  -0.106  0.00  0.00    -0.480 OA
ATOM     21  H   LIG    1       -4.528   3.593  -0.682  0.00  0.00    +0.295 HD
ENDBRANCH  18  20
ENDBRANCH  17  18
ENDBRANCH   4  17
TORSDOF 5
