REMARK  Name = molecules/ZYEPZINLLPPBMI-GOSISDBHSA-N.pdb
REMARK                            x       y       z     vdW  Elec       q    Type
REMARK                         _______ _______ _______ _____ _____    ______ ____
ROOT
ATOM      1  C   LIG    1       -1.290  -0.100   0.053  0.00  0.00    -0.013 C 
ATOM      2  C   LIG    1       -0.029  -0.446  -0.139  0.00  0.00    -0.076 C 
ATOM      3  C   LIG    1        0.516  -1.797   0.138  0.00  0.00    +0.012 C 
ATOM      4  C   LIG    1        1.883  -1.759  -0.508  0.00  0.00    -0.070 C 
ATOM      5  N   LIG    1        2.307  -0.383  -0.350  0.00  0.00    +0.384 N 
ATOM      6  C   LIG    1        1.090   0.349  -0.617  0.00  0.00    -0.041 C 
ATOM      7  C   LIG    1        1.158   1.772  -0.148  0.00  0.00    -0.008 C 
ENDROOT
BRANCH   1  10
ATOM      8  C   LIG    1       -2.915   3.301   0.382  0.00  0.00    +0.001 A 
ATOM      9  C   LIG    1       -2.470   2.018   0.692  0.00  0.00    +0.008 A 
ATOM     10  C   LIG    1       -1.807   1.228  -0.198  0.00  0.00    -0.017 A 
ATOM     11  C   LIG    1       -1.592   1.782  -1.467  0.00  0.00    +0.008 A 
ATOM     12  C   LIG    1       -2.020   3.050  -1.807  0.00  0.00    +0.001 A 
ATOM     13  C   LIG    1       -2.685   3.805  -0.868  0.00  0.00    +0.000 A 
ENDBRANCH   1  10
BRANCH   1  14
ATOM     14  C   LIG    1       -2.275  -1.135   0.443  0.00  0.00    -0.017 A 
ATOM     15  C   LIG    1       -2.956  -1.164   1.624  0.00  0.00    +0.008 A 
ATOM     16  C   LIG    1       -3.912  -2.153   1.900  0.00  0.00    +0.001 A 
ATOM     17  C   LIG    1       -4.153  -3.111   0.944  0.00  0.00    +0.000 A 
ATOM     18  C   LIG    1       -3.472  -3.093  -0.250  0.00  0.00    +0.001 A 
ATOM     19  C   LIG    1       -2.536  -2.121  -0.518  0.00  0.00    +0.008 A 
ENDBRANCH   1  14
BRANCH   5  20
ATOM     20  C   LIG    1        2.912  -0.198   0.896  0.00  0.00    -0.078 C 
ATOM     21  C   LIG    1        2.112   0.116   2.081  0.00  0.00    -0.016 C 
ENDBRANCH   5  20
BRANCH   5  22
ATOM     22  C   LIG    1        3.232  -0.097  -1.415  0.00  0.00    -0.078 C 
ATOM     23  C   LIG    1        4.667  -0.125  -1.033  0.00  0.00    -0.016 C 
ENDBRANCH   5  22
TORSDOF 4
