REMARK  Name = molecules/ZYGHJZDHTFUPRJ-UHFFFAOYSA-N.pdb
REMARK                            x       y       z     vdW  Elec       q    Type
REMARK                         _______ _______ _______ _____ _____    ______ ____
ROOT
ATOM      1  O   LIG    1        3.342  -1.662  -0.430  0.00  0.00    -0.245 OA
ATOM      2  C   LIG    1        2.316  -0.949  -0.239  0.00  0.00    +0.337 A 
ATOM      3  C   LIG    1        2.505   0.360   0.148  0.00  0.00    +0.092 A 
ATOM      4  C   LIG    1        1.373   1.122   0.352  0.00  0.00    +0.018 A 
ATOM      5  C   LIG    1        0.126   0.542   0.161  0.00  0.00    +0.018 A 
ATOM      6  C   LIG    1       -1.042   1.252   0.349  0.00  0.00    +0.011 A 
ATOM      7  C   LIG    1       -2.280   0.676   0.160  0.00  0.00    +0.001 A 
ATOM      8  C   LIG    1       -2.394  -0.642  -0.228  0.00  0.00    +0.004 A 
ATOM      9  C   LIG    1       -1.236  -1.357  -0.418  0.00  0.00    +0.047 A 
ATOM     10  C   LIG    1        0.006  -0.777  -0.227  0.00  0.00    +0.139 A 
ATOM     11  O   LIG    1        1.117  -1.468  -0.411  0.00  0.00    -0.422 OA
ENDROOT
TORSDOF 0
