REMARK  Name = molecules/ZYPGADGCNXOUJP-CXVPHVKISA-N.pdb
REMARK                            x       y       z     vdW  Elec       q    Type
REMARK                         _______ _______ _______ _____ _____    ______ ____
ROOT
ATOM      1  C   LIG    1        1.080  -0.166   1.061  0.00  0.00    +0.000 C 
ATOM      2  C   LIG    1        0.149  -0.239   0.128  0.00  0.00    +0.003 C 
ENDROOT
BRANCH   2   3
ATOM      3  C   LIG    1       -1.246  -0.279   0.494  0.00  0.00    -0.052 C 
ATOM      4  C   LIG    1       -1.636  -0.237   1.914  0.00  0.00    +0.043 C 
ATOM      5  C   LIG    1       -2.167  -0.351  -0.435  0.00  0.00    +0.007 C 
BRANCH   5   6
ATOM      6  C   LIG    1       -3.592  -0.391  -0.042  0.00  0.00    +0.138 C 
BRANCH   6   7
ATOM      7  O   LIG    1       -3.954  -1.548   0.619  0.00  0.00    -0.388 OA
ATOM      8  H   LIG    1       -3.181  -2.163   0.692  0.00  0.00    +0.210 HD
ENDBRANCH   6   7
BRANCH   6   9
ATOM      9  C   LIG    1       -4.471  -0.284  -1.274  0.00  0.00    +0.035 C 
BRANCH   9  10
ATOM     10  C   LIG    1       -5.900  -0.328  -0.844  0.00  0.00    +0.003 C 
BRANCH  10  11
ATOM     11  C   LIG    1       -6.270   0.789   0.091  0.00  0.00    -0.003 C 
ATOM     12  C   LIG    1       -6.027   2.105  -0.621  0.00  0.00    +0.004 C 
ENDBRANCH  10  11
ENDBRANCH   9  10
ENDBRANCH   6   9
ENDBRANCH   5   6
ENDBRANCH   2   3
BRANCH   1  14
ATOM     13  C   LIG    1        3.412  -0.050   1.689  0.00  0.00    +0.068 C 
ATOM     14  C   LIG    1        2.504  -0.123   0.749  0.00  0.00    +0.005 C 
BRANCH  13  15
ATOM     15  C   LIG    1        4.831  -0.001   1.569  0.00  0.00    +0.246 C 
ATOM     16  O   LIG    1        5.463   0.086   2.700  0.00  0.00    -0.270 OA
ATOM     17  N   LIG    1        5.584  -0.036   0.386  0.00  0.00    -0.239 N 
ATOM     18  C   LIG    1        7.052   0.079   0.373  0.00  0.00    +0.222 C 
ATOM     19  O   LIG    1        7.791  -0.230   1.325  0.00  0.00    -0.275 OA
ATOM     20  C   LIG    1        7.383   0.624  -0.981  0.00  0.00    +0.098 C 
ATOM     21  C   LIG    1        6.424  -0.197  -1.800  0.00  0.00    +0.029 C 
ATOM     22  C   LIG    1        5.154  -0.160  -0.970  0.00  0.00    +0.117 C 
ENDBRANCH  13  15
ENDBRANCH   1  14
TORSDOF 8
