REMARK  Name = molecules/ZYVXHFWBYUDDBM-UHFFFAOYSA-N.pdb
REMARK                            x       y       z     vdW  Elec       q    Type
REMARK                         _______ _______ _______ _____ _____    ______ ____
ROOT
ATOM      1  C   LIG    1        0.487  -0.400  -0.118  0.00  0.00    +0.055 A 
ATOM      2  C   LIG    1        1.299  -1.519   0.025  0.00  0.00    +0.123 A 
ATOM      3  N   LIG    1        2.639  -1.454  -0.062  0.00  0.00    -0.263 NA
ATOM      4  C   LIG    1        3.282  -0.305  -0.292  0.00  0.00    +0.111 A 
ATOM      5  C   LIG    1        2.516   0.828  -0.440  0.00  0.00    +0.020 A 
ATOM      6  C   LIG    1        1.130   0.791  -0.356  0.00  0.00    +0.016 A 
ENDROOT
BRANCH   1   7
ATOM      7  C   LIG    1       -0.969  -0.525  -0.015  0.00  0.00    +0.245 C 
ATOM      8  O   LIG    1       -1.450  -1.672   0.205  0.00  0.00    -0.270 OA
ATOM      9  N   LIG    1       -1.851   0.558  -0.149  0.00  0.00    -0.314 N 
ATOM     10  C   LIG    1       -3.277   0.376  -0.038  0.00  0.00    +0.128 C 
ATOM     11  H   LIG    1       -1.468   1.503  -0.330  0.00  0.00    +0.149 HD
ENDBRANCH   1   7
TORSDOF 1
