REMARK  Name = molecules/ZZHLYYDVIOPZBE-AWEZNQCLSA-N.pdb
REMARK                            x       y       z     vdW  Elec       q    Type
REMARK                         _______ _______ _______ _____ _____    ______ ____
ROOT
ATOM      1  N   LIG    1       -1.066   0.104  -0.448  0.00  0.00    -0.298 N 
ATOM      2  C   LIG    1       -1.807  -1.062  -0.256  0.00  0.00    +0.048 A 
ATOM      3  C   LIG    1       -3.149  -1.108   0.037  0.00  0.00    +0.034 A 
ATOM      4  S   LIG    1       -4.061   0.406   0.224  0.00  0.00    -0.086 S 
ATOM      5  C   LIG    1       -2.920   1.713  -0.091  0.00  0.00    +0.034 C 
ATOM      6  C   LIG    1       -3.408   2.986  -0.030  0.00  0.00    +0.013 C 
ATOM      7  C   LIG    1       -2.585   4.093  -0.249  0.00  0.00    -0.017 C 
ATOM      8  C   LIG    1       -1.275   3.805  -0.525  0.00  0.00    +0.047 C 
ATOM      9  C   LIG    1       -0.801   2.508  -0.582  0.00  0.00    +0.006 C 
ATOM     10  C   LIG    1       -3.879  -2.261   0.199  0.00  0.00    +0.017 A 
ATOM     11  C   LIG    1       -3.262  -3.476   0.066  0.00  0.00    +0.001 A 
ATOM     12  C   LIG    1       -1.926  -3.514  -0.226  0.00  0.00    +0.002 A 
ATOM     13  C   LIG    1       -1.212  -2.326  -0.385  0.00  0.00    +0.024 A 
ATOM     14  C   LIG    1       -1.617   1.424  -0.365  0.00  0.00    +0.044 C 
ENDROOT
BRANCH   1  15
ATOM     15  C   LIG    1        0.394   0.062  -0.711  0.00  0.00    +0.115 C 
BRANCH  15  17
ATOM     16  C   LIG    1        0.784  -0.805   1.628  0.00  0.00    +0.010 C 
ATOM     17  C   LIG    1        1.085   0.259   0.598  0.00  0.00    +0.018 C 
BRANCH  17  18
ATOM     18  C   LIG    1        2.547   0.534   0.528  0.00  0.00    +0.088 C 
BRANCH  18  19
ATOM     19  N   LIG    1        3.381  -0.566   0.192  0.00  0.00    -0.308 NA
ATOM     20  C   LIG    1        4.750  -0.305   0.569  0.00  0.00    +0.104 C 
ATOM     21  C   LIG    1        3.256  -0.961  -1.177  0.00  0.00    +0.104 C 
ENDBRANCH  18  19
ENDBRANCH  17  18
ENDBRANCH  15  17
ENDBRANCH   1  15
TORSDOF 4
