REMARK  Name = molecules/ZZQMUJGZCZTLQD-UHFFFAOYSA-N.pdb
REMARK                            x       y       z     vdW  Elec       q    Type
REMARK                         _______ _______ _______ _____ _____    ______ ____
ROOT
ATOM      1  N   LIG    1        1.754  -0.516   0.580  0.00  0.00    -0.186 N 
ATOM      2  H   LIG    1        1.675  -1.438   1.060  0.00  0.00    +0.271 HD
ENDROOT
BRANCH   1   3
ATOM      3  C   LIG    1        2.954   0.232   0.504  0.00  0.00    +0.388 C 
ATOM      4  N   LIG    1        3.344   0.652  -0.644  0.00  0.00    -0.129 NA
ATOM      5  H   LIG    1        4.229   1.216  -0.773  0.00  0.00    +0.306 HD
BRANCH   3   6
ATOM      6  N   LIG    1        3.667   0.481   1.698  0.00  0.00    -0.272 N 
ATOM      7  H   LIG    1        3.372   1.258   2.320  0.00  0.00    +0.258 HD
BRANCH   6   8
ATOM      8  C   LIG    1        4.799  -0.342   2.052  0.00  0.00    +0.231 C 
BRANCH   8  11
ATOM      9  C   LIG    1        7.641   0.972  -0.012  0.00  0.00    +0.022 A 
ATOM     10  C   LIG    1        6.692   0.829   1.009  0.00  0.00    +0.008 A 
ATOM     11  C   LIG    1        5.793  -0.212   0.964  0.00  0.00    -0.013 A 
ATOM     12  C   LIG    1        5.839  -1.095  -0.077  0.00  0.00    +0.028 A 
ATOM     13  C   LIG    1        6.769  -0.979  -1.104  0.00  0.00    +0.060 A 
ATOM     14 CL   LIG    1        6.836  -2.104  -2.442  0.00  0.00    -0.082 Cl
ATOM     15  C   LIG    1        7.674   0.070  -1.060  0.00  0.00    +0.059 A 
ATOM     16 CL   LIG    1        8.859   0.226  -2.357  0.00  0.00    -0.082 Cl
ENDBRANCH   8  11
ENDBRANCH   6   8
ENDBRANCH   3   6
ENDBRANCH   1   3
BRANCH   1  17
ATOM     17  C   LIG    1        0.608   0.080  -0.062  0.00  0.00    +0.388 C 
ATOM     18  N   LIG    1        0.274   1.266   0.276  0.00  0.00    -0.129 NA
ATOM     19  H   LIG    1       -0.507   1.828  -0.080  0.00  0.00    +0.306 HD
BRANCH  17  20
ATOM     20  N   LIG    1       -0.048  -0.729  -1.024  0.00  0.00    -0.276 N 
ATOM     21  H   LIG    1        0.193  -0.612  -2.021  0.00  0.00    +0.258 HD
BRANCH  20  22
ATOM     22  C   LIG    1       -1.031  -1.680  -0.527  0.00  0.00    +0.196 C 
BRANCH  22  23
ATOM     23  C   LIG    1       -2.205  -0.799  -0.003  0.00  0.00    +0.037 C 
BRANCH  23  24
ATOM     24  C   LIG    1       -2.672  -0.040  -1.181  0.00  0.00    +0.003 C 
BRANCH  24  25
ATOM     25  C   LIG    1       -3.764   0.925  -1.081  0.00  0.00    +0.000 C 
BRANCH  25  26
ATOM     26  C   LIG    1       -5.144   0.551  -0.753  0.00  0.00    -0.000 C 
BRANCH  26  27
ATOM     27  C   LIG    1       -5.386  -0.112   0.538  0.00  0.00    -0.000 C 
BRANCH  27  28
ATOM     28  C   LIG    1       -6.888  -0.349   0.781  0.00  0.00    -0.003 C 
ATOM     29  C   LIG    1       -7.639   0.959   0.787  0.00  0.00    +0.004 C 
ENDBRANCH  27  28
ENDBRANCH  26  27
ENDBRANCH  25  26
ENDBRANCH  24  25
ENDBRANCH  23  24
ENDBRANCH  22  23
ENDBRANCH  20  22
ENDBRANCH  17  20
ENDBRANCH   1  17
TORSDOF 13
