REMARK  Name = molecules/AAQOQKQBGPPFNS-UHFFFAOYSA-N.pdb
REMARK                            x       y       z     vdW  Elec       q    Type
REMARK                         _______ _______ _______ _____ _____    ______ ____
ROOT
ATOM      1  C   LIG    1       -1.272   0.222   0.669  0.00  0.00    -0.050 A 
ATOM      2  C   LIG    1       -2.286  -0.736   0.506  0.00  0.00    +0.019 A 
ATOM      3 BR   LIG    1       -1.988  -2.590   0.995  0.00  0.00    -0.050 Br
ATOM      4  C   LIG    1       -3.535  -0.349   0.101  0.00  0.00    +0.015 A 
ATOM      5  C   LIG    1       -3.870   0.952  -0.156  0.00  0.00    +0.001 A 
ATOM      6  C   LIG    1       -2.906   1.920  -0.005  0.00  0.00    +0.000 A 
ATOM      7  C   LIG    1       -1.597   1.538   0.404  0.00  0.00    +0.003 A 
ENDROOT
BRANCH   1   8
ATOM      8  C   LIG    1        0.026  -0.290   1.069  0.00  0.00    -0.039 C 
BRANCH   8   9
ATOM      9  N   LIG    1        1.060  -0.350   0.048  0.00  0.00    +0.379 N 
ATOM     10  C   LIG    1        0.829  -1.749  -0.503  0.00  0.00    -0.092 C 
ATOM     11  C   LIG    1        0.916   0.558  -0.998  0.00  0.00    -0.092 C 
BRANCH   9  12
ATOM     12  C   LIG    1        2.343  -0.458   0.666  0.00  0.00    -0.079 C 
ATOM     13  C   LIG    1        3.423   0.306  -0.067  0.00  0.00    -0.016 C 
ENDBRANCH   9  12
ENDBRANCH   8   9
ENDBRANCH   1   8
TORSDOF 3
