REMARK  Name = molecules/ABBQGOCHXSPKHJ-WUKNDPDISA-N.pdb
REMARK                            x       y       z     vdW  Elec       q    Type
REMARK                         _______ _______ _______ _____ _____    ______ ____
ROOT
ATOM      1  N   LIG    1       -0.139  -0.111   0.623  0.00  0.00    -0.149 NA
ATOM      2  N   LIG    1       -0.967   0.210  -0.263  0.00  0.00    -0.147 NA
ENDROOT
BRANCH   1   3
ATOM      3  C   LIG    1        1.260  -0.232   0.411  0.00  0.00    +0.086 A 
ATOM      4  C   LIG    1        1.990  -1.365   0.691  0.00  0.00    +0.031 A 
ATOM      5  C   LIG    1        3.347  -1.383   0.448  0.00  0.00    +0.030 A 
ATOM      6  C   LIG    1        4.001  -0.305  -0.066  0.00  0.00    +0.105 A 
ATOM      7  C   LIG    1        3.284   0.833  -0.351  0.00  0.00    +0.030 A 
ATOM      8  C   LIG    1        1.916   0.860  -0.110  0.00  0.00    +0.031 A 
BRANCH   6   9
ATOM      9  S   LIG    1        5.729  -0.360  -0.364  0.00  0.00    +0.056 S 
ATOM     10  O   LIG    1        6.102  -1.777  -0.678  0.00  0.00    -0.153 OA
ATOM     11  O   LIG    1        6.069   0.533  -1.517  0.00  0.00    -0.153 OA
BRANCH   9  12
ATOM     12  N   LIG    1        6.520   0.179   1.063  0.00  0.00    -0.204 NA
ATOM     13  H   LIG    1        6.031  -0.115   1.940  0.00  0.00    +0.144 HD
ATOM     14  H   LIG    1        6.709   1.214   1.047  0.00  0.00    +0.144 HD
ENDBRANCH   9  12
ENDBRANCH   6   9
ENDBRANCH   1   3
BRANCH   2  15
ATOM     15  C   LIG    1       -2.368   0.333  -0.055  0.00  0.00    +0.107 A 
ATOM     16  C   LIG    1       -2.898   1.125   0.953  0.00  0.00    +0.033 A 
ATOM     17  C   LIG    1       -4.262   1.222   1.128  0.00  0.00    +0.025 A 
ATOM     18  C   LIG    1       -5.072   0.508   0.270  0.00  0.00    +0.026 A 
ATOM     19  C   LIG    1       -4.547  -0.275  -0.726  0.00  0.00    +0.047 A 
ATOM     20  C   LIG    1       -3.177  -0.385  -0.918  0.00  0.00    +0.054 A 
BRANCH  18  21
ATOM     21  N   LIG    1       -6.478   0.605   0.447  0.00  0.00    -0.358 N 
ATOM     22  H   LIG    1       -6.910   0.736   1.367  0.00  0.00    +0.142 HD
ATOM     23  H   LIG    1       -7.090   0.540  -0.399  0.00  0.00    +0.142 HD
ENDBRANCH  18  21
BRANCH  20  24
ATOM     24  N   LIG    1       -2.620  -1.191  -1.944  0.00  0.00    -0.356 N 
ATOM     25  H   LIG    1       -3.110  -2.079  -2.185  0.00  0.00    +0.142 HD
ATOM     26  H   LIG    1       -1.754  -0.959  -2.476  0.00  0.00    +0.142 HD
ENDBRANCH  20  24
ENDBRANCH   2  15
TORSDOF 6
