REMARK  Name = molecules/ABJKIHHNDMEBNA-UHFFFAOYSA-N.pdb
REMARK                            x       y       z     vdW  Elec       q    Type
REMARK                         _______ _______ _______ _____ _____    ______ ____
ROOT
ATOM      1  C   LIG    1       -3.292  -0.232   0.119  0.00  0.00    +0.051 C 
ATOM      2  C   LIG    1       -1.867   0.177   0.160  0.00  0.00    +0.032 A 
ATOM      3  C   LIG    1       -1.445   1.435   0.526  0.00  0.00    +0.202 A 
ATOM      4  O   LIG    1       -0.159   1.743   0.545  0.00  0.00    -0.462 OA
ATOM      5  C   LIG    1        0.781   0.885   0.221  0.00  0.00    +0.138 A 
ATOM      6  C   LIG    1        2.121   1.217   0.244  0.00  0.00    +0.047 A 
ATOM      7  C   LIG    1        3.107   0.316  -0.096  0.00  0.00    +0.004 A 
ATOM      8  C   LIG    1        2.784  -0.970  -0.477  0.00  0.00    +0.001 A 
ATOM      9  C   LIG    1        1.445  -1.314  -0.503  0.00  0.00    +0.015 A 
ATOM     10  C   LIG    1        0.468  -0.409  -0.163  0.00  0.00    +0.064 A 
ATOM     11  C   LIG    1       -0.888  -0.735  -0.182  0.00  0.00    +0.195 A 
ATOM     12  O   LIG    1       -1.177  -1.913  -0.531  0.00  0.00    -0.287 OA
ENDROOT
TORSDOF 0
