REMARK  Name = molecules/ABQYZRZVRIPTPI-UHFFFAOYSA-N.pdb
REMARK                            x       y       z     vdW  Elec       q    Type
REMARK                         _______ _______ _______ _____ _____    ______ ____
ROOT
ATOM      1  N   LIG    1        0.737   1.257  -0.187  0.00  0.00    -0.189 N 
ATOM      2  C   LIG    1       -0.256   0.373   0.055  0.00  0.00    +0.095 A 
ATOM      3  C   LIG    1        0.020  -0.973   0.273  0.00  0.00    +0.053 A 
ATOM      4  C   LIG    1       -1.011  -1.862   0.519  0.00  0.00    +0.063 A 
ATOM      5  C   LIG    1       -2.329  -1.461   0.558  0.00  0.00    +0.167 A 
ATOM      6  O   LIG    1       -3.557  -2.070   0.770  0.00  0.00    -0.453 OA
ATOM      7  C   LIG    1       -4.602  -1.194   0.367  0.00  0.00    +0.466 C 
ATOM      8  O   LIG    1       -3.989   0.093   0.419  0.00  0.00    -0.453 OA
ATOM      9  C   LIG    1       -2.614  -0.126   0.343  0.00  0.00    +0.168 A 
ATOM     10  C   LIG    1        1.308  -1.440   0.249  0.00  0.00    +0.204 A 
ATOM     11  O   LIG    1        1.615  -2.645   0.439  0.00  0.00    -0.286 OA
ATOM     12  C   LIG    1        2.319  -0.534   0.001  0.00  0.00    +0.125 A 
ATOM     13  C   LIG    1       -1.593   0.767   0.096  0.00  0.00    +0.079 A 
ATOM     14  C   LIG    1        1.996   0.789  -0.209  0.00  0.00    +0.148 A 
ENDROOT
BRANCH   1  15
ATOM     15  O   LIG    1        0.397   2.551  -0.391  0.00  0.00    -0.415 OA
ATOM     16  C   LIG    1        1.247   3.592  -0.755  0.00  0.00    +0.311 C 
ENDBRANCH   1  15
BRANCH  12  17
ATOM     17  C   LIG    1        3.702  -1.009  -0.030  0.00  0.00    +0.342 C 
ATOM     18  O   LIG    1        4.599  -0.169  -0.256  0.00  0.00    -0.245 OA
BRANCH  17  19
ATOM     19  O   LIG    1        4.060  -2.311   0.174  0.00  0.00    -0.477 OA
ATOM     20  H   LIG    1        3.768  -3.111  -0.346  0.00  0.00    +0.295 HD
ENDBRANCH  17  19
ENDBRANCH  12  17
TORSDOF 3
