REMARK  Name = molecules/ACCMWZWAEFYUGZ-UHFFFAOYSA-N.pdb
REMARK                            x       y       z     vdW  Elec       q    Type
REMARK                         _______ _______ _______ _____ _____    ______ ____
ROOT
ATOM      1  C   LIG    1       -2.062  -1.228  -0.272  0.00  0.00    +0.058 C 
ATOM      2  C   LIG    1       -1.345  -1.584   1.021  0.00  0.00    +0.026 C 
ATOM      3  C   LIG    1       -0.243  -0.621   1.341  0.00  0.00    +0.085 C 
ATOM      4  N   LIG    1        0.297   0.096   0.279  0.00  0.00    -0.302 NA
ATOM      5  C   LIG    1       -0.423   0.436  -0.856  0.00  0.00    +0.085 C 
ATOM      6  C   LIG    1       -1.912   0.207  -0.627  0.00  0.00    +0.026 C 
ENDROOT
BRANCH   1  15
ATOM      7  N   LIG    1       -4.520  -1.337   0.270  0.00  0.00    -0.325 N 
ATOM      8  C   LIG    1       -5.562  -2.165  -0.066  0.00  0.00    +0.069 A 
ATOM      9  C   LIG    1       -6.904  -2.152   0.305  0.00  0.00    +0.028 A 
ATOM     10  C   LIG    1       -7.796  -3.097  -0.158  0.00  0.00    +0.002 A 
ATOM     11  C   LIG    1       -7.297  -4.055  -1.005  0.00  0.00    +0.002 A 
ATOM     12  C   LIG    1       -5.987  -4.092  -1.385  0.00  0.00    +0.030 A 
ATOM     13  C   LIG    1       -5.118  -3.134  -0.906  0.00  0.00    +0.089 A 
ATOM     14  N   LIG    1       -3.805  -2.894  -1.081  0.00  0.00    -0.232 NA
ATOM     15  C   LIG    1       -3.421  -1.791  -0.363  0.00  0.00    +0.114 A 
BRANCH   7  16
ATOM     16  C   LIG    1       -4.719  -0.204   1.123  0.00  0.00    +0.151 C 
BRANCH  16  17
ATOM     17  C   LIG    1       -5.193   1.009   0.360  0.00  0.00    +0.181 C 
BRANCH  17  18
ATOM     18  O   LIG    1       -5.359   2.080   1.259  0.00  0.00    -0.378 OA
BRANCH  18  19
ATOM     19  C   LIG    1       -5.799   3.210   0.572  0.00  0.00    +0.156 C 
ATOM     20  C   LIG    1       -7.108   2.977  -0.118  0.00  0.00    +0.034 C 
ENDBRANCH  18  19
ENDBRANCH  17  18
ENDBRANCH  16  17
ENDBRANCH   7  16
ENDBRANCH   1  15
BRANCH   4  21
ATOM     21  C   LIG    1        1.652   0.442   0.418  0.00  0.00    +0.089 C 
BRANCH  21  22
ATOM     22  C   LIG    1        2.489  -0.340  -0.572  0.00  0.00    +0.050 C 
BRANCH  22  23
ATOM     23  C   LIG    1        3.931  -0.008  -0.449  0.00  0.00    -0.046 A 
ATOM     24  C   LIG    1        4.717  -0.740   0.439  0.00  0.00    +0.004 A 
ATOM     25  C   LIG    1        6.057  -0.458   0.593  0.00  0.00    +0.005 A 
ATOM     26  C   LIG    1        6.656   0.572  -0.142  0.00  0.00    -0.031 A 
ATOM     27  C   LIG    1        5.883   1.294  -1.019  0.00  0.00    +0.005 A 
ATOM     28  C   LIG    1        4.526   1.001  -1.168  0.00  0.00    +0.004 A 
BRANCH  26  29
ATOM     29  C   LIG    1        8.094   0.889   0.019  0.00  0.00    +0.087 C 
ATOM     30  C   LIG    1        8.736  -0.157   0.916  0.00  0.00    +0.027 C 
ATOM     31  C   LIG    1        8.129   2.189   0.837  0.00  0.00    +0.027 C 
BRANCH  29  32
ATOM     32  C   LIG    1        8.819   1.079  -1.229  0.00  0.00    +0.315 C 
ATOM     33  O   LIG    1        9.784   0.309  -1.494  0.00  0.00    -0.250 OA
BRANCH  32  34
ATOM     34  O   LIG    1        8.520   2.056  -2.158  0.00  0.00    -0.480 OA
ATOM     35  H   LIG    1        8.750   3.034  -2.043  0.00  0.00    +0.295 HD
ENDBRANCH  32  34
ENDBRANCH  29  32
ENDBRANCH  26  29
ENDBRANCH  22  23
ENDBRANCH  21  22
ENDBRANCH   4  21
TORSDOF 11
