REMARK  Name = molecules/ACGDKVXYNVEAGU-UHFFFAOYSA-N.pdb
REMARK                            x       y       z     vdW  Elec       q    Type
REMARK                         _______ _______ _______ _____ _____    ______ ____
ROOT
ATOM      1  C   LIG    1        1.068  -0.724  -0.336  0.00  0.00    +0.121 C 
ENDROOT
BRANCH   1   2
ATOM      2  N   LIG    1       -0.039  -0.352   0.504  0.00  0.00    -0.299 NA
ATOM      3  C   LIG    1       -0.254   1.132   0.328  0.00  0.00    +0.084 C 
ATOM      4  C   LIG    1       -1.594   1.622   0.652  0.00  0.00    +0.015 C 
ATOM      5  C   LIG    1       -2.839   1.333  -0.109  0.00  0.00    +0.001 C 
ATOM      6  C   LIG    1       -3.632   0.150   0.301  0.00  0.00    +0.000 C 
ATOM      7  C   LIG    1       -3.495  -1.207  -0.267  0.00  0.00    +0.001 C 
ATOM      8  C   LIG    1       -2.148  -1.925   0.076  0.00  0.00    +0.015 C 
ATOM      9  C   LIG    1       -1.275  -0.811   0.169  0.00  0.00    +0.084 C 
ENDBRANCH   1   2
BRANCH   1  10
ATOM     10  C   LIG    1        2.332  -0.210   0.356  0.00  0.00    +0.211 C 
BRANCH  10  11
ATOM     11  N   LIG    1        3.522  -0.533  -0.394  0.00  0.00    -0.275 N 
ATOM     12  H   LIG    1        3.548  -1.040  -1.284  0.00  0.00    +0.258 HD
BRANCH  11  13
ATOM     13  C   LIG    1        4.746  -0.099   0.186  0.00  0.00    +0.376 C 
ATOM     14  N   LIG    1        4.818   1.123   0.910  0.00  0.00    -0.289 N 
ATOM     15  H   LIG    1        4.019   1.377   1.544  0.00  0.00    +0.255 HD
ATOM     16  H   LIG    1        5.617   1.782   0.846  0.00  0.00    +0.255 HD
BRANCH  13  17
ATOM     17  N   LIG    1        5.846  -0.791   0.089  0.00  0.00    -0.130 NA
ATOM     18  H   LIG    1        5.906  -1.704  -0.414  0.00  0.00    +0.306 HD
ENDBRANCH  13  17
ENDBRANCH  11  13
ENDBRANCH  10  11
ENDBRANCH   1  10
TORSDOF 5
