REMARK  Name = molecules/ACGUYXCXAPNIKK-UHFFFAOYSA-N.pdb
REMARK                            x       y       z     vdW  Elec       q    Type
REMARK                         _______ _______ _______ _____ _____    ______ ____
ROOT
ATOM      1  C   LIG    1       -0.029   1.409   0.310  0.00  0.00    +0.080 C 
ENDROOT
BRANCH   1   2
ATOM      2  C   LIG    1       -1.260   0.592   0.227  0.00  0.00    +0.020 A 
ATOM      3  C   LIG    1       -2.476   1.224   0.480  0.00  0.00    +0.066 A 
ATOM      4 CL   LIG    1       -2.514   2.912   0.875  0.00  0.00    -0.082 Cl
ATOM      5  C   LIG    1       -3.684   0.549   0.429  0.00  0.00    +0.061 A 
ATOM      6 CL   LIG    1       -5.210   1.344   0.747  0.00  0.00    -0.082 Cl
ATOM      7  C   LIG    1       -3.712  -0.794   0.121  0.00  0.00    +0.045 A 
ATOM      8  C   LIG    1       -2.523  -1.438  -0.133  0.00  0.00    +0.084 A 
ATOM      9 CL   LIG    1       -2.480  -3.135  -0.531  0.00  0.00    -0.080 Cl
ATOM     10  C   LIG    1       -1.312  -0.738  -0.077  0.00  0.00    +0.140 A 
BRANCH  10  11
ATOM     11  O   LIG    1       -0.130  -1.422  -0.339  0.00  0.00    -0.505 OA
ATOM     12  H   LIG    1       -0.150  -2.406  -0.564  0.00  0.00    +0.292 HD
ENDBRANCH  10  11
ENDBRANCH   1   2
BRANCH   1  13
ATOM     13  C   LIG    1        1.196   0.705  -0.043  0.00  0.00    +0.020 A 
ATOM     14  C   LIG    1        2.057   0.239   0.936  0.00  0.00    +0.140 A 
ATOM     15  C   LIG    1        3.200  -0.434   0.559  0.00  0.00    +0.084 A 
ATOM     16 CL   LIG    1        4.254  -1.006   1.832  0.00  0.00    -0.080 Cl
ATOM     17  C   LIG    1        3.474  -0.635  -0.773  0.00  0.00    +0.045 A 
ATOM     18  C   LIG    1        2.635  -0.182  -1.775  0.00  0.00    +0.061 A 
ATOM     19 CL   LIG    1        3.046  -0.479  -3.448  0.00  0.00    -0.082 Cl
ATOM     20  C   LIG    1        1.499   0.487  -1.367  0.00  0.00    +0.066 A 
ATOM     21 CL   LIG    1        0.440   1.065  -2.667  0.00  0.00    -0.082 Cl
BRANCH  14  22
ATOM     22  O   LIG    1        1.744   0.463   2.293  0.00  0.00    -0.505 OA
ATOM     23  H   LIG    1        2.366   0.126   3.005  0.00  0.00    +0.292 HD
ENDBRANCH  14  22
ENDBRANCH   1  13
TORSDOF 4
