REMARK  Name = molecules/ACTOXUHEUCPTEW-PUAFBMFCSA-N.pdb
REMARK                            x       y       z     vdW  Elec       q    Type
REMARK                         _______ _______ _______ _____ _____    ______ ____
ROOT
ATOM      1  C   LIG    1        0.183  -1.497  -0.750  0.00  0.00    +0.156 C 
ATOM      2  C   LIG    1       -0.810  -0.486  -1.334  0.00  0.00    +0.028 C 
ATOM      3  C   LIG    1       -2.178  -1.024  -1.350  0.00  0.00    +0.012 C 
ATOM      4  C   LIG    1       -3.263  -0.324  -2.064  0.00  0.00    +0.019 C 
ATOM      5  C   LIG    1       -4.613  -0.474  -1.330  0.00  0.00    +0.147 C 
ATOM      6  C   LIG    1       -5.630  -0.967  -2.290  0.00  0.00    +0.004 C 
ATOM      7  C   LIG    1       -6.535  -1.876  -2.087  0.00  0.00    -0.002 C 
ATOM      8  C   LIG    1       -6.817  -2.655  -0.917  0.00  0.00    -0.004 C 
ATOM      9  C   LIG    1       -6.080  -3.601  -0.360  0.00  0.00    -0.023 C 
ATOM     10  C   LIG    1       -4.761  -4.061  -0.861  0.00  0.00    +0.071 C 
ATOM     11  C   LIG    1       -3.853  -4.283   0.331  0.00  0.00    +0.177 C 
ATOM     12  C   LIG    1       -4.620  -4.685   1.580  0.00  0.00    +0.052 C 
ATOM     13  O   LIG    1       -2.882  -5.258   0.087  0.00  0.00    -0.461 OA
ATOM     14  C   LIG    1       -1.560  -5.221   0.482  0.00  0.00    +0.310 C 
ATOM     15  O   LIG    1       -0.995  -6.306   0.763  0.00  0.00    -0.251 OA
ATOM     16  C   LIG    1       -0.765  -3.972   0.595  0.00  0.00    +0.154 C 
ATOM     17  C   LIG    1        0.426  -3.916  -0.304  0.00  0.00    +0.156 C 
ATOM     18  C   LIG    1       -3.400  -1.017  -3.428  0.00  0.00    +0.010 C 
ATOM     19  C   LIG    1        0.210  -2.816  -1.381  0.00  0.00    +0.176 C 
ENDROOT
BRANCH  17  20
ATOM     20  O   LIG    1        0.524  -5.149  -0.959  0.00  0.00    -0.389 OA
ATOM     21  H   LIG    1       -0.397  -5.397  -1.277  0.00  0.00    +0.210 HD
ENDBRANCH  17  20
BRANCH  19  22
ATOM     22  O   LIG    1        1.220  -2.988  -2.353  0.00  0.00    -0.375 OA
ATOM     23  C   LIG    1        0.777  -3.548  -3.517  0.00  0.00    +0.194 C 
ENDBRANCH  19  22
BRANCH   1  24
ATOM     24  O   LIG    1        1.445  -0.848  -0.858  0.00  0.00    -0.343 OA
BRANCH  24  25
ATOM     25  C   LIG    1        2.029  -0.600   0.363  0.00  0.00    +0.281 C 
ATOM     26  O   LIG    1        2.130   0.716   0.725  0.00  0.00    -0.343 OA
ATOM     27  C   LIG    1        3.166   1.446   0.231  0.00  0.00    +0.149 C 
ATOM     28  C   LIG    1        4.513   0.788   0.248  0.00  0.00    +0.169 C 
ATOM     29  C   LIG    1        4.454  -0.681  -0.056  0.00  0.00    +0.121 C 
ATOM     30  C   LIG    1        2.866   2.092  -1.109  0.00  0.00    +0.041 C 
ATOM     31  C   LIG    1        3.307  -1.353   0.613  0.00  0.00    +0.190 C 
BRANCH  29  32
ATOM     32  N   LIG    1        4.540  -1.007  -1.454  0.00  0.00    -0.301 NA
ATOM     33  C   LIG    1        4.790  -2.413  -1.598  0.00  0.00    +0.105 C 
ATOM     34  C   LIG    1        5.700  -0.318  -2.022  0.00  0.00    +0.105 C 
ENDBRANCH  29  32
BRANCH  31  35
ATOM     35  O   LIG    1        3.508  -1.359   2.003  0.00  0.00    -0.385 OA
ATOM     36  H   LIG    1        3.333  -0.459   2.390  0.00  0.00    +0.210 HD
ENDBRANCH  31  35
BRANCH  28  37
ATOM     37  O   LIG    1        5.045   0.939   1.526  0.00  0.00    -0.344 OA
BRANCH  37  38
ATOM     38  C   LIG    1        6.251   1.633   1.516  0.00  0.00    +0.254 C 
ATOM     39  C   LIG    1        6.282   2.851   2.367  0.00  0.00    +0.098 C 
ATOM     40  C   LIG    1        7.583   3.611   2.053  0.00  0.00    +0.096 C 
ATOM     41  C   LIG    1        8.686   2.555   1.822  0.00  0.00    +0.174 C 
ATOM     42  C   LIG    1        8.286   1.277   2.533  0.00  0.00    +0.149 C 
ATOM     43  C   LIG    1        9.450   0.322   2.676  0.00  0.00    +0.041 C 
ATOM     44  C   LIG    1        7.476   4.471   0.843  0.00  0.00    +0.044 C 
ATOM     45  O   LIG    1        7.215   0.723   1.888  0.00  0.00    -0.346 OA
BRANCH  40  46
ATOM     46  O   LIG    1        7.958   4.385   3.142  0.00  0.00    -0.386 OA
ATOM     47  H   LIG    1        7.403   4.252   3.946  0.00  0.00    +0.210 HD
ENDBRANCH  40  46
BRANCH  41  48
ATOM     48  O   LIG    1        9.833   3.054   2.425  0.00  0.00    -0.386 OA
ATOM     49  H   LIG    1       10.603   3.030   1.776  0.00  0.00    +0.210 HD
ENDBRANCH  41  48
ENDBRANCH  37  38
ENDBRANCH  28  37
ENDBRANCH  24  25
ENDBRANCH   1  24
BRANCH   5  50
ATOM     50  O   LIG    1       -4.929   0.730  -0.778  0.00  0.00    -0.344 OA
BRANCH  50  51
ATOM     51  C   LIG    1       -5.044   0.727   0.600  0.00  0.00    +0.251 C 
ATOM     52  C   LIG    1       -4.022   1.668   1.175  0.00  0.00    +0.063 C 
ATOM     53  C   LIG    1       -4.635   2.582   2.230  0.00  0.00    +0.026 C 
ATOM     54  C   LIG    1       -5.810   3.271   1.559  0.00  0.00    +0.085 C 
ATOM     55  C   LIG    1       -6.756   2.280   0.930  0.00  0.00    +0.135 C 
ATOM     56  C   LIG    1       -7.122   2.692  -0.470  0.00  0.00    +0.039 C 
ATOM     57  O   LIG    1       -6.337   0.982   1.032  0.00  0.00    -0.347 OA
BRANCH  54  58
ATOM     58  N   LIG    1       -6.476   4.123   2.521  0.00  0.00    -0.303 NA
ATOM     59  C   LIG    1       -5.556   5.061   3.106  0.00  0.00    +0.105 C 
ATOM     60  C   LIG    1       -7.483   4.884   1.790  0.00  0.00    +0.105 C 
ENDBRANCH  54  58
ENDBRANCH  50  51
ENDBRANCH   5  50
BRANCH   2  61
ATOM     61  C   LIG    1       -0.218   0.115  -2.568  0.00  0.00    +0.076 C 
BRANCH  61  62
ATOM     62  C   LIG    1       -0.981   1.158  -3.247  0.00  0.00    +0.223 C 
ATOM     63  O   LIG    1       -1.409   1.150  -4.383  0.00  0.00    -0.301 OA
ENDBRANCH  61  62
ENDBRANCH   2  61
TORSDOF 15
