REMARK  Name = molecules/ADCOUXIGWFEYJP-JZYMCLRRSA-N.pdb
REMARK                            x       y       z     vdW  Elec       q    Type
REMARK                         _______ _______ _______ _____ _____    ______ ____
ROOT
ATOM      1  C   LIG    1       -0.834  -0.508   0.166  0.00  0.00    +0.067 C 
ATOM      2  C   LIG    1       -0.931  -1.344   1.442  0.00  0.00    +0.028 C 
ENDROOT
BRANCH   1   3
ATOM      3  N   LIG    1       -1.996  -0.767  -0.684  0.00  0.00    -0.340 N 
ATOM      4  H   LIG    1       -1.862  -1.217  -1.622  0.00  0.00    +0.146 HD
BRANCH   3   5
ATOM      5  C   LIG    1       -3.308  -0.423  -0.269  0.00  0.00    +0.057 A 
ATOM      6  C   LIG    1       -3.555   0.194   0.937  0.00  0.00    +0.070 A 
ATOM      7  C   LIG    1       -4.839   0.532   1.337  0.00  0.00    +0.123 A 
ATOM      8  C   LIG    1       -5.884   0.234   0.489  0.00  0.00    +0.055 A 
ATOM      9  C   LIG    1       -5.642  -0.395  -0.741  0.00  0.00    +0.006 A 
ATOM     10  C   LIG    1       -6.701  -0.688  -1.581  0.00  0.00    +0.011 A 
ATOM     11  C   LIG    1       -6.465  -1.307  -2.791  0.00  0.00    +0.020 A 
ATOM     12  C   LIG    1       -5.173  -1.617  -3.133  0.00  0.00    +0.111 A 
ATOM     13  N   LIG    1       -4.162  -1.326  -2.307  0.00  0.00    -0.253 NA
ATOM     14  C   LIG    1       -4.365  -0.726  -1.127  0.00  0.00    +0.092 A 
BRANCH   7  15
ATOM     15  O   LIG    1       -5.101   1.156   2.551  0.00  0.00    -0.495 OA
ATOM     16  C   LIG    1       -4.029   1.468   3.431  0.00  0.00    +0.277 C 
ENDBRANCH   7  15
ENDBRANCH   3   5
ENDBRANCH   1   3
BRANCH   1  17
ATOM     17  C   LIG    1        0.395  -0.945  -0.612  0.00  0.00    +0.023 C 
BRANCH  17  18
ATOM     18  C   LIG    1        1.661  -0.714   0.193  0.00  0.00    +0.023 C 
BRANCH  18  19
ATOM     19  C   LIG    1        2.834  -1.169  -0.637  0.00  0.00    +0.112 C 
BRANCH  19  20
ATOM     20  N   LIG    1        4.101  -0.993   0.039  0.00  0.00    -0.390 N 
ATOM     21  H   LIG    1        4.676  -1.803   0.357  0.00  0.00    +0.159 HD
ATOM     22  C   LIG    1        4.601   0.326   0.290  0.00  0.00    +0.004 C 
ATOM     23  C   LIG    1        4.132   1.035   1.481  0.00  0.00    +0.059 C 
BRANCH  22  24
ATOM     24  C   LIG    1        5.462   0.907  -0.518  0.00  0.00    +0.127 C 
ATOM     25  C   LIG    1        6.044   2.258  -0.357  0.00  0.00    +0.066 C 
ATOM     26  C   LIG    1        7.407   2.035  -1.030  0.00  0.00    +0.233 C 
ATOM     27  O   LIG    1        7.028   1.287  -2.170  0.00  0.00    -0.464 OA
ATOM     28  C   LIG    1        6.044   0.374  -1.740  0.00  0.00    +0.320 C 
ATOM     29  O   LIG    1        5.701  -0.713  -2.283  0.00  0.00    -0.250 OA
ENDBRANCH  22  24
ENDBRANCH  19  20
ENDBRANCH  18  19
ENDBRANCH  17  18
ENDBRANCH   1  17
TORSDOF 8
