REMARK  Name = molecules/ADFOJJHRTBFFOF-RBRWEJTLSA-N.pdb
REMARK                            x       y       z     vdW  Elec       q    Type
REMARK                         _______ _______ _______ _____ _____    ______ ____
ROOT
ATOM      1  C   LIG    1        3.301   0.627   1.452  0.00  0.00    +0.014 C 
ATOM      2  C   LIG    1        3.836   0.059   0.161  0.00  0.00    -0.002 C 
ATOM      3  C   LIG    1        5.295  -0.188   0.322  0.00  0.00    +0.136 C 
ATOM      4  C   LIG    1        5.387  -1.536   1.008  0.00  0.00    +0.033 C 
ATOM      5  C   LIG    1        3.994  -2.141   0.951  0.00  0.00    +0.007 C 
ATOM      6  C   LIG    1        3.256  -1.348  -0.061  0.00  0.00    +0.001 C 
ATOM      7  C   LIG    1        1.797  -1.209   0.155  0.00  0.00    +0.000 C 
ATOM      8  C   LIG    1        1.030  -2.507   0.092  0.00  0.00    +0.009 C 
ATOM      9  C   LIG    1       -0.343  -2.231   0.666  0.00  0.00    +0.036 C 
ATOM     10  C   LIG    1       -0.884  -0.939   0.180  0.00  0.00    -0.040 A 
ATOM     11  C   LIG    1       -2.193  -0.605   0.484  0.00  0.00    +0.050 A 
ATOM     12  C   LIG    1       -2.760   0.579   0.065  0.00  0.00    +0.134 A 
ATOM     13  C   LIG    1       -2.007   1.460  -0.680  0.00  0.00    +0.047 A 
ATOM     14  C   LIG    1       -0.715   1.159  -0.995  0.00  0.00    +0.008 A 
ATOM     15  C   LIG    1       -0.179  -0.027  -0.563  0.00  0.00    -0.041 A 
ATOM     16  C   LIG    1        1.230  -0.321  -0.926  0.00  0.00    +0.023 C 
ATOM     17  C   LIG    1        1.965   0.955  -1.113  0.00  0.00    +0.009 C 
ATOM     18  C   LIG    1        3.452   0.852  -1.038  0.00  0.00    +0.010 C 
ENDROOT
BRANCH   3  19
ATOM     19  O   LIG    1        5.792   0.830   1.167  0.00  0.00    -0.283 OA
BRANCH  19  20
ATOM     20  P   LIG    1        7.054   1.666   0.425  0.00  0.00    +0.473 P 
ATOM     21  O   LIG    1        7.533   2.713   1.405  0.00  0.00    -0.228 OA
BRANCH  20  22
ATOM     22  O   LIG    1        8.361   0.673   0.063  0.00  0.00    -0.303 OA
ATOM     23  H   LIG    1        8.094  -0.238  -0.178  0.00  0.00    +0.222 HD
ENDBRANCH  20  22
BRANCH  20  24
ATOM     24  O   LIG    1        6.533   2.497  -0.960  0.00  0.00    -0.303 OA
ATOM     25  H   LIG    1        6.414   3.458  -0.804  0.00  0.00    +0.222 HD
ENDBRANCH  20  24
ENDBRANCH  19  20
ENDBRANCH   3  19
BRANCH  12  26
ATOM     26  O   LIG    1       -4.086   0.903   0.381  0.00  0.00    -0.411 OA
BRANCH  26  27
ATOM     27  C   LIG    1       -5.079   0.511  -0.493  0.00  0.00    +0.408 C 
ATOM     28  N   LIG    1       -6.499   0.812  -0.235  0.00  0.00    -0.265 N 
ATOM     29  O   LIG    1       -4.753  -0.112  -1.524  0.00  0.00    -0.226 OA
BRANCH  28  30
ATOM     30  C   LIG    1       -6.729   1.517   0.962  0.00  0.00    +0.127 C 
BRANCH  30  31
ATOM     31  C   LIG    1       -6.832   0.873   2.275  0.00  0.00    +0.127 C 
ATOM     32 CL   LIG    1       -8.176  -0.211   2.488  0.00  0.00    -0.124 Cl
ENDBRANCH  30  31
ENDBRANCH  28  30
BRANCH  28  33
ATOM     33  C   LIG    1       -7.368   0.535  -1.306  0.00  0.00    +0.127 C 
BRANCH  33  34
ATOM     34  C   LIG    1       -7.895  -0.810  -1.577  0.00  0.00    +0.127 C 
ATOM     35 CL   LIG    1       -8.923  -1.516  -0.374  0.00  0.00    -0.124 Cl
ENDBRANCH  33  34
ENDBRANCH  28  33
ENDBRANCH  26  27
ENDBRANCH  12  26
TORSDOF 10
