REMARK  Name = molecules/ADUKCCWBEDSMEB-NSHDSACASA-N.pdb
REMARK                            x       y       z     vdW  Elec       q    Type
REMARK                         _______ _______ _______ _____ _____    ______ ____
ROOT
ATOM      1  C   LIG    1        0.496  -1.995  -0.200  0.00  0.00    +0.261 C 
ENDROOT
BRANCH   1   2
ATOM      2  O   LIG    1        1.584  -1.323  -0.140  0.00  0.00    -0.489 OA
BRANCH   2   3
ATOM      3  C   LIG    1        2.707  -0.666  -0.069  0.00  0.00    +0.121 A 
ATOM      4  C   LIG    1        3.937  -1.252   0.268  0.00  0.00    +0.049 A 
ATOM      5  C   LIG    1        5.109  -0.527   0.321  0.00  0.00    +0.049 A 
ATOM      6  C   LIG    1        5.086   0.805   0.037  0.00  0.00    +0.117 A 
ATOM      7  C   LIG    1        3.911   1.418  -0.293  0.00  0.00    +0.049 A 
ATOM      8  C   LIG    1        2.740   0.695  -0.345  0.00  0.00    +0.049 A 
BRANCH   6   9
ATOM      9  O   LIG    1        6.278   1.533   0.084  0.00  0.00    -0.507 OA
ATOM     10  H   LIG    1        6.600   1.996   0.903  0.00  0.00    +0.292 HD
ENDBRANCH   6   9
ENDBRANCH   2   3
ENDBRANCH   1   2
BRANCH   1  11
ATOM     11  C   LIG    1       -0.794  -1.391  -0.609  0.00  0.00    +0.166 C 
BRANCH  11  12
ATOM     12  O   LIG    1       -1.825  -2.386  -0.638  0.00  0.00    -0.387 OA
ATOM     13  H   LIG    1       -1.500  -3.251  -0.926  0.00  0.00    +0.210 HD
ENDBRANCH  11  12
BRANCH  11  14
ATOM     14  C   LIG    1       -1.367  -0.354   0.367  0.00  0.00    +0.115 C 
BRANCH  14  15
ATOM     15  N   LIG    1       -2.586   0.094  -0.314  0.00  0.00    -0.311 NA
ATOM     16  H   LIG    1       -2.252   0.632  -1.166  0.00  0.00    +0.122 HD
BRANCH  15  17
ATOM     17  C   LIG    1       -3.458   0.913   0.467  0.00  0.00    +0.048 C 
ATOM     18  C   LIG    1       -4.826   0.240   0.515  0.00  0.00    +0.023 C 
ATOM     19  C   LIG    1       -3.626   2.262  -0.182  0.00  0.00    +0.023 C 
ENDBRANCH  15  17
ENDBRANCH  14  15
ENDBRANCH  11  14
ENDBRANCH   1  11
TORSDOF 8
