REMARK  Name = molecules/ADXGNEYLLLSOAR-UHFFFAOYSA-N.pdb
REMARK                            x       y       z     vdW  Elec       q    Type
REMARK                         _______ _______ _______ _____ _____    ______ ____
ROOT
ATOM      1  C   LIG    1       -0.131  -0.751  -1.000  0.00  0.00    -0.030 A 
ATOM      2  C   LIG    1       -0.451  -0.741   0.337  0.00  0.00    +0.006 A 
ATOM      3  C   LIG    1       -1.679  -0.238   0.731  0.00  0.00    +0.009 A 
ATOM      4  C   LIG    1       -2.612   0.260  -0.150  0.00  0.00    -0.017 A 
ATOM      5  C   LIG    1       -2.287   0.249  -1.500  0.00  0.00    +0.009 A 
ATOM      6  C   LIG    1       -1.061  -0.255  -1.886  0.00  0.00    +0.006 A 
ENDROOT
BRANCH   4   7
ATOM      7  C   LIG    1       -3.875   0.762   0.340  0.00  0.00    -0.007 A 
ATOM      8  C   LIG    1       -3.930   1.957   1.037  0.00  0.00    +0.009 A 
ATOM      9  C   LIG    1       -5.101   2.502   1.525  0.00  0.00    +0.001 A 
ATOM     10  C   LIG    1       -6.256   1.788   1.286  0.00  0.00    +0.001 A 
ATOM     11  C   LIG    1       -6.246   0.595   0.597  0.00  0.00    +0.012 A 
ATOM     12  C   LIG    1       -5.053   0.080   0.122  0.00  0.00    +0.028 A 
BRANCH  12  13
ATOM     13  C   LIG    1       -5.055  -1.201  -0.604  0.00  0.00    +0.180 A 
ATOM     14  N   LIG    1       -6.150  -1.940  -0.869  0.00  0.00    -0.239 N 
ATOM     15  H   LIG    1       -7.145  -1.761  -0.629  0.00  0.00    +0.192 HD
ATOM     16  N   LIG    1       -5.773  -3.030  -1.538  0.00  0.00    -0.046 NA
ATOM     17  N   LIG    1       -4.471  -3.001  -1.703  0.00  0.00    -0.023 NA
ATOM     18  N   LIG    1       -4.031  -1.886  -1.134  0.00  0.00    -0.108 NA
ENDBRANCH  12  13
ENDBRANCH   4   7
BRANCH   1  19
ATOM     19  C   LIG    1        1.154  -1.261  -1.542  0.00  0.00    +0.150 C 
BRANCH  19  20
ATOM     20  N   LIG    1        2.250  -0.352  -1.385  0.00  0.00    -0.251 N 
ATOM     21  C   LIG    1        3.127  -0.377  -0.260  0.00  0.00    +0.135 A 
ATOM     22  N   LIG    1        2.982  -1.282   0.709  0.00  0.00    -0.217 NA
ATOM     23  C   LIG    1        3.795  -1.358   1.772  0.00  0.00    +0.128 A 
ATOM     24  C   LIG    1        3.654  -2.350   2.853  0.00  0.00    +0.088 C 
ATOM     25  N   LIG    1        4.791  -0.466   1.832  0.00  0.00    -0.237 NA
ATOM     26  C   LIG    1        4.985   0.456   0.903  0.00  0.00    +0.047 A 
ATOM     27  C   LIG    1        6.112   1.408   1.044  0.00  0.00    +0.066 C 
ATOM     28  C   LIG    1        4.141   0.529  -0.193  0.00  0.00    +0.014 A 
ATOM     29  C   LIG    1        4.351   1.565  -1.212  0.00  0.00    +0.049 C 
ATOM     30  C   LIG    1        3.860   1.196  -2.577  0.00  0.00    +0.101 C 
ATOM     31  C   LIG    1        2.476   0.632  -2.412  0.00  0.00    +0.221 C 
ATOM     32  O   LIG    1        1.584   1.039  -3.169  0.00  0.00    -0.275 OA
ENDBRANCH  19  20
ENDBRANCH   1  19
TORSDOF 4
