REMARK  Name = molecules/AELCINSCMGFISI-DTWKUNHWSA-N.pdb
REMARK                            x       y       z     vdW  Elec       q    Type
REMARK                         _______ _______ _______ _____ _____    ______ ____
ROOT
ATOM      1  C   LIG    1       -1.938   0.650   0.235  0.00  0.00    +0.059 C 
ATOM      2  C   LIG    1       -1.062  -0.630   0.336  0.00  0.00    +0.037 C 
ATOM      3  C   LIG    1       -2.114  -0.462  -0.695  0.00  0.00    +0.028 C 
ENDROOT
BRANCH   2   4
ATOM      4  C   LIG    1        0.354  -0.420   0.040  0.00  0.00    -0.043 A 
ATOM      5  C   LIG    1        1.323  -1.029   0.794  0.00  0.00    +0.004 A 
ATOM      6  C   LIG    1        2.684  -0.844   0.530  0.00  0.00    +0.000 A 
ATOM      7  C   LIG    1        3.017  -0.026  -0.515  0.00  0.00    +0.000 A 
ATOM      8  C   LIG    1        2.075   0.602  -1.293  0.00  0.00    +0.000 A 
ATOM      9  C   LIG    1        0.733   0.390  -0.997  0.00  0.00    +0.004 A 
ENDBRANCH   2   4
BRANCH   1  10
ATOM     10  N   LIG    1       -2.776   0.881   1.369  0.00  0.00    -0.327 NA
ATOM     11  H   LIG    1       -2.207   1.364   2.101  0.00  0.00    +0.118 HD
ATOM     12  H   LIG    1       -3.580   1.507   1.152  0.00  0.00    +0.118 HD
ENDBRANCH   1  10
TORSDOF 2
