REMARK  Name = molecules/AEMFNILZOJDQLW-QAGGRKNESA-N.pdb
REMARK                            x       y       z     vdW  Elec       q    Type
REMARK                         _______ _______ _______ _____ _____    ______ ____
ROOT
ATOM      1  C   LIG    1        1.970  -1.751   0.203  0.00  0.00    +0.016 C 
ATOM      2  C   LIG    1        1.745  -0.334  -0.340  0.00  0.00    -0.007 C 
ATOM      3  C   LIG    1        2.315   0.672   0.570  0.00  0.00    -0.060 C 
ATOM      4  C   LIG    1        1.510   1.598   1.394  0.00  0.00    +0.032 C 
ATOM      5  C   LIG    1        0.157   1.878   0.765  0.00  0.00    +0.008 C 
ATOM      6  C   LIG    1       -0.486   0.562   0.403  0.00  0.00    -0.003 C 
ATOM      7  C   LIG    1       -1.805   0.844  -0.217  0.00  0.00    +0.006 C 
ATOM      8  C   LIG    1       -2.801   1.550   0.617  0.00  0.00    +0.012 C 
ATOM      9  C   LIG    1       -4.090   1.339  -0.194  0.00  0.00    +0.075 C 
ATOM     10  C   LIG    1       -3.837   0.129  -1.018  0.00  0.00    +0.139 C 
ATOM     11  O   LIG    1       -4.516  -0.324  -1.911  0.00  0.00    -0.297 OA
ATOM     12  C   LIG    1       -2.568  -0.447  -0.544  0.00  0.00    +0.029 C 
ATOM     13  C   LIG    1       -2.837  -1.268   0.674  0.00  0.00    +0.019 C 
ATOM     14  C   LIG    1       -1.768  -1.158  -1.587  0.00  0.00    +0.015 C 
ATOM     15  C   LIG    1       -0.404  -1.463  -0.953  0.00  0.00    +0.005 C 
ATOM     16  C   LIG    1        3.635   0.745   0.650  0.00  0.00    +0.046 C 
ATOM     17  C   LIG    1        4.505  -0.141  -0.137  0.00  0.00    +0.156 C 
ATOM     18  O   LIG    1        5.677  -0.359   0.252  0.00  0.00    -0.293 OA
ATOM     19  C   LIG    1        3.980  -0.767  -1.385  0.00  0.00    +0.080 C 
ATOM     20  C   LIG    1        0.325  -0.143  -0.683  0.00  0.00    +0.002 C 
ATOM     21  C   LIG    1        2.569  -0.265  -1.627  0.00  0.00    +0.019 C 
ENDROOT
TORSDOF 0
