REMARK  Name = molecules/AFCGFAGUEYAMAO-UHFFFAOYSA-N.pdb
REMARK                            x       y       z     vdW  Elec       q    Type
REMARK                         _______ _______ _______ _____ _____    ______ ____
ROOT
ATOM      1  C   LIG    1        0.669  -0.946  -0.247  0.00  0.00    +0.044 C 
ENDROOT
BRANCH   1   2
ATOM      2  C   LIG    1       -0.202  -0.028   0.528  0.00  0.00    +0.106 C 
BRANCH   2   6
ATOM      3  C   LIG    1       -4.000   0.482   0.159  0.00  0.00    +0.109 C 
ATOM      4  C   LIG    1       -2.606   0.600   0.621  0.00  0.00    +0.210 C 
ATOM      5  O   LIG    1       -2.366   1.412   1.552  0.00  0.00    -0.276 OA
ATOM      6  N   LIG    1       -1.561  -0.173   0.044  0.00  0.00    -0.315 N 
ATOM      7  H   LIG    1       -1.797  -0.835  -0.724  0.00  0.00    +0.149 HD
ENDBRANCH   2   6
ENDBRANCH   1   2
BRANCH   1   8
ATOM      8  C   LIG    1        2.113  -0.935   0.113  0.00  0.00    +0.199 C 
BRANCH   8   9
ATOM      9  S   LIG    1        2.928   0.601  -0.070  0.00  0.00    +0.080 S 
ATOM     10  O   LIG    1        2.361   1.709   0.720  0.00  0.00    -0.147 OA
ATOM     11  O   LIG    1        2.949   1.041  -1.523  0.00  0.00    -0.147 OA
BRANCH   9  12
ATOM     12  O   LIG    1        4.540   0.414   0.381  0.00  0.00    -0.254 OA
ATOM     13  H   LIG    1        4.626   0.371   1.377  0.00  0.00    +0.244 HD
ENDBRANCH   9  12
ENDBRANCH   8   9
ENDBRANCH   1   8
TORSDOF 5
