REMARK  Name = molecules/AFNXATANNDIXLG-SFHVURJKSA-N.pdb
REMARK                            x       y       z     vdW  Elec       q    Type
REMARK                         _______ _______ _______ _____ _____    ______ ____
ROOT
ATOM      1  C   LIG    1       -1.438  -0.044  -0.767  0.00  0.00    +0.098 C 
ENDROOT
BRANCH   1   2
ATOM      2  C   LIG    1       -1.763   1.209  -0.008  0.00  0.00    -0.014 A 
ATOM      3  C   LIG    1       -0.953   1.721   0.947  0.00  0.00    +0.007 A 
ATOM      4  C   LIG    1       -1.313   2.868   1.650  0.00  0.00    +0.020 A 
ATOM      5  C   LIG    1       -2.511   3.517   1.389  0.00  0.00    +0.042 A 
ATOM      6 CL   LIG    1       -3.061   4.876   2.321  0.00  0.00    -0.083 Cl
ATOM      7  C   LIG    1       -3.308   2.987   0.414  0.00  0.00    +0.040 A 
ATOM      8  C   LIG    1       -2.929   1.848  -0.275  0.00  0.00    +0.047 A 
ATOM      9 CL   LIG    1       -4.092   1.253  -1.479  0.00  0.00    -0.083 Cl
ENDBRANCH   1   2
BRANCH   1  10
ATOM     10  S   LIG    1        0.137  -0.151  -1.500  0.00  0.00    -0.146 S 
BRANCH  10  11
ATOM     11  C   LIG    1        1.505   0.808  -1.248  0.00  0.00    +0.104 C 
BRANCH  11  18
ATOM     12  C   LIG    1        3.374   1.224   0.401  0.00  0.00    +0.006 A 
ATOM     13  C   LIG    1        4.577   0.853   0.979  0.00  0.00    +0.020 A 
ATOM     14  C   LIG    1        5.200  -0.314   0.687  0.00  0.00    +0.041 A 
ATOM     15 CL   LIG    1        6.727  -0.740   1.417  0.00  0.00    -0.084 Cl
ATOM     16  C   LIG    1        4.549  -1.136  -0.247  0.00  0.00    +0.020 A 
ATOM     17  C   LIG    1        3.349  -0.772  -0.830  0.00  0.00    +0.006 A 
ATOM     18  C   LIG    1        2.698   0.440  -0.530  0.00  0.00    -0.037 A 
ENDBRANCH  11  18
ENDBRANCH  10  11
ENDBRANCH   1  10
BRANCH   1  19
ATOM     19  C   LIG    1       -1.741  -1.107   0.280  0.00  0.00    +0.141 C 
BRANCH  19  20
ATOM     20  N   LIG    1       -1.823  -2.458  -0.183  0.00  0.00    -0.335 N 
ATOM     21  C   LIG    1       -0.851  -3.337  -0.413  0.00  0.00    +0.199 A 
ATOM     22  N   LIG    1       -1.343  -4.481  -0.873  0.00  0.00    -0.244 NA
ATOM     23  C   LIG    1       -2.657  -4.360  -0.935  0.00  0.00    +0.130 A 
ATOM     24  C   LIG    1       -2.986  -3.104  -0.520  0.00  0.00    +0.107 A 
ENDBRANCH  19  20
ENDBRANCH   1  19
TORSDOF 6
