REMARK  Name = molecules/AFOGBLYPWJJVAL-UHFFFAOYSA-N.pdb
REMARK                            x       y       z     vdW  Elec       q    Type
REMARK                         _______ _______ _______ _____ _____    ______ ____
ROOT
ATOM      1  N   LIG    1       -0.728  -0.529   0.589  0.00  0.00    -0.169 N 
ATOM      2  C   LIG    1        0.519  -0.336   1.268  0.00  0.00    +0.319 C 
ATOM      3  O   LIG    1        0.521  -0.066   2.505  0.00  0.00    -0.251 OA
ATOM      4  N   LIG    1        1.706  -0.455   0.522  0.00  0.00    -0.298 N 
ATOM      5  H   LIG    1        1.680  -0.673  -0.483  0.00  0.00    +0.150 HD
ATOM      6  H   LIG    1       -0.766  -0.751  -0.429  0.00  0.00    +0.178 HD
ENDROOT
BRANCH   1   7
ATOM      7  S   LIG    1       -2.194  -0.394   1.466  0.00  0.00    +0.076 S 
ATOM      8  O   LIG    1       -2.115   0.680   2.509  0.00  0.00    -0.150 OA
ATOM      9  O   LIG    1       -2.468  -1.724   2.100  0.00  0.00    -0.150 OA
BRANCH   7  10
ATOM     10  C   LIG    1       -3.476  -0.039   0.316  0.00  0.00    +0.109 A 
ATOM     11  C   LIG    1       -3.817   1.258   0.016  0.00  0.00    +0.029 A 
ATOM     12  C   LIG    1       -4.835   1.486  -0.885  0.00  0.00    +0.002 A 
ATOM     13  C   LIG    1       -5.523   0.454  -1.494  0.00  0.00    +0.000 A 
ATOM     14  C   LIG    1       -5.156  -0.854  -1.171  0.00  0.00    +0.002 A 
ATOM     15  C   LIG    1       -4.143  -1.078  -0.275  0.00  0.00    +0.029 A 
ENDBRANCH   7  10
ENDBRANCH   1   7
BRANCH   4  16
ATOM     16  C   LIG    1        2.978  -0.267   1.171  0.00  0.00    +0.106 C 
BRANCH  16  17
ATOM     17  C   LIG    1        4.127  -0.440   0.189  0.00  0.00    +0.018 C 
BRANCH  17  18
ATOM     18  C   LIG    1        4.001   0.563  -0.913  0.00  0.00    -0.002 C 
ATOM     19  C   LIG    1        5.130   0.407  -1.905  0.00  0.00    +0.004 C 
ENDBRANCH  17  18
ENDBRANCH  16  17
ENDBRANCH   4  16
TORSDOF 5
