REMARK  Name = molecules/AFZFFLVORLEPPO-UVYJNCLZSA-N.pdb
REMARK                            x       y       z     vdW  Elec       q    Type
REMARK                         _______ _______ _______ _____ _____    ______ ____
ROOT
ATOM      1  C   LIG    1        0.883  -1.388   0.656  0.00  0.00    +0.169 C 
ATOM      2  S   LIG    1        1.328   0.092   1.613  0.00  0.00    -0.131 S 
ATOM      3  C   LIG    1        0.931   1.454   0.510  0.00  0.00    +0.108 C 
ATOM      4  C   LIG    1       -0.472   1.317   0.033  0.00  0.00    -0.009 C 
ATOM      5  C   LIG    1       -0.758   0.131  -0.534  0.00  0.00    +0.126 C 
ATOM      6  C   LIG    1        1.895  -1.996  -0.234  0.00  0.00    +0.191 C 
ATOM      7  C   LIG    1        1.074  -1.734  -1.417  0.00  0.00    +0.244 C 
ATOM      8  O   LIG    1        1.022  -2.071  -2.647  0.00  0.00    -0.273 OA
ATOM      9  N   LIG    1        0.271  -0.880  -0.615  0.00  0.00    -0.249 N 
ENDROOT
BRANCH   6  10
ATOM     10  N   LIG    1        3.201  -1.357  -0.157  0.00  0.00    -0.296 N 
ATOM     11  C   LIG    1        4.361  -2.106   0.101  0.00  0.00    +0.268 C 
ATOM     12  O   LIG    1        4.077  -3.393   0.227  0.00  0.00    -0.268 OA
ATOM     13  H   LIG    1        3.254  -0.351  -0.335  0.00  0.00    +0.150 HD
BRANCH  11  14
ATOM     14  C   LIG    1        5.714  -1.729   0.248  0.00  0.00    +0.190 C 
ATOM     15  N   LIG    1        6.606  -2.706   0.417  0.00  0.00    -0.078 NA
BRANCH  14  16
ATOM     16  C   LIG    1        6.253  -0.362   0.209  0.00  0.00    +0.107 A 
ATOM     17  C   LIG    1        5.514   0.765   0.431  0.00  0.00    +0.078 A 
ATOM     18  S   LIG    1        6.728   2.004   0.346  0.00  0.00    -0.060 S 
ATOM     19  C   LIG    1        8.079   1.016   0.039  0.00  0.00    +0.156 A 
ATOM     20  N   LIG    1        7.543  -0.173   0.018  0.00  0.00    -0.223 NA
BRANCH  19  21
ATOM     21  N   LIG    1        9.461   1.390  -0.150  0.00  0.00    -0.338 N 
ATOM     22  H   LIG    1       10.188   0.719   0.089  0.00  0.00    +0.144 HD
ATOM     23  H   LIG    1        9.660   2.319  -0.518  0.00  0.00    +0.144 HD
ENDBRANCH  19  21
ENDBRANCH  14  16
BRANCH  15  24
ATOM     24  O   LIG    1        6.210  -4.019   0.445  0.00  0.00    -0.396 OA
ATOM     25  C   LIG    1        6.309  -4.729  -0.787  0.00  0.00    +0.313 C 
ENDBRANCH  15  24
ENDBRANCH  11  14
ENDBRANCH   6  10
BRANCH   4  26
ATOM     26  C   LIG    1       -1.356   2.396  -0.071  0.00  0.00    +0.007 C 
ATOM     27  C   LIG    1       -1.373   3.550   0.489  0.00  0.00    +0.017 C 
BRANCH  27  28
ATOM     28  C   LIG    1       -0.442   4.039   1.454  0.00  0.00    +0.035 A 
ATOM     29  S   LIG    1        0.507   3.362   2.729  0.00  0.00    -0.076 S 
ATOM     30  C   LIG    1        1.340   4.742   3.244  0.00  0.00    +0.156 A 
ATOM     31  N   LIG    1        0.863   5.657   2.429  0.00  0.00    -0.252 NA
ATOM     32  C   LIG    1       -0.006   5.376   1.538  0.00  0.00    +0.053 A 
ATOM     33  C   LIG    1       -0.575   6.409   0.580  0.00  0.00    +0.067 C 
ENDBRANCH  27  28
ENDBRANCH   4  26
BRANCH   5  34
ATOM     34  C   LIG    1       -2.094  -0.181  -1.092  0.00  0.00    +0.357 C 
ATOM     35  O   LIG    1       -2.215  -1.339  -1.643  0.00  0.00    -0.243 OA
BRANCH  34  36
ATOM     36  O   LIG    1       -3.184   0.559  -1.104  0.00  0.00    -0.423 OA
BRANCH  36  37
ATOM     37  C   LIG    1       -4.468   0.501  -1.516  0.00  0.00    +0.473 C 
BRANCH  37  38
ATOM     38  O   LIG    1       -5.398  -0.362  -1.042  0.00  0.00    -0.427 OA
BRANCH  38  39
ATOM     39  C   LIG    1       -5.627  -1.672  -0.997  0.00  0.00    +0.315 C 
ATOM     40  O   LIG    1       -4.834  -2.480  -1.515  0.00  0.00    -0.250 OA
BRANCH  39  41
ATOM     41  C   LIG    1       -6.869  -2.192  -0.307  0.00  0.00    +0.059 C 
ATOM     42  C   LIG    1       -6.883  -1.696   1.134  0.00  0.00    +0.022 C 
ATOM     43  C   LIG    1       -6.822  -3.685  -0.321  0.00  0.00    +0.022 C 
ATOM     44  C   LIG    1       -8.117  -1.637  -0.963  0.00  0.00    +0.022 C 
ENDBRANCH  39  41
ENDBRANCH  38  39
ENDBRANCH  37  38
ENDBRANCH  36  37
ENDBRANCH  34  36
ENDBRANCH   5  34
TORSDOF 13
