REMARK  Name = molecules/AGAHNABIDCTLHW-UHFFFAOYSA-N.pdb
REMARK                            x       y       z     vdW  Elec       q    Type
REMARK                         _______ _______ _______ _____ _____    ______ ____
ROOT
ATOM      1  C   LIG    1        2.429   0.283  -0.074  0.00  0.00    +0.093 C 
ATOM      2  C   LIG    1        1.501  -0.059   1.116  0.00  0.00    +0.055 C 
ATOM      3  C   LIG    1        0.124   0.304   0.781  0.00  0.00    +0.087 C 
ATOM      4  N   LIG    1       -0.252  -0.420  -0.462  0.00  0.00    -0.302 NA
ATOM      5  C   LIG    1        0.542  -0.044  -1.580  0.00  0.00    +0.087 C 
ATOM      6  C   LIG    1        1.964  -0.511  -1.263  0.00  0.00    +0.055 C 
ENDROOT
BRANCH   1   7
ATOM      7  C   LIG    1        3.759  -0.080   0.458  0.00  0.00    -0.016 A 
ATOM      8  C   LIG    1        4.410   0.842   1.252  0.00  0.00    +0.007 A 
ATOM      9  C   LIG    1        5.740   0.682   1.583  0.00  0.00    +0.004 A 
ATOM     10  C   LIG    1        6.475  -0.370   1.134  0.00  0.00    -0.050 A 
ATOM     11  C   LIG    1        7.926  -0.460   1.319  0.00  0.00    +0.044 C 
ATOM     12  C   LIG    1        5.828  -1.321   0.343  0.00  0.00    +0.004 A 
ATOM     13  C   LIG    1        4.504  -1.147   0.055  0.00  0.00    +0.007 A 
ENDBRANCH   1   7
BRANCH   1  14
ATOM     14  O   LIG    1        2.234   1.646  -0.321  0.00  0.00    -0.384 OA
ATOM     15  H   LIG    1        3.091   2.095  -0.493  0.00  0.00    +0.211 HD
ENDBRANCH   1  14
BRANCH   4  16
ATOM     16  C   LIG    1       -1.649  -0.271  -0.619  0.00  0.00    +0.085 C 
BRANCH  16  17
ATOM     17  C   LIG    1       -2.103   0.103  -2.042  0.00  0.00    +0.023 C 
BRANCH  17  18
ATOM     18  C   LIG    1       -3.629   0.373  -1.826  0.00  0.00    +0.081 C 
BRANCH  18  19
ATOM     19  C   LIG    1       -4.276  -0.788  -1.296  0.00  0.00    +0.163 C 
ATOM     20  O   LIG    1       -4.085  -1.867  -1.577  0.00  0.00    -0.292 OA
BRANCH  19  21
ATOM     21  C   LIG    1       -5.383  -0.471  -0.290  0.00  0.00    +0.018 A 
ATOM     22  C   LIG    1       -5.115  -0.290   1.061  0.00  0.00    +0.014 A 
ATOM     23  C   LIG    1       -6.194   0.165   1.903  0.00  0.00    +0.039 A 
ATOM     24  C   LIG    1       -7.433   0.362   1.417  0.00  0.00    +0.123 A 
ATOM     25  F   LIG    1       -8.474   0.834   2.149  0.00  0.00    -0.205 F 
ATOM     26  C   LIG    1       -7.694   0.206   0.063  0.00  0.00    +0.039 A 
ATOM     27  C   LIG    1       -6.624  -0.194  -0.742  0.00  0.00    +0.014 A 
ENDBRANCH  19  21
ENDBRANCH  18  19
ENDBRANCH  17  18
ENDBRANCH  16  17
ENDBRANCH   4  16
TORSDOF 7
