REMARK  Name = molecules/AGHANLSBXUWXTB-UHFFFAOYSA-N.pdb
REMARK                            x       y       z     vdW  Elec       q    Type
REMARK                         _______ _______ _______ _____ _____    ______ ____
ROOT
ATOM      1  C   LIG    1       -0.792   0.138  -0.813  0.00  0.00    +0.043 A 
ATOM      2  C   LIG    1       -0.473  -1.168  -0.529  0.00  0.00    +0.074 A 
ATOM      3  C   LIG    1        0.817  -1.481  -0.100  0.00  0.00    +0.101 A 
ATOM      4 CL   LIG    1        1.175  -3.146   0.255  0.00  0.00    -0.078 Cl
ATOM      5  C   LIG    1        1.797  -0.530   0.053  0.00  0.00    +0.141 A 
ATOM      6  C   LIG    1        1.458   0.774  -0.238  0.00  0.00    +0.048 A 
ATOM      7 CL   LIG    1       -1.643  -2.458  -0.703  0.00  0.00    -0.081 Cl
ATOM      8  C   LIG    1        0.200   1.121  -0.662  0.00  0.00    +0.017 A 
ENDROOT
BRANCH   1   9
ATOM      9  C   LIG    1       -2.121   0.496  -1.254  0.00  0.00    +0.201 C 
ATOM     10  O   LIG    1       -2.278   1.062  -2.353  0.00  0.00    -0.286 OA
BRANCH   9  11
ATOM     11  C   LIG    1       -3.256   0.182  -0.385  0.00  0.00    +0.059 A 
ATOM     12  S   LIG    1       -3.288  -0.665   1.093  0.00  0.00    -0.093 S 
ATOM     13  C   LIG    1       -4.952  -0.581   1.433  0.00  0.00    +0.046 A 
ATOM     14  C   LIG    1       -5.452   0.117   0.371  0.00  0.00    +0.008 A 
ATOM     15  C   LIG    1       -4.577   0.514  -0.574  0.00  0.00    +0.019 A 
ENDBRANCH   9  11
ENDBRANCH   1   9
BRANCH   5  16
ATOM     16  O   LIG    1        3.083  -0.881   0.484  0.00  0.00    -0.479 OA
BRANCH  16  17
ATOM     17  C   LIG    1        4.021   0.179   0.611  0.00  0.00    +0.349 C 
BRANCH  17  18
ATOM     18  C   LIG    1        5.348  -0.256   1.052  0.00  0.00    +0.343 C 
ATOM     19  O   LIG    1        5.595  -1.457   1.293  0.00  0.00    -0.247 OA
BRANCH  18  20
ATOM     20  O   LIG    1        6.367   0.664   1.212  0.00  0.00    -0.478 OA
ATOM     21  H   LIG    1        6.205   1.515   1.718  0.00  0.00    +0.295 HD
ENDBRANCH  18  20
ENDBRANCH  17  18
ENDBRANCH  16  17
ENDBRANCH   5  16
TORSDOF 6
