REMARK  Name = molecules/AGJUUQSLGVCRQA-DSBSHMPYSA-N.pdb
REMARK                            x       y       z     vdW  Elec       q    Type
REMARK                         _______ _______ _______ _____ _____    ______ ____
ROOT
ATOM      1  C   LIG    1        3.257   0.267  -0.360  0.00  0.00    +0.155 C 
ATOM      2  C   LIG    1        2.696  -1.072  -0.175  0.00  0.00    +0.133 C 
ATOM      3  C   LIG    1        1.954  -1.745  -1.261  0.00  0.00    +0.063 C 
ATOM      4  C   LIG    1        0.450  -1.756  -1.118  0.00  0.00    +0.119 C 
ATOM      5  C   LIG    1       -0.084  -3.130  -0.681  0.00  0.00    +0.062 C 
ATOM      6  C   LIG    1       -1.502  -3.319  -1.159  0.00  0.00    +0.119 C 
ATOM      7  C   LIG    1       -2.302  -3.928  -0.034  0.00  0.00    +0.062 C 
ATOM      8  C   LIG    1       -3.781  -4.059  -0.353  0.00  0.00    +0.119 C 
ATOM      9  C   LIG    1       -4.566  -3.405   0.722  0.00  0.00    +0.062 C 
ATOM     10  C   LIG    1       -6.006  -3.107   0.414  0.00  0.00    +0.119 C 
ATOM     11  C   LIG    1       -6.276  -2.265  -0.765  0.00  0.00    +0.065 C 
ATOM     12  C   LIG    1       -6.501  -0.785  -0.494  0.00  0.00    +0.148 C 
ATOM     13  C   LIG    1       -5.168  -0.196  -0.212  0.00  0.00    +0.176 C 
ATOM     14  C   LIG    1       -4.941   1.230  -0.665  0.00  0.00    +0.171 C 
ATOM     15  C   LIG    1       -3.479   1.315  -1.033  0.00  0.00    -0.042 C 
ATOM     16  C   LIG    1       -2.485   0.968  -0.197  0.00  0.00    +0.002 C 
ATOM     17  C   LIG    1       -2.655   0.474   1.162  0.00  0.00    +0.000 C 
ATOM     18  C   LIG    1       -2.962   1.177   2.272  0.00  0.00    -0.000 C 
ATOM     19  C   LIG    1       -3.197   2.578   2.464  0.00  0.00    -0.000 C 
ATOM     20  C   LIG    1       -2.460   3.548   3.004  0.00  0.00    -0.000 C 
ATOM     21  C   LIG    1       -1.149   3.519   3.603  0.00  0.00    -0.000 C 
ATOM     22  C   LIG    1       -0.055   2.848   3.275  0.00  0.00    -0.000 C 
ATOM     23  C   LIG    1        0.193   1.920   2.195  0.00  0.00    -0.002 C 
ATOM     24  C   LIG    1        0.574   2.167   0.945  0.00  0.00    +0.007 C 
ATOM     25  C   LIG    1        0.862   3.431   0.285  0.00  0.00    +0.178 C 
ATOM     26  C   LIG    1        2.304   3.522  -0.223  0.00  0.00    +0.206 C 
ATOM     27  C   LIG    1        3.263   3.830   0.896  0.00  0.00    +0.055 C 
ATOM     28  O   LIG    1        2.682   2.541  -1.099  0.00  0.00    -0.458 OA
ATOM     29  C   LIG    1       -3.166   1.820  -2.389  0.00  0.00    +0.042 C 
ATOM     30  C   LIG    1        2.561   1.213  -1.244  0.00  0.00    +0.316 C 
ATOM     31  O   LIG    1        1.849   0.707  -2.141  0.00  0.00    -0.250 OA
ENDROOT
BRANCH   2  32
ATOM     32  O   LIG    1        1.823  -1.054   0.947  0.00  0.00    -0.391 OA
ATOM     33  H   LIG    1        1.809  -1.958   1.340  0.00  0.00    +0.210 HD
ENDBRANCH   2  32
BRANCH  10  34
ATOM     34  O   LIG    1       -6.550  -2.606   1.603  0.00  0.00    -0.392 OA
ATOM     35  H   LIG    1       -6.208  -3.117   2.354  0.00  0.00    +0.210 HD
ENDBRANCH  10  34
BRANCH  12  36
ATOM     36  O   LIG    1       -7.479  -0.545   0.424  0.00  0.00    -0.389 OA
ATOM     37  H   LIG    1       -7.226  -0.059   1.235  0.00  0.00    +0.210 HD
ENDBRANCH  12  36
BRANCH  25  38
ATOM     38  O   LIG    1        0.073   3.707  -0.831  0.00  0.00    -0.384 OA
ATOM     39  H   LIG    1        0.517   3.491  -1.691  0.00  0.00    +0.210 HD
ENDBRANCH  25  38
BRANCH  14  40
ATOM     40  O   LIG    1       -5.746   1.585  -1.717  0.00  0.00    -0.385 OA
ATOM     41  H   LIG    1       -6.624   1.908  -1.331  0.00  0.00    +0.210 HD
ENDBRANCH  14  40
BRANCH  13  42
ATOM     42  O   LIG    1       -4.258  -0.944  -1.009  0.00  0.00    -0.386 OA
ATOM     43  H   LIG    1       -4.342  -0.622  -1.919  0.00  0.00    +0.210 HD
ENDBRANCH  13  42
BRANCH   8  44
ATOM     44  O   LIG    1       -4.081  -5.443  -0.336  0.00  0.00    -0.392 OA
ATOM     45  H   LIG    1       -5.050  -5.481  -0.621  0.00  0.00    +0.210 HD
ENDBRANCH   8  44
BRANCH   6  46
ATOM     46  O   LIG    1       -1.502  -4.072  -2.309  0.00  0.00    -0.392 OA
ATOM     47  H   LIG    1       -0.903  -4.842  -2.249  0.00  0.00    +0.210 HD
ENDBRANCH   6  46
BRANCH   4  48
ATOM     48  O   LIG    1       -0.195  -1.534  -2.353  0.00  0.00    -0.392 OA
ATOM     49  H   LIG    1        0.449  -1.792  -3.065  0.00  0.00    +0.210 HD
ENDBRANCH   4  48
BRANCH   1  50
ATOM     50  C   LIG    1        4.716   0.312  -0.750  0.00  0.00    +0.131 C 
BRANCH  50  51
ATOM     51  O   LIG    1        4.922  -0.212  -2.024  0.00  0.00    -0.391 OA
ATOM     52  H   LIG    1        5.754   0.114  -2.437  0.00  0.00    +0.210 HD
ENDBRANCH  50  51
BRANCH  50  53
ATOM     53  C   LIG    1        5.631  -0.308   0.241  0.00  0.00    +0.032 C 
BRANCH  53  54
ATOM     54  C   LIG    1        7.089  -0.084  -0.096  0.00  0.00    +0.003 C 
BRANCH  54  55
ATOM     55  C   LIG    1        7.462   1.380  -0.155  0.00  0.00    -0.000 C 
BRANCH  55  56
ATOM     56  C   LIG    1        8.954   1.438  -0.491  0.00  0.00    -0.003 C 
ATOM     57  C   LIG    1        9.747   0.732   0.581  0.00  0.00    +0.004 C 
ENDBRANCH  55  56
ENDBRANCH  54  55
ENDBRANCH  53  54
ENDBRANCH  50  53
ENDBRANCH   1  50
TORSDOF 15
