REMARK  Name = molecules/AGOYDEPGAOXOCK-KCBOHYOISA-N.pdb
REMARK                            x       y       z     vdW  Elec       q    Type
REMARK                         _______ _______ _______ _____ _____    ______ ____
ROOT
ATOM      1  C   LIG    1        1.240  -0.603   0.272  0.00  0.00    +0.158 C 
ATOM      2  C   LIG    1        0.538  -0.434   1.571  0.00  0.00    +0.047 C 
ATOM      3  C   LIG    1        1.365   0.303   2.601  0.00  0.00    +0.013 C 
ATOM      4  C   LIG    1       -0.816   0.286   1.388  0.00  0.00    +0.140 C 
ATOM      5  C   LIG    1       -1.747  -0.182   2.480  0.00  0.00    +0.124 C 
ATOM      6  C   LIG    1       -1.572   0.674   3.733  0.00  0.00    +0.022 C 
ATOM      7  C   LIG    1       -3.182  -0.185   2.116  0.00  0.00    +0.313 C 
ATOM      8  O   LIG    1       -3.992  -0.034   3.119  0.00  0.00    -0.250 OA
ATOM      9  O   LIG    1       -3.766  -0.318   0.922  0.00  0.00    -0.458 OA
ATOM     10  C   LIG    1       -3.727  -1.264  -0.090  0.00  0.00    +0.210 C 
ATOM     11  C   LIG    1       -4.553  -2.474   0.237  0.00  0.00    +0.126 C 
ATOM     12  C   LIG    1       -4.463  -2.832   1.678  0.00  0.00    +0.048 C 
ATOM     13  C   LIG    1       -4.163  -3.676  -0.589  0.00  0.00    +0.159 C 
ATOM     14  C   LIG    1       -2.924  -4.381  -0.112  0.00  0.00    +0.084 C 
ATOM     15  C   LIG    1       -3.125  -5.868  -0.442  0.00  0.00    +0.018 C 
ATOM     16  C   LIG    1       -1.683  -3.982  -0.775  0.00  0.00    +0.142 C 
ATOM     17  C   LIG    1       -0.342  -4.110  -0.152  0.00  0.00    +0.055 C 
ATOM     18  C   LIG    1       -0.376  -5.088   1.044  0.00  0.00    +0.015 C 
ATOM     19  C   LIG    1        0.129  -2.813   0.459  0.00  0.00    +0.048 C 
ATOM     20  O   LIG    1       -1.746  -3.520  -1.901  0.00  0.00    -0.297 OA
ATOM     21  C   LIG    1        0.730  -1.823  -0.507  0.00  0.00    +0.093 C 
ATOM     22  C   LIG    1        1.932  -2.424  -1.222  0.00  0.00    +0.044 C 
ENDROOT
BRANCH  11  23
ATOM     23  O   LIG    1       -5.886  -2.199  -0.050  0.00  0.00    -0.383 OA
ATOM     24  H   LIG    1       -6.335  -3.027  -0.307  0.00  0.00    +0.210 HD
ENDBRANCH  11  23
BRANCH  13  25
ATOM     25  O   LIG    1       -5.219  -4.579  -0.504  0.00  0.00    -0.388 OA
ATOM     26  H   LIG    1       -5.291  -5.048   0.361  0.00  0.00    +0.210 HD
ENDBRANCH  13  25
BRANCH  10  27
ATOM     27  C   LIG    1       -4.181  -0.563  -1.363  0.00  0.00    +0.044 C 
ATOM     28  C   LIG    1       -5.569  -0.030  -1.181  0.00  0.00    +0.007 C 
ENDBRANCH  10  27
BRANCH  21  29
ATOM     29  O   LIG    1       -0.220  -1.457  -1.393  0.00  0.00    -0.374 OA
ATOM     30  C   LIG    1        0.052  -0.606  -2.406  0.00  0.00    +0.194 C 
ENDBRANCH  21  29
BRANCH   1  31
ATOM     31  O   LIG    1        2.590  -0.711   0.403  0.00  0.00    -0.342 OA
BRANCH  31  32
ATOM     32  C   LIG    1        3.355   0.325  -0.172  0.00  0.00    +0.281 C 
ATOM     33  C   LIG    1        4.316   0.833   0.810  0.00  0.00    +0.187 C 
ATOM     34  C   LIG    1        5.636   1.241   0.274  0.00  0.00    +0.092 C 
ATOM     35  C   LIG    1        6.096   0.402  -0.848  0.00  0.00    +0.053 C 
ATOM     36  C   LIG    1        4.949   0.447  -1.883  0.00  0.00    +0.120 C 
ATOM     37  C   LIG    1        5.425  -0.361  -3.077  0.00  0.00    +0.038 C 
ATOM     38  O   LIG    1        3.848  -0.150  -1.383  0.00  0.00    -0.346 OA
BRANCH  34  39
ATOM     39  N   LIG    1        6.590   1.295   1.374  0.00  0.00    -0.303 NA
ATOM     40  C   LIG    1        7.017   0.016   1.832  0.00  0.00    +0.105 C 
ATOM     41  C   LIG    1        7.610   2.276   1.215  0.00  0.00    +0.105 C 
ENDBRANCH  34  39
BRANCH  33  42
ATOM     42  O   LIG    1        3.760   1.989   1.426  0.00  0.00    -0.385 OA
ATOM     43  H   LIG    1        4.237   2.180   2.267  0.00  0.00    +0.210 HD
ENDBRANCH  33  42
ENDBRANCH  31  32
ENDBRANCH   1  31
BRANCH   4  44
ATOM     44  O   LIG    1       -0.529   1.648   1.541  0.00  0.00    -0.347 OA
BRANCH  44  45
ATOM     45  C   LIG    1       -0.765   2.369   0.375  0.00  0.00    +0.254 C 
ATOM     46  C   LIG    1       -1.908   3.305   0.724  0.00  0.00    +0.098 C 
ATOM     47  C   LIG    1       -2.059   4.442  -0.301  0.00  0.00    +0.099 C 
ATOM     48  C   LIG    1       -3.517   4.560  -0.699  0.00  0.00    +0.044 C 
ATOM     49  C   LIG    1       -1.315   3.970  -1.520  0.00  0.00    +0.175 C 
ATOM     50  C   LIG    1        0.147   3.838  -1.170  0.00  0.00    +0.149 C 
ATOM     51  C   LIG    1        0.867   3.253  -2.356  0.00  0.00    +0.041 C 
ATOM     52  O   LIG    1        0.326   3.114   0.002  0.00  0.00    -0.346 OA
BRANCH  47  53
ATOM     53  O   LIG    1       -1.575   5.556   0.309  0.00  0.00    -0.374 OA
ATOM     54  C   LIG    1       -1.589   6.734  -0.364  0.00  0.00    +0.194 C 
ENDBRANCH  47  53
BRANCH  49  55
ATOM     55  O   LIG    1       -1.458   4.888  -2.537  0.00  0.00    -0.386 OA
ATOM     56  H   LIG    1       -2.145   4.602  -3.216  0.00  0.00    +0.210 HD
ENDBRANCH  49  55
ENDBRANCH  44  45
ENDBRANCH   4  44
TORSDOF 12
