REMARK  Name = molecules/AHBKIEXBQNRDNL-FVCOMRFXSA-N.pdb
REMARK                            x       y       z     vdW  Elec       q    Type
REMARK                         _______ _______ _______ _____ _____    ______ ____
ROOT
ATOM      1  C   LIG    1        1.820  -0.387  -1.714  0.00  0.00    +0.162 C 
ATOM      2  O   LIG    1        2.784  -0.403  -0.737  0.00  0.00    -0.328 OA
ATOM      3  C   LIG    1        3.104   0.973  -0.514  0.00  0.00    +0.195 C 
ATOM      4  O   LIG    1        2.025   1.698  -0.954  0.00  0.00    -0.338 OA
ATOM      5  C   LIG    1        4.286   1.411  -1.338  0.00  0.00    +0.080 C 
ATOM      6  C   LIG    1        0.479  -0.869  -1.229  0.00  0.00    +0.010 C 
ATOM      7  C   LIG    1        0.436  -1.532   0.094  0.00  0.00    +0.010 C 
ATOM      8  C   LIG    1       -0.934  -1.542   0.688  0.00  0.00    +0.005 C 
ATOM      9  C   LIG    1       -1.730  -0.277   0.532  0.00  0.00    +0.002 C 
ATOM     10  C   LIG    1       -3.086  -0.331   1.143  0.00  0.00    -0.007 C 
ATOM     11  C   LIG    1       -2.957   0.056   2.586  0.00  0.00    +0.019 C 
ATOM     12  C   LIG    1       -3.950   1.043   3.096  0.00  0.00    +0.080 C 
ATOM     13  C   LIG    1       -5.243   0.730   2.439  0.00  0.00    +0.156 C 
ATOM     14  O   LIG    1       -6.270   0.427   3.064  0.00  0.00    -0.293 OA
ATOM     15  C   LIG    1       -5.199   0.814   0.990  0.00  0.00    +0.046 C 
ATOM     16  C   LIG    1       -3.458  -1.839   1.165  0.00  0.00    +0.016 C 
ATOM     17  C   LIG    1       -4.145   0.300   0.378  0.00  0.00    -0.060 C 
ATOM     18  C   LIG    1       -4.053   0.436  -1.131  0.00  0.00    +0.032 C 
ATOM     19  C   LIG    1       -2.692   1.173  -1.281  0.00  0.00    +0.008 C 
ATOM     20  C   LIG    1       -1.698   0.118  -0.939  0.00  0.00    -0.003 C 
ATOM     21  C   LIG    1       -0.275   0.424  -1.161  0.00  0.00    +0.004 C 
ATOM     22  C   LIG    1        0.148   1.121  -2.381  0.00  0.00    +0.039 C 
ATOM     23  C   LIG    1       -0.066  -1.843  -2.254  0.00  0.00    +0.015 C 
ATOM     24  C   LIG    1        1.674   1.048  -2.155  0.00  0.00    +0.162 C 
ENDROOT
BRANCH   3  25
ATOM     25  C   LIG    1        3.456   1.095   0.908  0.00  0.00    +0.011 A 
ATOM     26  C   LIG    1        2.521   0.999   1.937  0.00  0.00    +0.009 A 
ATOM     27  C   LIG    1        2.876   1.025   3.261  0.00  0.00    +0.000 A 
ATOM     28  C   LIG    1        4.212   1.149   3.638  0.00  0.00    +0.000 A 
ATOM     29  C   LIG    1        5.159   1.248   2.649  0.00  0.00    +0.000 A 
ATOM     30  C   LIG    1        4.773   1.220   1.323  0.00  0.00    +0.009 A 
ENDBRANCH   3  25
BRANCH   1  31
ATOM     31  C   LIG    1        2.237  -1.193  -2.914  0.00  0.00    +0.165 C 
ATOM     32  C   LIG    1        3.344  -2.167  -2.858  0.00  0.00    +0.089 C 
ATOM     33  O   LIG    1        1.659  -1.074  -3.989  0.00  0.00    -0.295 OA
ENDBRANCH   1  31
TORSDOF 2
