REMARK  Name = molecules/AHFWIQIYAXSLBA-RQXATKFSSA-N.pdb
REMARK                            x       y       z     vdW  Elec       q    Type
REMARK                         _______ _______ _______ _____ _____    ______ ____
ROOT
ATOM      1  C   LIG    1        0.955   1.721  -0.464  0.00  0.00    -0.007 A 
ATOM      2  C   LIG    1       -0.261   1.144  -0.075  0.00  0.00    +0.013 A 
ATOM      3  C   LIG    1       -1.215   0.815  -1.014  0.00  0.00    -0.016 A 
ATOM      4  C   LIG    1       -0.906   1.083  -2.333  0.00  0.00    +0.009 A 
ATOM      5  C   LIG    1        0.282   1.647  -2.723  0.00  0.00    +0.039 A 
ATOM      6  C   LIG    1        1.241   1.978  -1.777  0.00  0.00    +0.127 A 
ATOM      7  F   LIG    1        2.422   2.538  -2.131  0.00  0.00    -0.205 F 
ENDROOT
BRANCH   3   8
ATOM      8  C   LIG    1       -2.509   0.209  -0.683  0.00  0.00    +0.180 C 
ATOM      9  O   LIG    1       -3.090   0.874   0.418  0.00  0.00    -0.361 OA
ATOM     10  C   LIG    1       -4.397   0.438   0.602  0.00  0.00    +0.175 C 
ATOM     11  C   LIG    1       -4.511  -1.030   0.819  0.00  0.00    +0.176 C 
ATOM     12  C   LIG    1       -3.586  -1.868   0.008  0.00  0.00    +0.177 C 
ATOM     13  C   LIG    1       -2.256  -1.218  -0.194  0.00  0.00    +0.179 C 
BRANCH  11  14
ATOM     14  O   LIG    1       -5.831  -1.401   0.473  0.00  0.00    -0.386 OA
ATOM     15  H   LIG    1       -5.850  -2.332   0.127  0.00  0.00    +0.210 HD
ENDBRANCH  11  14
BRANCH  12  16
ATOM     16  O   LIG    1       -3.353  -3.069   0.715  0.00  0.00    -0.386 OA
ATOM     17  H   LIG    1       -3.377  -3.855   0.118  0.00  0.00    +0.210 HD
ENDBRANCH  12  16
BRANCH  13  18
ATOM     18  O   LIG    1       -1.458  -1.887  -1.090  0.00  0.00    -0.386 OA
ATOM     19  H   LIG    1       -1.194  -2.764  -0.743  0.00  0.00    +0.210 HD
ENDBRANCH  13  18
BRANCH  10  20
ATOM     20  C   LIG    1       -4.951   1.154   1.816  0.00  0.00    +0.190 C 
BRANCH  20  21
ATOM     21  O   LIG    1       -4.943   2.538   1.641  0.00  0.00    -0.392 OA
ATOM     22  H   LIG    1       -4.757   3.030   2.468  0.00  0.00    +0.210 HD
ENDBRANCH  20  21
ENDBRANCH  10  20
ENDBRANCH   3   8
BRANCH   1  23
ATOM     23  C   LIG    1        1.899   2.030   0.613  0.00  0.00    +0.080 C 
BRANCH  23  28
ATOM     24  C   LIG    1        6.441  -0.019  -0.128  0.00  0.00    +0.009 A 
ATOM     25  C   LIG    1        5.123   0.102   0.371  0.00  0.00    -0.011 A 
ATOM     26  C   LIG    1        4.686  -0.914   1.174  0.00  0.00    +0.020 A 
ATOM     27  S   LIG    1        3.095  -0.426   1.570  0.00  0.00    -0.093 S 
ATOM     28  C   LIG    1        3.033   1.045   0.710  0.00  0.00    -0.005 A 
ATOM     29  C   LIG    1        5.481  -2.029   1.500  0.00  0.00    +0.015 A 
ATOM     30  C   LIG    1        6.775  -2.139   1.005  0.00  0.00    +0.001 A 
ATOM     31  C   LIG    1        4.274   1.115   0.130  0.00  0.00    +0.020 A 
ATOM     32  C   LIG    1        7.191  -1.114   0.206  0.00  0.00    +0.001 A 
ENDBRANCH  23  28
ENDBRANCH   1  23
TORSDOF 8
