REMARK  Name = molecules/AHLPHDHHMVZTML-BYPYZUCNSA-N.pdb
REMARK                            x       y       z     vdW  Elec       q    Type
REMARK                         _______ _______ _______ _____ _____    ______ ____
ROOT
ATOM      1  CA  LIG    1        0.916   0.660   0.168  0.00  0.00    +0.161 C 
ENDROOT
BRANCH   1   2
ATOM      2  N   LIG    1        1.496   1.973  -0.081  0.00  0.00    -0.318 NA
ATOM      3  H1  LIG    1        0.794   2.630  -0.463  0.00  0.00    +0.119 HD
ATOM      4  H2  LIG    1        2.348   1.917  -0.678  0.00  0.00    +0.119 HD
ENDBRANCH   1   2
BRANCH   1   5
ATOM      5  C   LIG    1        1.991  -0.343  -0.016  0.00  0.00    +0.322 C 
ATOM      6  O   LIG    1        3.134  -0.008  -0.357  0.00  0.00    -0.249 OA
BRANCH   5   7
ATOM      7  OXT LIG    1        1.723  -1.704   0.197  0.00  0.00    -0.480 OA
ATOM      8  HXT LIG    1        2.461  -2.282   0.537  0.00  0.00    +0.295 HD
ENDBRANCH   5   7
ENDBRANCH   1   5
BRANCH   1   9
ATOM      9  C   LIG    1       -0.178   0.473  -0.858  0.00  0.00    +0.031 C 
BRANCH   9  10
ATOM     10  C   LIG    1       -0.892  -0.848  -0.741  0.00  0.00    +0.017 C 
BRANCH  10  11
ATOM     11  C   LIG    1       -1.537  -0.992   0.622  0.00  0.00    +0.078 C 
BRANCH  11  12
ATOM     12  N   LIG    1       -2.480   0.093   0.762  0.00  0.00    -0.330 NA
ATOM     13  H   LIG    1       -2.302   0.687   1.597  0.00  0.00    +0.118 HD
ATOM     14  H   LIG    1       -2.649   0.614  -0.105  0.00  0.00    +0.118 HD
ENDBRANCH  11  12
ENDBRANCH  10  11
ENDBRANCH   9  10
ENDBRANCH   1   9
TORSDOF 7
