REMARK  Name = molecules/AHOUBRCZNHFOSL-YOEHRIQHSA-N.pdb
REMARK                            x       y       z     vdW  Elec       q    Type
REMARK                         _______ _______ _______ _____ _____    ______ ____
ROOT
ATOM      1  C   LIG    1       -2.607  -1.044  -1.487  0.00  0.00    +0.023 C 
ATOM      2  C   LIG    1       -1.920   0.007  -0.621  0.00  0.00    +0.028 C 
ATOM      3  C   LIG    1       -0.871  -0.618   0.244  0.00  0.00    +0.048 C 
ATOM      4  C   LIG    1       -0.841  -2.137   0.094  0.00  0.00    +0.088 C 
ATOM      5  N   LIG    1       -2.156  -2.711   0.243  0.00  0.00    -0.316 NA
ATOM      6  H   LIG    1       -2.464  -2.843   1.208  0.00  0.00    +0.122 HD
ATOM      7  C   LIG    1       -3.123  -2.158  -0.654  0.00  0.00    +0.081 C 
ENDROOT
BRANCH   2   8
ATOM      8  C   LIG    1       -2.926   0.771   0.116  0.00  0.00    -0.044 A 
ATOM      9  C   LIG    1       -3.502   0.366   1.303  0.00  0.00    +0.007 A 
ATOM     10  C   LIG    1       -4.444   1.164   1.898  0.00  0.00    +0.038 A 
ATOM     11  C   LIG    1       -4.848   2.368   1.360  0.00  0.00    +0.123 A 
ATOM     12  F   LIG    1       -5.793   3.151   1.973  0.00  0.00    -0.205 F 
ATOM     13  C   LIG    1       -4.290   2.787   0.187  0.00  0.00    +0.038 A 
ATOM     14  C   LIG    1       -3.343   1.986  -0.413  0.00  0.00    +0.007 A 
ENDBRANCH   2   8
BRANCH   3  15
ATOM     15  C   LIG    1        0.469  -0.120  -0.253  0.00  0.00    +0.234 C 
BRANCH  15  16
ATOM     16  O   LIG    1        1.552  -0.617   0.458  0.00  0.00    -0.492 OA
BRANCH  16  17
ATOM     17  C   LIG    1        2.825  -0.226   0.088  0.00  0.00    +0.124 A 
ATOM     18  C   LIG    1        3.939  -0.670   0.736  0.00  0.00    +0.095 A 
ATOM     19  C   LIG    1        5.222  -0.274   0.360  0.00  0.00    +0.170 A 
ATOM     20  O   LIG    1        6.503  -0.544   0.808  0.00  0.00    -0.452 OA
ATOM     21  C   LIG    1        7.417   0.330   0.164  0.00  0.00    +0.466 C 
ATOM     22  O   LIG    1        6.700   0.871  -0.921  0.00  0.00    -0.453 OA
ATOM     23  C   LIG    1        5.362   0.603  -0.710  0.00  0.00    +0.166 A 
ATOM     24  C   LIG    1        4.255   1.063  -1.376  0.00  0.00    +0.053 A 
ATOM     25  C   LIG    1        3.012   0.647  -0.973  0.00  0.00    +0.049 A 
ENDBRANCH  16  17
ENDBRANCH  15  16
ENDBRANCH   3  15
TORSDOF 4
