REMARK  Name = molecules/AHXDSVSZEZHDLV-UHFFFAOYSA-N.pdb
REMARK                            x       y       z     vdW  Elec       q    Type
REMARK                         _______ _______ _______ _____ _____    ______ ____
ROOT
ATOM      1  C   LIG    1       -5.059   0.175   0.187  0.00  0.00    +0.044 C 
ATOM      2  C   LIG    1       -3.695  -0.240  -0.180  0.00  0.00    -0.049 A 
ATOM      3  C   LIG    1       -3.352  -1.583  -0.065  0.00  0.00    +0.004 A 
ATOM      4  C   LIG    1       -2.059  -1.993  -0.410  0.00  0.00    +0.016 A 
ATOM      5  C   LIG    1       -1.166  -1.049  -0.854  0.00  0.00    +0.026 A 
ATOM      6  C   LIG    1       -1.500   0.286  -0.971  0.00  0.00    +0.027 A 
ATOM      7  S   LIG    1       -0.301   1.449  -1.551  0.00  0.00    -0.087 S 
ATOM      8  C   LIG    1        1.274   1.013  -0.804  0.00  0.00    +0.026 A 
ATOM      9  C   LIG    1        2.139   1.992  -0.346  0.00  0.00    +0.016 A 
ATOM     10  C   LIG    1        3.326   1.590   0.214  0.00  0.00    +0.004 A 
ATOM     11  C   LIG    1        3.694   0.281   0.342  0.00  0.00    -0.049 A 
ATOM     12  C   LIG    1        4.996  -0.130   0.957  0.00  0.00    +0.044 C 
ATOM     13  C   LIG    1        2.813  -0.661  -0.122  0.00  0.00    +0.019 A 
ATOM     14  C   LIG    1        1.606  -0.307  -0.694  0.00  0.00    +0.027 A 
ATOM     15  S   LIG    1        0.478  -1.588  -1.290  0.00  0.00    -0.087 S 
ATOM     16  C   LIG    1       -2.760   0.703  -0.638  0.00  0.00    +0.019 A 
ENDROOT
TORSDOF 0
