REMARK  Name = molecules/AILRADAXUVEEIR-UHFFFAOYSA-N.pdb
REMARK                            x       y       z     vdW  Elec       q    Type
REMARK                         _______ _______ _______ _____ _____    ______ ____
ROOT
ATOM      1  C   LIG    1        2.082  -1.114  -0.589  0.00  0.00    +0.033 A 
ATOM      2  C   LIG    1        1.225  -1.912   0.132  0.00  0.00    +0.025 A 
ATOM      3  C   LIG    1       -0.147  -1.607   0.203  0.00  0.00    +0.029 A 
ATOM      4  C   LIG    1       -0.674  -0.523  -0.429  0.00  0.00    +0.076 A 
ATOM      5  C   LIG    1        0.206   0.276  -1.155  0.00  0.00    +0.143 A 
ATOM      6  C   LIG    1        1.550  -0.027  -1.223  0.00  0.00    +0.070 A 
ENDROOT
BRANCH   1  12
ATOM      7  C   LIG    1        4.018  -2.515   0.179  0.00  0.00    +0.106 C 
ATOM      8  C   LIG    1        5.497  -2.227   0.325  0.00  0.00    +0.038 C 
ATOM      9  C   LIG    1        5.680  -0.755   0.601  0.00  0.00    +0.060 C 
ATOM     10  C   LIG    1        5.268   0.040  -0.621  0.00  0.00    +0.038 C 
ATOM     11  C   LIG    1        4.365  -0.788  -1.526  0.00  0.00    +0.106 C 
ATOM     12  N   LIG    1        3.433  -1.456  -0.642  0.00  0.00    -0.330 N 
BRANCH   9  13
ATOM     13  N   LIG    1        7.024  -0.444   1.036  0.00  0.00    -0.297 NA
ATOM     14  C   LIG    1        7.139   0.841   1.643  0.00  0.00    +0.100 C 
ATOM     15  C   LIG    1        8.611   1.111   1.905  0.00  0.00    +0.099 C 
ATOM     16  N   LIG    1        9.246   1.344   0.640  0.00  0.00    -0.303 NA
ATOM     17  C   LIG    1        9.075   2.712   0.164  0.00  0.00    +0.105 C 
ATOM     18  C   LIG    1        8.859   0.423  -0.383  0.00  0.00    +0.099 C 
ATOM     19  C   LIG    1        8.032  -0.732   0.074  0.00  0.00    +0.100 C 
ENDBRANCH   9  13
ENDBRANCH   1  12
BRANCH   4  20
ATOM     20  N   LIG    1       -2.022  -0.170  -0.395  0.00  0.00    -0.281 N 
ATOM     21  H   LIG    1       -2.327   0.718  -0.927  0.00  0.00    +0.155 HD
BRANCH  20  22
ATOM     22  C   LIG    1       -3.062  -0.845   0.265  0.00  0.00    +0.221 A 
ATOM     23  N   LIG    1       -2.896  -1.952   0.970  0.00  0.00    -0.221 NA
ATOM     24  C   LIG    1       -3.879  -2.602   1.600  0.00  0.00    +0.137 A 
ATOM     25  C   LIG    1       -5.146  -2.095   1.515  0.00  0.00    +0.099 A 
ATOM     26 CL   LIG    1       -6.451  -2.932   2.334  0.00  0.00    -0.078 Cl
ATOM     27  C   LIG    1       -5.399  -0.913   0.777  0.00  0.00    +0.147 A 
ATOM     28  N   LIG    1       -4.341  -0.376   0.207  0.00  0.00    -0.198 NA
BRANCH  27  29
ATOM     29  N   LIG    1       -6.732  -0.453   0.733  0.00  0.00    -0.298 N 
ATOM     30  H   LIG    1       -7.460  -1.020   1.253  0.00  0.00    +0.154 HD
BRANCH  29  31
ATOM     31  C   LIG    1       -7.161   0.695   0.056  0.00  0.00    +0.043 A 
ATOM     32  C   LIG    1       -8.515   1.025   0.098  0.00  0.00    +0.032 A 
ATOM     33  C   LIG    1       -8.973   2.145  -0.554  0.00  0.00    +0.013 A 
ATOM     34  C   LIG    1       -8.084   2.938  -1.249  0.00  0.00    +0.001 A 
ATOM     35  C   LIG    1       -6.753   2.658  -1.319  0.00  0.00    +0.002 A 
ATOM     36  C   LIG    1       -6.290   1.519  -0.655  0.00  0.00    +0.024 A 
BRANCH  32  37
ATOM     37  P   LIG    1       -9.627  -0.029   1.006  0.00  0.00    +0.112 P 
ATOM     38  O   LIG    1       -9.169  -0.092   2.453  0.00  0.00    -0.317 OA
ATOM     39  C   LIG    1      -11.327   0.622   0.921  0.00  0.00    +0.086 C 
ATOM     40  C   LIG    1       -9.629  -1.705   0.335  0.00  0.00    +0.086 C 
ENDBRANCH  32  37
ENDBRANCH  29  31
ENDBRANCH  27  29
ENDBRANCH  20  22
ENDBRANCH   4  20
BRANCH   5  41
ATOM     41  O   LIG    1       -0.294   1.413  -1.830  0.00  0.00    -0.493 OA
ATOM     42  C   LIG    1        0.529   2.257  -2.574  0.00  0.00    +0.277 C 
ENDBRANCH   5  41
TORSDOF 8
