REMARK  Name = molecules/AIONOLUJZLIMTK-AWEZNQCLSA-N.pdb
REMARK                            x       y       z     vdW  Elec       q    Type
REMARK                         _______ _______ _______ _____ _____    ______ ____
ROOT
ATOM      1  O   LIG    1       -2.347  -3.199   0.060  0.00  0.00    -0.292 OA
ATOM      2  C   LIG    1       -1.977  -2.026  -0.085  0.00  0.00    +0.174 C 
ATOM      3  C   LIG    1       -0.536  -1.690  -0.066  0.00  0.00    +0.129 C 
ATOM      4  C   LIG    1       -0.265  -0.491   0.792  0.00  0.00    +0.211 C 
ATOM      5  O   LIG    1       -1.175   0.547   0.513  0.00  0.00    -0.483 OA
ATOM      6  C   LIG    1       -2.456   0.331   0.048  0.00  0.00    +0.139 A 
ATOM      7  C   LIG    1       -3.360   1.370  -0.129  0.00  0.00    +0.092 A 
ATOM      8  C   LIG    1       -4.637   1.164  -0.592  0.00  0.00    +0.124 A 
ATOM      9  C   LIG    1       -5.074  -0.099  -0.901  0.00  0.00    +0.091 A 
ATOM     10  C   LIG    1       -4.207  -1.176  -0.741  0.00  0.00    +0.134 A 
ATOM     11  C   LIG    1       -2.934  -0.946  -0.277  0.00  0.00    +0.101 A 
ENDROOT
BRANCH   4  12
ATOM     12  C   LIG    1        1.135  -0.045   0.595  0.00  0.00    -0.003 A 
ATOM     13  C   LIG    1        1.577   1.168   1.078  0.00  0.00    +0.056 A 
ATOM     14  C   LIG    1        2.875   1.614   0.913  0.00  0.00    +0.159 A 
ATOM     15  C   LIG    1        3.770   0.828   0.242  0.00  0.00    +0.161 A 
ATOM     16  C   LIG    1        3.365  -0.388  -0.254  0.00  0.00    +0.050 A 
ATOM     17  C   LIG    1        2.056  -0.819  -0.077  0.00  0.00    +0.011 A 
BRANCH  14  18
ATOM     18  O   LIG    1        3.294   2.836   1.407  0.00  0.00    -0.503 OA
ATOM     19  H   LIG    1        4.236   3.151   1.283  0.00  0.00    +0.292 HD
ENDBRANCH  14  18
BRANCH  15  20
ATOM     20  O   LIG    1        5.104   1.236   0.046  0.00  0.00    -0.491 OA
ATOM     21  C   LIG    1        6.034   0.451  -0.635  0.00  0.00    +0.277 C 
ENDBRANCH  15  20
ENDBRANCH   4  12
BRANCH   8  22
ATOM     22  O   LIG    1       -5.545   2.208  -0.770  0.00  0.00    -0.507 OA
ATOM     23  H   LIG    1       -6.173   2.512  -0.036  0.00  0.00    +0.292 HD
ENDBRANCH   8  22
BRANCH  10  24
ATOM     24  O   LIG    1       -4.636  -2.435  -1.048  0.00  0.00    -0.506 OA
ATOM     25  H   LIG    1       -4.254  -3.317  -1.036  0.00  0.00    +0.292 HD
ENDBRANCH  10  24
TORSDOF 5
