REMARK  Name = molecules/AIUHRQHVWSUTGJ-UHFFFAOYSA-N.pdb
REMARK                            x       y       z     vdW  Elec       q    Type
REMARK                         _______ _______ _______ _____ _____    ______ ____
ROOT
ATOM      1  C   LIG    1       -1.974  -0.029  -0.082  0.00  0.00    +0.108 C 
ENDROOT
BRANCH   1   2
ATOM      2  N   LIG    1       -3.412   0.254   0.132  0.00  0.00    -0.313 N 
ATOM      3  C   LIG    1       -3.857   0.145   1.479  0.00  0.00    +0.115 C 
ATOM      4  C   LIG    1       -2.954  -0.160   2.505  0.00  0.00    +0.007 C 
ATOM      5  C   LIG    1       -3.395  -0.253   3.812  0.00  0.00    -0.002 C 
ATOM      6  C   LIG    1       -4.705  -0.053   4.152  0.00  0.00    +0.001 C 
ATOM      7  C   LIG    1       -5.564   0.245   3.126  0.00  0.00    +0.013 C 
ATOM      8  C   LIG    1       -5.170   0.342   1.844  0.00  0.00    +0.020 C 
ATOM      9  S   LIG    1       -6.406   0.744   0.646  0.00  0.00    -0.089 S 
ATOM     10  C   LIG    1       -5.581   0.823  -0.934  0.00  0.00    +0.034 A 
ATOM     11  C   LIG    1       -6.355   1.127  -2.034  0.00  0.00    +0.018 A 
ATOM     12  C   LIG    1       -5.794   1.197  -3.287  0.00  0.00    +0.021 A 
ATOM     13  C   LIG    1       -4.438   0.950  -3.382  0.00  0.00    +0.043 A 
ATOM     14  C   LIG    1       -3.682   0.647  -2.268  0.00  0.00    +0.044 A 
ATOM     15 CL   LIG    1       -3.734   1.041  -4.984  0.00  0.00    -0.083 Cl
ATOM     16  C   LIG    1       -4.231   0.572  -0.988  0.00  0.00    +0.046 A 
ENDBRANCH   1   2
BRANCH   1  17
ATOM     17  C   LIG    1       -1.704  -1.500   0.029  0.00  0.00    +0.034 C 
BRANCH  17  18
ATOM     18  C   LIG    1       -0.276  -1.844  -0.174  0.00  0.00    +0.086 C 
BRANCH  18  22
ATOM     19  N   LIG    1        3.084  -0.318  -0.589  0.00  0.00    -0.297 NA
ATOM     20  C   LIG    1        2.544   0.295   0.587  0.00  0.00    +0.100 C 
ATOM     21  C   LIG    1        1.034   0.056   0.636  0.00  0.00    +0.100 C 
ATOM     22  N   LIG    1        0.703  -1.312   0.694  0.00  0.00    -0.300 NA
ATOM     23  C   LIG    1        1.912  -2.109   0.616  0.00  0.00    +0.100 C 
ATOM     24  C   LIG    1        2.747  -1.716  -0.590  0.00  0.00    +0.100 C 
BRANCH  19  25
ATOM     25  C   LIG    1        4.517  -0.129  -0.696  0.00  0.00    +0.125 C 
BRANCH  25  26
ATOM     26  C   LIG    1        4.900   1.290  -0.954  0.00  0.00    +0.247 C 
BRANCH  26  27
ATOM     27  O   LIG    1        6.279   1.477  -1.058  0.00  0.00    -0.464 OA
BRANCH  27  29
ATOM     28  C   LIG    1        8.685   1.447  -0.289  0.00  0.00    +0.136 C 
ATOM     29  C   LIG    1        7.213   1.216  -0.088  0.00  0.00    +0.304 C 
ATOM     30  O   LIG    1        6.823   0.765   1.015  0.00  0.00    -0.251 OA
ENDBRANCH  27  29
ENDBRANCH  26  27
ENDBRANCH  25  26
ENDBRANCH  19  25
ENDBRANCH  18  22
ENDBRANCH  17  18
ENDBRANCH   1  17
TORSDOF 8
