REMARK  Name = molecules/AJPLPOWGYORUIF-UHFFFAOYSA-N.pdb
REMARK                            x       y       z     vdW  Elec       q    Type
REMARK                         _______ _______ _______ _____ _____    ______ ____
ROOT
ATOM      1  N   LIG    1       -0.815  -0.805   1.413  0.00  0.00    -0.146 NA
ATOM      2  C   LIG    1        0.360  -0.125   0.957  0.00  0.00    +0.234 C 
ATOM      3  O   LIG    1        0.515   1.165   0.846  0.00  0.00    -0.354 OA
ATOM      4  N   LIG    1        1.700   1.398   0.406  0.00  0.00    +0.070 NA
ATOM      5  N   LIG    1        2.376   0.280   0.209  0.00  0.00    -0.107 NA
ATOM      6  C   LIG    1        1.533  -0.718   0.557  0.00  0.00    +0.209 C 
ENDROOT
BRANCH   5   7
ATOM      7  N   LIG    1        3.675   0.157  -0.258  0.00  0.00    -0.218 NA
ATOM      8  C   LIG    1        4.276  -1.152  -0.420  0.00  0.00    +0.132 C 
ATOM      9  C   LIG    1        5.728  -1.186  -0.068  0.00  0.00    +0.176 C 
ATOM     10  O   LIG    1        6.101   0.022   0.504  0.00  0.00    -0.377 OA
ATOM     11  C   LIG    1        5.905   1.028  -0.455  0.00  0.00    +0.176 C 
ATOM     12  C   LIG    1        4.446   1.328  -0.587  0.00  0.00    +0.132 C 
ENDBRANCH   5   7
BRANCH   1  13
ATOM     13  C   LIG    1       -2.002  -0.075   1.686  0.00  0.00    +0.242 C 
ATOM     14  O   LIG    1       -2.213   0.341   2.857  0.00  0.00    -0.273 OA
BRANCH  13  15
ATOM     15  C   LIG    1       -2.949   0.170   0.581  0.00  0.00    +0.077 C 
ATOM     16  C   LIG    1       -4.062   1.092   0.944  0.00  0.00    +0.013 C 
ATOM     17  C   LIG    1       -5.408   0.675   0.470  0.00  0.00    +0.001 C 
ATOM     18  C   LIG    1       -5.441   0.051  -0.881  0.00  0.00    +0.000 C 
ATOM     19  C   LIG    1       -4.283  -0.845  -1.182  0.00  0.00    +0.001 C 
ATOM     20  C   LIG    1       -3.433  -1.151   0.022  0.00  0.00    +0.013 C 
ENDBRANCH  13  15
ENDBRANCH   1  13
TORSDOF 3
