REMARK  Name = molecules/AJRNYCDWNITGHF-UHFFFAOYSA-N.pdb
REMARK                            x       y       z     vdW  Elec       q    Type
REMARK                         _______ _______ _______ _____ _____    ______ ____
ROOT
ATOM      1  C   LIG    1       -1.863  -1.589   0.055  0.00  0.00    +0.263 C 
ATOM      2  O   LIG    1       -1.833  -2.867   0.234  0.00  0.00    -0.267 OA
ATOM      3  N   LIG    1       -0.667  -0.872  -0.188  0.00  0.00    -0.280 N 
ATOM      4  C   LIG    1       -0.480   0.448  -0.270  0.00  0.00    +0.028 A 
ATOM      5  C   LIG    1       -1.488   1.543  -0.137  0.00  0.00    +0.064 C 
ATOM      6  C   LIG    1        0.890   0.640  -0.481  0.00  0.00    -0.010 A 
ATOM      7  C   LIG    1        1.535  -0.579  -0.525  0.00  0.00    +0.008 A 
ATOM      8  C   LIG    1        2.862  -0.934  -0.707  0.00  0.00    +0.056 A 
ATOM      9  C   LIG    1        3.236  -2.246  -0.709  0.00  0.00    +0.121 A 
ATOM     10  C   LIG    1        2.272  -3.200  -0.527  0.00  0.00    +0.048 A 
ATOM     11  C   LIG    1        0.951  -2.833  -0.346  0.00  0.00    +0.030 A 
ATOM     12  C   LIG    1        0.530  -1.519  -0.338  0.00  0.00    +0.057 A 
ENDROOT
BRANCH   1  13
ATOM     13  C   LIG    1       -3.201  -1.049   0.134  0.00  0.00    +0.040 A 
ATOM     14  C   LIG    1       -3.997  -1.282   1.234  0.00  0.00    +0.015 A 
ATOM     15  C   LIG    1       -5.309  -0.811   1.288  0.00  0.00    +0.021 A 
ATOM     16  C   LIG    1       -5.816  -0.100   0.223  0.00  0.00    +0.041 A 
ATOM     17 CL   LIG    1       -7.476   0.498   0.289  0.00  0.00    -0.084 Cl
ATOM     18  C   LIG    1       -5.031   0.142  -0.885  0.00  0.00    +0.021 A 
ATOM     19  C   LIG    1       -3.721  -0.340  -0.916  0.00  0.00    +0.015 A 
ENDBRANCH   1  13
BRANCH   9  20
ATOM     20  O   LIG    1        4.559  -2.606  -0.890  0.00  0.00    -0.495 OA
ATOM     21  C   LIG    1        5.517  -1.592  -1.074  0.00  0.00    +0.277 C 
ENDBRANCH   9  20
BRANCH   6  22
ATOM     22  C   LIG    1        1.549   1.941  -0.630  0.00  0.00    +0.135 C 
BRANCH  22  23
ATOM     23  C   LIG    1        1.720   2.658   0.650  0.00  0.00    +0.240 C 
ATOM     24  O   LIG    1        1.313   2.122   1.701  0.00  0.00    -0.273 OA
ATOM     25  N   LIG    1        2.330   3.931   0.726  0.00  0.00    -0.197 N 
ATOM     26  H   LIG    1        2.696   4.440  -0.126  0.00  0.00    +0.182 HD
BRANCH  25  27
ATOM     27  O   LIG    1        2.490   4.594   1.895  0.00  0.00    -0.295 OA
ATOM     28  H   LIG    1        2.447   5.559   1.786  0.00  0.00    +0.241 HD
ENDBRANCH  25  27
ENDBRANCH  22  23
ENDBRANCH   6  22
TORSDOF 5
