REMARK  Name = molecules/AJXPJJZHWIXJCJ-LBPRGKRZSA-N.pdb
REMARK                            x       y       z     vdW  Elec       q    Type
REMARK                         _______ _______ _______ _____ _____    ______ ____
ROOT
ATOM      1  C   LIG    1       -0.489  -1.756   0.815  0.00  0.00    +0.026 C 
ATOM      2  C   LIG    1       -0.312  -0.506   0.012  0.00  0.00    +0.078 C 
ATOM      3  C   LIG    1       -1.005   0.597   0.729  0.00  0.00    +0.232 C 
ATOM      4  O   LIG    1       -0.529   1.396   1.575  0.00  0.00    -0.274 OA
ATOM      5  N   LIG    1       -2.348   0.581   0.265  0.00  0.00    -0.245 N 
ATOM      6  C   LIG    1       -3.405   1.358   0.888  0.00  0.00    +0.141 C 
ATOM      7  C   LIG    1       -2.461  -0.290  -0.863  0.00  0.00    +0.223 C 
ATOM      8  O   LIG    1       -3.544  -0.694  -1.347  0.00  0.00    -0.275 OA
ATOM      9  C   LIG    1       -1.069  -0.581  -1.292  0.00  0.00    +0.117 C 
ENDROOT
BRANCH   2  10
ATOM     10  C   LIG    1        1.094  -0.136  -0.142  0.00  0.00    -0.032 A 
ATOM     11  C   LIG    1        2.100  -1.040   0.118  0.00  0.00    +0.004 A 
ATOM     12  C   LIG    1        3.440  -0.745  -0.010  0.00  0.00    +0.000 A 
ATOM     13  C   LIG    1        3.794   0.536  -0.425  0.00  0.00    +0.000 A 
ATOM     14  C   LIG    1        2.804   1.451  -0.689  0.00  0.00    +0.000 A 
ATOM     15  C   LIG    1        1.472   1.130  -0.552  0.00  0.00    +0.004 A 
ENDBRANCH   2  10
TORSDOF 1
