REMARK  Name = molecules/AKNNEGZIBPJZJG-MSOLQXFVSA-N.pdb
REMARK                            x       y       z     vdW  Elec       q    Type
REMARK                         _______ _______ _______ _____ _____    ______ ____
ROOT
ATOM      1  C   LIG    1       -2.839   0.775  -0.036  0.00  0.00    +0.170 A 
ATOM      2  C   LIG    1       -2.133  -0.332   0.289  0.00  0.00    +0.022 A 
ATOM      3  C   LIG    1       -0.690  -0.313   0.563  0.00  0.00    +0.136 C 
ATOM      4  N   LIG    1       -0.560  -1.053   1.826  0.00  0.00    -0.295 NA
ATOM      5  C   LIG    1       -1.304  -0.424   2.883  0.00  0.00    +0.105 C 
ATOM      6  C   LIG    1       -0.901  -2.429   1.674  0.00  0.00    +0.089 C 
ATOM      7  C   LIG    1       -2.026  -2.745   0.771  0.00  0.00    +0.051 C 
ATOM      8  C   LIG    1       -2.788  -1.536   0.390  0.00  0.00    -0.034 A 
ATOM      9  C   LIG    1       -4.174  -1.622   0.155  0.00  0.00    +0.053 A 
ATOM     10  C   LIG    1       -4.888  -0.493  -0.177  0.00  0.00    +0.170 A 
ATOM     11  O   LIG    1       -6.249  -0.255  -0.465  0.00  0.00    -0.452 OA
ATOM     12  C   LIG    1       -6.491   1.150  -0.386  0.00  0.00    +0.467 C 
ATOM     13  O   LIG    1       -5.185   1.651  -0.615  0.00  0.00    -0.449 OA
ATOM     14  C   LIG    1       -4.229   0.708  -0.274  0.00  0.00    +0.208 A 
ENDROOT
BRANCH   3  15
ATOM     15  C   LIG    1        0.194  -0.884  -0.490  0.00  0.00    +0.229 C 
ATOM     16  C   LIG    1        1.631  -0.722  -0.180  0.00  0.00    +0.012 A 
ATOM     17  C   LIG    1        2.425  -1.180   0.834  0.00  0.00    +0.012 A 
ATOM     18  C   LIG    1        3.767  -0.894   0.915  0.00  0.00    +0.050 A 
ATOM     19  C   LIG    1        4.383  -0.097  -0.073  0.00  0.00    +0.162 A 
ATOM     20  C   LIG    1        3.558   0.373  -1.117  0.00  0.00    +0.176 A 
ATOM     21  C   LIG    1        2.221   0.058  -1.152  0.00  0.00    +0.111 A 
ATOM     22  C   LIG    1        1.200   0.424  -2.109  0.00  0.00    +0.344 C 
ATOM     23  O   LIG    1        1.380   1.135  -3.133  0.00  0.00    -0.245 OA
ATOM     24  O   LIG    1        0.005  -0.145  -1.695  0.00  0.00    -0.451 OA
BRANCH  19  25
ATOM     25  O   LIG    1        5.647   0.158   0.026  0.00  0.00    -0.491 OA
ATOM     26  C   LIG    1        6.903   0.309   0.278  0.00  0.00    +0.277 C 
ENDBRANCH  19  25
BRANCH  20  27
ATOM     27  O   LIG    1        4.183   1.155  -2.079  0.00  0.00    -0.491 OA
ATOM     28  C   LIG    1        4.245   2.564  -1.917  0.00  0.00    +0.277 C 
ENDBRANCH  20  27
ENDBRANCH   3  15
BRANCH   1  29
ATOM     29  O   LIG    1       -2.247   2.000  -0.147  0.00  0.00    -0.491 OA
ATOM     30  C   LIG    1       -1.777   2.449  -1.394  0.00  0.00    +0.277 C 
ENDBRANCH   1  29
TORSDOF 4
