REMARK  Name = molecules/ALARQZQTBTVLJV-CYBMUJFWSA-N.pdb
REMARK                            x       y       z     vdW  Elec       q    Type
REMARK                         _______ _______ _______ _____ _____    ______ ____
ROOT
ATOM      1  C   LIG    1       -0.199  -0.167  -0.024  0.00  0.00    +0.148 C 
ATOM      2  C   LIG    1       -1.008   1.034   0.385  0.00  0.00    +0.242 C 
ATOM      3  O   LIG    1       -0.414   1.983   0.922  0.00  0.00    -0.274 OA
ATOM      4  N   LIG    1       -2.399   0.984   0.122  0.00  0.00    -0.228 N 
ATOM      5  C   LIG    1       -3.297   1.716   0.982  0.00  0.00    +0.143 C 
ATOM      6  C   LIG    1       -2.857   0.208  -0.996  0.00  0.00    +0.315 C 
ATOM      7  O   LIG    1       -4.091   0.164  -1.226  0.00  0.00    -0.252 OA
ATOM      8  N   LIG    1       -1.913  -0.482  -1.804  0.00  0.00    -0.239 N 
ATOM      9  H   LIG    1       -2.229  -1.065  -2.638  0.00  0.00    +0.159 HD
ATOM     10  C   LIG    1       -0.542  -0.379  -1.477  0.00  0.00    +0.240 C 
ATOM     11  O   LIG    1        0.350  -0.462  -2.371  0.00  0.00    -0.274 OA
ENDROOT
BRANCH   1  12
ATOM     12  C   LIG    1        1.235   0.155   0.110  0.00  0.00    -0.024 A 
ATOM     13  C   LIG    1        2.070  -0.567   0.904  0.00  0.00    +0.005 A 
ATOM     14  C   LIG    1        3.423  -0.189   0.925  0.00  0.00    +0.000 A 
ATOM     15  C   LIG    1        3.906   0.863   0.183  0.00  0.00    +0.000 A 
ATOM     16  C   LIG    1        3.062   1.584  -0.612  0.00  0.00    +0.000 A 
ATOM     17  C   LIG    1        1.740   1.227  -0.643  0.00  0.00    +0.005 A 
ENDBRANCH   1  12
BRANCH   1  18
ATOM     18  C   LIG    1       -0.596  -1.421   0.671  0.00  0.00    +0.027 C 
ATOM     19  C   LIG    1        0.209  -2.569   0.138  0.00  0.00    +0.006 C 
ENDBRANCH   1  18
TORSDOF 2
