REMARK  Name = molecules/ALEXXDVDDISNDU-JZYPGELDSA-N.pdb
REMARK                            x       y       z     vdW  Elec       q    Type
REMARK                         _______ _______ _______ _____ _____    ______ ____
ROOT
ATOM      1  C   LIG    1        0.995  -0.776   1.443  0.00  0.00    +0.015 C 
ATOM      2  C   LIG    1        1.060   0.449   0.618  0.00  0.00    +0.009 C 
ATOM      3  C   LIG    1        0.260   1.593   1.088  0.00  0.00    +0.041 C 
ATOM      4  C   LIG    1       -1.200   1.307   0.952  0.00  0.00    +0.119 C 
ATOM      5  C   LIG    1       -1.618   0.797  -0.377  0.00  0.00    +0.031 C 
ATOM      6  C   LIG    1       -3.030   0.335  -0.427  0.00  0.00    -0.005 C 
ATOM      7  C   LIG    1       -3.937   1.338   0.256  0.00  0.00    +0.019 C 
ATOM      8  C   LIG    1       -5.393   0.923   0.181  0.00  0.00    +0.080 C 
ATOM      9  C   LIG    1       -5.689   0.341  -1.147  0.00  0.00    +0.156 C 
ATOM     10  O   LIG    1       -6.832  -0.114  -1.365  0.00  0.00    -0.293 OA
ATOM     11  C   LIG    1       -4.664   0.293  -2.195  0.00  0.00    +0.046 C 
ATOM     12  C   LIG    1       -3.240  -1.060   0.097  0.00  0.00    +0.016 C 
ATOM     13  C   LIG    1       -3.386   0.289  -1.895  0.00  0.00    -0.060 C 
ATOM     14  C   LIG    1       -2.291   0.251  -2.853  0.00  0.00    +0.032 C 
ATOM     15  C   LIG    1       -1.072  -0.466  -2.390  0.00  0.00    +0.008 C 
ATOM     16  C   LIG    1       -0.735  -0.294  -0.932  0.00  0.00    -0.001 C 
ATOM     17  C   LIG    1        2.541   0.830   0.319  0.00  0.00    +0.133 C 
ATOM     18  C   LIG    1        2.948  -0.419  -0.333  0.00  0.00    +0.043 C 
ATOM     19  C   LIG    1        1.734  -0.826  -1.220  0.00  0.00    +0.008 C 
ATOM     20  C   LIG    1        0.697   0.151  -0.833  0.00  0.00    +0.002 C 
ENDROOT
BRANCH   4  21
ATOM     21  O   LIG    1       -1.667   0.575   2.039  0.00  0.00    -0.391 OA
ATOM     22  H   LIG    1       -1.667   1.167   2.830  0.00  0.00    +0.210 HD
ENDBRANCH   4  21
BRANCH  17  23
ATOM     23  C   LIG    1        3.193   1.375   1.471  0.00  0.00    +0.202 C 
ATOM     24  O   LIG    1        3.026   2.645   1.574  0.00  0.00    -0.291 OA
BRANCH  23  25
ATOM     25  C   LIG    1        3.996   0.798   2.543  0.00  0.00    +0.309 C 
BRANCH  25  26
ATOM     26  O   LIG    1        4.561  -0.451   2.262  0.00  0.00    -0.457 OA
BRANCH  26  27
ATOM     27  C   LIG    1        5.537  -0.456   1.246  0.00  0.00    +0.304 C 
ATOM     28  C   LIG    1        6.164  -1.744   0.907  0.00  0.00    +0.136 C 
ATOM     29  O   LIG    1        5.865   0.590   0.649  0.00  0.00    -0.251 OA
ENDBRANCH  26  27
ENDBRANCH  25  26
ENDBRANCH  23  25
ENDBRANCH  17  23
BRANCH  17  30
ATOM     30  O   LIG    1        2.360   1.821  -0.699  0.00  0.00    -0.380 OA
ATOM     31  H   LIG    1        3.133   1.778  -1.337  0.00  0.00    +0.211 HD
ENDBRANCH  17  30
TORSDOF 6
