REMARK  Name = molecules/ALFGKMXHOUSVAD-UHFFFAOYSA-N.pdb
REMARK                            x       y       z     vdW  Elec       q    Type
REMARK                         _______ _______ _______ _____ _____    ______ ____
ROOT
ATOM      1  C   LIG    1       -0.182   0.188  -0.140  0.00  0.00    +0.056 C 
ATOM      2  C   LIG    1       -0.698  -0.745   0.954  0.00  0.00    +0.034 C 
ATOM      3  C   LIG    1       -1.528  -1.804   0.262  0.00  0.00    +0.085 C 
ATOM      4  N   LIG    1       -2.811  -1.194  -0.045  0.00  0.00    -0.305 NA
ATOM      5  C   LIG    1       -2.543   0.077  -0.669  0.00  0.00    +0.085 C 
ATOM      6  C   LIG    1       -3.709  -2.043  -0.752  0.00  0.00    +0.104 C 
ATOM      7  C   LIG    1       -1.139   0.077  -1.288  0.00  0.00    +0.034 C 
ENDROOT
BRANCH   1   8
ATOM      8  C   LIG    1        1.188  -0.283  -0.438  0.00  0.00    -0.031 A 
ATOM      9  C   LIG    1        2.111  -0.271   0.580  0.00  0.00    +0.050 A 
ATOM     10  C   LIG    1        3.437  -0.662   0.374  0.00  0.00    +0.117 A 
ATOM     11  C   LIG    1        3.808  -1.069  -0.890  0.00  0.00    +0.045 A 
ATOM     12  C   LIG    1        2.894  -1.087  -1.919  0.00  0.00    +0.004 A 
ATOM     13  C   LIG    1        1.569  -0.692  -1.699  0.00  0.00    +0.005 A 
BRANCH  10  14
ATOM     14  O   LIG    1        4.368  -0.646   1.411  0.00  0.00    -0.507 OA
ATOM     15  H   LIG    1        4.080  -0.346   2.328  0.00  0.00    +0.292 HD
ENDBRANCH  10  14
ENDBRANCH   1   8
BRANCH   1  16
ATOM     16  C   LIG    1       -0.126   1.581   0.323  0.00  0.00    +0.144 C 
ATOM     17  O   LIG    1       -0.837   2.369  -0.346  0.00  0.00    -0.296 OA
BRANCH  16  18
ATOM     18  C   LIG    1        0.609   2.185   1.418  0.00  0.00    +0.072 C 
ATOM     19  C   LIG    1        0.144   3.654   1.557  0.00  0.00    +0.012 C 
ENDBRANCH  16  18
ENDBRANCH   1  16
TORSDOF 4
