REMARK  Name = molecules/ALIVXCSEERJYHU-JSGCOSHPSA-N.pdb
REMARK                            x       y       z     vdW  Elec       q    Type
REMARK                         _______ _______ _______ _____ _____    ______ ____
ROOT
ATOM      1  C   LIG    1        2.679   0.368  -1.628  0.00  0.00    +0.011 A 
ATOM      2  C   LIG    1        2.856   0.040  -0.298  0.00  0.00    +0.017 A 
ATOM      3  C   LIG    1        1.733   0.154   0.522  0.00  0.00    +0.131 A 
ATOM      4  F   LIG    1        1.867  -0.159   1.836  0.00  0.00    -0.205 F 
ATOM      5  C   LIG    1        0.518   0.560   0.073  0.00  0.00    +0.043 A 
ATOM      6  C   LIG    1        0.351   0.889  -1.273  0.00  0.00    -0.031 A 
ATOM      7  C   LIG    1        1.443   0.781  -2.085  0.00  0.00    +0.005 A 
ENDROOT
BRANCH   2   8
ATOM      8  C   LIG    1        4.128  -0.403   0.254  0.00  0.00    -0.015 A 
ATOM      9  C   LIG    1        4.150  -1.477   1.099  0.00  0.00    +0.008 A 
ATOM     10  C   LIG    1        5.342  -1.910   1.630  0.00  0.00    +0.001 A 
ATOM     11  C   LIG    1        6.538  -1.260   1.314  0.00  0.00    +0.000 A 
ATOM     12  C   LIG    1        6.524  -0.193   0.475  0.00  0.00    +0.001 A 
ATOM     13  C   LIG    1        5.315   0.229  -0.050  0.00  0.00    +0.008 A 
ENDBRANCH   2   8
BRANCH   6  14
ATOM     14  C   LIG    1       -0.929   1.333  -1.821  0.00  0.00    +0.125 C 
ATOM     15  C   LIG    1       -1.268   2.670  -1.181  0.00  0.00    +0.024 C 
BRANCH  14  16
ATOM     16  C   LIG    1       -2.038   0.384  -1.545  0.00  0.00    +0.317 C 
ATOM     17  O   LIG    1       -2.663  -0.143  -2.502  0.00  0.00    -0.250 OA
BRANCH  16  18
ATOM     18  O   LIG    1       -2.416   0.051  -0.272  0.00  0.00    -0.425 OA
BRANCH  18  19
ATOM     19  C   LIG    1       -3.442  -0.828   0.080  0.00  0.00    +0.367 C 
ATOM     20  C   LIG    1       -2.942  -2.048   0.841  0.00  0.00    +0.100 C 
BRANCH  19  21
ATOM     21  O   LIG    1       -4.431  -0.219   0.892  0.00  0.00    -0.425 OA
BRANCH  21  22
ATOM     22  C   LIG    1       -5.760  -0.145   0.534  0.00  0.00    +0.307 C 
ATOM     23  C   LIG    1       -6.712   0.517   1.462  0.00  0.00    +0.136 C 
ATOM     24  O   LIG    1       -6.097  -0.643  -0.564  0.00  0.00    -0.251 OA
ENDBRANCH  21  22
ENDBRANCH  19  21
ENDBRANCH  18  19
ENDBRANCH  16  18
ENDBRANCH  14  16
ENDBRANCH   6  14
TORSDOF 7
