REMARK  Name = molecules/ALVDDLOWVXJXCD-OWJYZPEXSA-N.pdb
REMARK                            x       y       z     vdW  Elec       q    Type
REMARK                         _______ _______ _______ _____ _____    ______ ____
ROOT
ATOM      1  N   LIG    1        0.435  -0.651   0.769  0.00  0.00    +0.385 N 
ATOM      2  C   LIG    1       -0.100   0.038   1.925  0.00  0.00    -0.061 C 
ATOM      3  C   LIG    1       -0.353  -1.144   2.863  0.00  0.00    -0.016 C 
ATOM      4  C   LIG    1       -0.633  -2.332   1.989  0.00  0.00    -0.016 C 
ATOM      5  C   LIG    1       -1.430   0.682   1.655  0.00  0.00    +0.030 C 
ATOM      6  C   LIG    1       -2.485  -0.354   1.333  0.00  0.00    +0.173 C 
ATOM      7  C   LIG    1       -1.893  -1.241   0.237  0.00  0.00    +0.030 C 
ATOM      8  C   LIG    1        1.714  -1.193   1.179  0.00  0.00    -0.091 C 
ATOM      9  C   LIG    1       -0.532  -1.717   0.591  0.00  0.00    -0.061 C 
ENDROOT
BRANCH   1  10
ATOM     10  C   LIG    1        0.587   0.181  -0.378  0.00  0.00    -0.039 C 
BRANCH  10  11
ATOM     11  C   LIG    1        1.936   0.129  -0.983  0.00  0.00    -0.063 A 
ATOM     12  C   LIG    1        2.931   0.978  -0.552  0.00  0.00    +0.005 A 
ATOM     13  C   LIG    1        4.204   0.959  -1.095  0.00  0.00    +0.046 A 
ATOM     14  C   LIG    1        4.533   0.089  -2.092  0.00  0.00    +0.121 A 
ATOM     15  C   LIG    1        3.535  -0.781  -2.544  0.00  0.00    +0.046 A 
ATOM     16  C   LIG    1        2.305  -0.740  -1.997  0.00  0.00    +0.005 A 
BRANCH  14  17
ATOM     17  O   LIG    1        5.753  -0.018  -2.694  0.00  0.00    -0.492 OA
BRANCH  17  18
ATOM     18  C   LIG    1        6.905   0.670  -2.429  0.00  0.00    +0.229 C 
BRANCH  18  19
ATOM     19  C   LIG    1        7.508   0.429  -1.089  0.00  0.00    +0.041 C 
BRANCH  19  20
ATOM     20  C   LIG    1        8.778   1.275  -0.965  0.00  0.00    -0.000 C 
ATOM     21  C   LIG    1        9.365   1.009   0.401  0.00  0.00    +0.004 C 
ENDBRANCH  19  20
ENDBRANCH  18  19
ENDBRANCH  17  18
ENDBRANCH  14  17
ENDBRANCH  10  11
ENDBRANCH   1  10
BRANCH   6  22
ATOM     22  O   LIG    1       -3.604   0.354   0.818  0.00  0.00    -0.461 OA
BRANCH  22  23
ATOM     23  C   LIG    1       -4.853   0.244   1.421  0.00  0.00    +0.317 C 
ATOM     24  O   LIG    1       -4.906  -0.515   2.432  0.00  0.00    -0.250 OA
BRANCH  23  25
ATOM     25  C   LIG    1       -6.051   0.952   0.935  0.00  0.00    +0.153 C 
BRANCH  25  26
ATOM     26  C   LIG    1       -6.370   0.557  -0.476  0.00  0.00    -0.032 A 
ATOM     27  C   LIG    1       -6.521  -0.781  -0.739  0.00  0.00    +0.004 A 
ATOM     28  C   LIG    1       -6.816  -1.159  -2.034  0.00  0.00    +0.000 A 
ATOM     29  C   LIG    1       -6.953  -0.212  -3.026  0.00  0.00    +0.000 A 
ATOM     30  C   LIG    1       -6.803   1.126  -2.766  0.00  0.00    +0.000 A 
ATOM     31  C   LIG    1       -6.507   1.505  -1.466  0.00  0.00    +0.004 A 
ENDBRANCH  25  26
BRANCH  25  32
ATOM     32  C   LIG    1       -7.230   0.535   1.787  0.00  0.00    +0.175 C 
BRANCH  32  33
ATOM     33  O   LIG    1       -6.946   0.889   3.121  0.00  0.00    -0.394 OA
ATOM     34  H   LIG    1       -6.881   1.873   3.215  0.00  0.00    +0.209 HD
ENDBRANCH  32  33
ENDBRANCH  25  32
ENDBRANCH  23  25
ENDBRANCH  22  23
ENDBRANCH   6  22
TORSDOF 12
