REMARK  Name = molecules/ALWKGYPQUAPLQC-UHFFFAOYSA-N.pdb
REMARK                            x       y       z     vdW  Elec       q    Type
REMARK                         _______ _______ _______ _____ _____    ______ ____
ROOT
ATOM      1  C   LIG    1        0.599   0.869  -0.287  0.00  0.00    +0.135 A 
ATOM      2  C   LIG    1       -0.450   0.234   0.328  0.00  0.00    +0.068 A 
ATOM      3  C   LIG    1       -1.722   0.543  -0.085  0.00  0.00    +0.019 A 
ATOM      4  C   LIG    1       -1.920   1.462  -1.085  0.00  0.00    +0.022 A 
ATOM      5  C   LIG    1       -0.853   2.112  -1.715  0.00  0.00    +0.005 A 
ATOM      6  C   LIG    1        0.414   1.796  -1.294  0.00  0.00    +0.046 A 
ENDROOT
BRANCH   3   7
ATOM      7  N   LIG    1       -2.817  -0.103   0.538  0.00  0.00    -0.390 NA
ATOM      8  C   LIG    1       -2.497  -0.602   1.854  0.00  0.00    +0.109 C 
ATOM      9  C   LIG    1       -3.974   0.779   0.640  0.00  0.00    +0.109 C 
ATOM     10  C   LIG    1       -3.151  -1.259  -0.306  0.00  0.00    +0.109 C 
ENDBRANCH   3   7
BRANCH   1  11
ATOM     11  O   LIG    1        1.907   0.598   0.089  0.00  0.00    -0.411 OA
BRANCH  11  12
ATOM     12  C   LIG    1        2.662  -0.401  -0.502  0.00  0.00    +0.408 C 
ATOM     13  N   LIG    1        4.013  -0.668  -0.102  0.00  0.00    -0.273 N 
ATOM     14  C   LIG    1        4.634   0.103   0.941  0.00  0.00    +0.135 C 
ATOM     15  C   LIG    1        4.731  -1.728  -0.770  0.00  0.00    +0.135 C 
ATOM     16  O   LIG    1        2.110  -1.069  -1.412  0.00  0.00    -0.226 OA
ENDBRANCH  11  12
ENDBRANCH   1  11
TORSDOF 3
