REMARK  Name = molecules/ALYNCZNDIQEVRV-UHFFFAOYSA-N.pdb
REMARK                            x       y       z     vdW  Elec       q    Type
REMARK                         _______ _______ _______ _____ _____    ______ ____
ROOT
ATOM      1  C   LIG    1        1.636  -0.242   0.063  0.00  0.00    +0.025 A 
ATOM      2  C   LIG    1        1.173   0.965   0.540  0.00  0.00    +0.023 A 
ATOM      3  C   LIG    1       -0.187   1.284   0.499  0.00  0.00    +0.017 A 
ATOM      4  C   LIG    1       -1.112   0.402  -0.020  0.00  0.00    +0.059 A 
ATOM      5  C   LIG    1       -0.633  -0.803  -0.494  0.00  0.00    +0.017 A 
ATOM      6  C   LIG    1        0.710  -1.123  -0.456  0.00  0.00    +0.023 A 
ENDROOT
BRANCH   1   7
ATOM      7  N   LIG    1        3.016  -0.584   0.097  0.00  0.00    -0.358 N 
ATOM      8  H   LIG    1        3.696  -0.157   0.762  0.00  0.00    +0.142 HD
ATOM      9  H   LIG    1        3.391  -1.294  -0.566  0.00  0.00    +0.142 HD
ENDBRANCH   1   7
BRANCH   4  10
ATOM     10  C   LIG    1       -2.536   0.698  -0.080  0.00  0.00    +0.337 C 
ATOM     11  O   LIG    1       -3.017   1.777   0.337  0.00  0.00    -0.245 OA
BRANCH  10  12
ATOM     12  O   LIG    1       -3.418  -0.225  -0.612  0.00  0.00    -0.477 OA
ATOM     13  H   LIG    1       -3.723  -1.059  -0.168  0.00  0.00    +0.295 HD
ENDBRANCH  10  12
ENDBRANCH   4  10
TORSDOF 3
