REMARK  Name = molecules/AMTPYFGPPVFBBI-UHFFFAOYSA-N.pdb
REMARK                            x       y       z     vdW  Elec       q    Type
REMARK                         _______ _______ _______ _____ _____    ______ ____
ROOT
ATOM      1  S   LIG    1       -0.197  -1.005   2.455  0.00  0.00    +0.025 S 
ATOM      2  O   LIG    1       -0.394  -0.071   3.619  0.00  0.00    -0.164 OA
ATOM      3  O   LIG    1       -0.164  -2.402   3.011  0.00  0.00    -0.164 OA
ENDROOT
BRANCH   1   4
ATOM      4  C   LIG    1        1.290  -0.610   1.617  0.00  0.00    +0.094 A 
ATOM      5  C   LIG    1        1.741   0.687   1.584  0.00  0.00    +0.029 A 
ATOM      6  C   LIG    1        2.931   1.029   0.918  0.00  0.00    +0.025 A 
ATOM      7  C   LIG    1        3.693   0.089   0.274  0.00  0.00    +0.033 A 
ATOM      8  C   LIG    1        3.206  -1.223   0.326  0.00  0.00    +0.025 A 
ATOM      9  C   LIG    1        2.046  -1.562   0.974  0.00  0.00    +0.029 A 
BRANCH   7  10
ATOM     10  N   LIG    1        4.898   0.324  -0.422  0.00  0.00    -0.286 N 
ATOM     11  C   LIG    1        5.535   1.546  -0.586  0.00  0.00    +0.214 C 
ATOM     12  O   LIG    1        5.095   2.609  -0.119  0.00  0.00    -0.276 OA
ATOM     13  C   LIG    1        6.826   1.678  -1.353  0.00  0.00    +0.109 C 
ATOM     14  H   LIG    1        5.398  -0.510  -0.883  0.00  0.00    +0.155 HD
ENDBRANCH   7  10
ENDBRANCH   1   4
BRANCH   1  15
ATOM     15  C   LIG    1       -1.517  -0.866   1.326  0.00  0.00    +0.094 A 
ATOM     16  C   LIG    1       -2.179   0.318   1.169  0.00  0.00    +0.029 A 
ATOM     17  C   LIG    1       -3.247   0.485   0.276  0.00  0.00    +0.025 A 
ATOM     18  C   LIG    1       -3.683  -0.560  -0.497  0.00  0.00    +0.033 A 
ATOM     19  C   LIG    1       -2.991  -1.766  -0.321  0.00  0.00    +0.025 A 
ATOM     20  C   LIG    1       -1.948  -1.922   0.553  0.00  0.00    +0.029 A 
BRANCH  18  21
ATOM     21  N   LIG    1       -4.751  -0.505  -1.422  0.00  0.00    -0.286 N 
ATOM     22  C   LIG    1       -5.445   0.665  -1.769  0.00  0.00    +0.214 C 
ATOM     23  O   LIG    1       -5.206   1.791  -1.309  0.00  0.00    -0.276 OA
ATOM     24  C   LIG    1       -6.560   0.520  -2.776  0.00  0.00    +0.109 C 
ATOM     25  H   LIG    1       -5.022  -1.434  -1.864  0.00  0.00    +0.155 HD
ENDBRANCH  18  21
ENDBRANCH   1  15
TORSDOF 4
