REMARK  Name = molecules/AMVODTGMYSRMNP-GNIMZFFESA-N.pdb
REMARK                            x       y       z     vdW  Elec       q    Type
REMARK                         _______ _______ _______ _____ _____    ______ ____
ROOT
ATOM      1  C   LIG    1        2.269  -1.863  -0.044  0.00  0.00    +0.020 C 
ATOM      2  C   LIG    1        2.132  -0.313  -0.168  0.00  0.00    +0.014 C 
ATOM      3  C   LIG    1        2.695   0.204   1.071  0.00  0.00    -0.056 C 
ATOM      4  C   LIG    1        1.910   0.003   2.366  0.00  0.00    +0.032 C 
ATOM      5  C   LIG    1        0.625   0.795   2.077  0.00  0.00    +0.008 C 
ATOM      6  C   LIG    1       -0.064   0.115   0.970  0.00  0.00    -0.000 C 
ATOM      7  C   LIG    1       -1.394   0.669   0.610  0.00  0.00    +0.001 C 
ATOM      8  C   LIG    1       -2.285   1.101   1.689  0.00  0.00    +0.007 C 
ATOM      9  C   LIG    1       -3.591   1.288   0.900  0.00  0.00    +0.035 C 
ATOM     10  C   LIG    1       -3.525   0.224  -0.195  0.00  0.00    +0.069 C 
ATOM     11  C   LIG    1       -3.747   0.820  -1.555  0.00  0.00    +0.042 C 
ATOM     12  C   LIG    1       -2.186  -0.443  -0.048  0.00  0.00    +0.002 C 
ATOM     13  C   LIG    1       -2.271  -1.686   0.763  0.00  0.00    +0.014 C 
ATOM     14  C   LIG    1       -1.489  -0.694  -1.364  0.00  0.00    +0.041 C 
ATOM     15  C   LIG    1       -0.051  -1.038  -1.162  0.00  0.00    +0.120 C 
ATOM     16  C   LIG    1        3.810   0.877   1.097  0.00  0.00    +0.051 C 
ATOM     17  C   LIG    1        4.593   1.185  -0.096  0.00  0.00    +0.189 C 
ATOM     18  O   LIG    1        5.670   1.832  -0.073  0.00  0.00    -0.287 OA
ATOM     19  C   LIG    1        4.071   0.701  -1.365  0.00  0.00    +0.058 C 
ATOM     20  C   LIG    1        0.690   0.030  -0.352  0.00  0.00    +0.035 C 
ATOM     21  C   LIG    1        2.942   0.025  -1.331  0.00  0.00    -0.001 C 
ENDROOT
BRANCH  10  22
ATOM     22  O   LIG    1       -4.543  -0.681   0.077  0.00  0.00    -0.388 OA
ATOM     23  H   LIG    1       -5.316  -0.218   0.520  0.00  0.00    +0.210 HD
ENDBRANCH  10  22
BRANCH  15  24
ATOM     24  O   LIG    1        0.504  -1.188  -2.430  0.00  0.00    -0.391 OA
ATOM     25  H   LIG    1        0.186  -2.046  -2.789  0.00  0.00    +0.210 HD
ENDBRANCH  15  24
BRANCH  19  26
ATOM     26  C   LIG    1        4.776   0.957  -2.630  0.00  0.00    +0.262 C 
ATOM     27  O   LIG    1        5.845   1.595  -2.672  0.00  0.00    -0.296 OA
ENDBRANCH  19  26
TORSDOF 3
