REMARK  Name = molecules/ANGKOCUUWGHLCE-IEBWSBKVSA-N.pdb
REMARK                            x       y       z     vdW  Elec       q    Type
REMARK                         _______ _______ _______ _____ _____    ______ ____
ROOT
ATOM      1  C   LIG    1       -1.637   0.207   0.717  0.00  0.00    +0.190 C 
ENDROOT
BRANCH   1   7
ATOM      2  C   LIG    1       -2.544   2.132   2.055  0.00  0.00    +0.007 A 
ATOM      3  C   LIG    1       -3.034   3.408   2.188  0.00  0.00    +0.000 A 
ATOM      4  C   LIG    1       -3.167   4.213   1.087  0.00  0.00    +0.000 A 
ATOM      5  C   LIG    1       -2.798   3.702  -0.140  0.00  0.00    +0.000 A 
ATOM      6  C   LIG    1       -2.306   2.418  -0.264  0.00  0.00    +0.007 A 
ATOM      7  C   LIG    1       -2.162   1.591   0.823  0.00  0.00    -0.005 A 
ENDBRANCH   1   7
BRANCH   1   8
ATOM      8  C   LIG    1       -2.712  -0.772   0.333  0.00  0.00    +0.036 C 
ATOM      9  C   LIG    1       -2.227  -2.171   0.193  0.00  0.00    +0.007 C 
ATOM     10  C   LIG    1       -2.875  -2.761  -1.046  0.00  0.00    +0.000 C 
ATOM     11  C   LIG    1       -4.074  -1.821  -1.231  0.00  0.00    +0.000 C 
ATOM     12  C   LIG    1       -3.360  -0.484  -0.978  0.00  0.00    +0.007 C 
ENDBRANCH   1   8
BRANCH   1  13
ATOM     13  O   LIG    1       -1.226  -0.154   2.021  0.00  0.00    -0.373 OA
ATOM     14  H   LIG    1       -1.962  -0.484   2.563  0.00  0.00    +0.211 HD
ENDBRANCH   1  13
BRANCH   1  15
ATOM     15  C   LIG    1       -0.437   0.104  -0.140  0.00  0.00    +0.344 C 
ATOM     16  O   LIG    1       -0.477   0.365  -1.387  0.00  0.00    -0.247 OA
BRANCH  15  17
ATOM     17  O   LIG    1        0.803  -0.278   0.343  0.00  0.00    -0.461 OA
BRANCH  17  18
ATOM     18  C   LIG    1        1.946  -0.374  -0.486  0.00  0.00    +0.159 C 
ATOM     19  C   LIG    1        3.078   0.437   0.084  0.00  0.00    -0.031 C 
ATOM     20  N   LIG    1        4.303  -0.258  -0.248  0.00  0.00    +0.379 N 
ATOM     21  C   LIG    1        5.165  -0.415   0.909  0.00  0.00    -0.092 C 
ATOM     22  C   LIG    1        3.953  -1.565  -0.715  0.00  0.00    -0.072 C 
ATOM     23  C   LIG    1        5.081   0.448  -1.256  0.00  0.00    -0.092 C 
ATOM     24  C   LIG    1        2.504  -1.794  -0.354  0.00  0.00    +0.025 C 
ENDBRANCH  17  18
ENDBRANCH  15  17
ENDBRANCH   1  15
TORSDOF 6
