REMARK  Name = molecules/ANIAZGVDEUQPRI-ZJQCGQFWSA-N.pdb
REMARK                            x       y       z     vdW  Elec       q    Type
REMARK                         _______ _______ _______ _____ _____    ______ ____
ROOT
ATOM      1  C   UNK    1       -2.451   7.245   0.000  0.00  0.00    +0.211 C 
ATOM      2  N   UNK    1       -1.701   5.946   0.000  0.00  0.00    -0.127 NA
ENDROOT
BRANCH   1   3
ATOM      3  C   UNK    1       -3.750   6.495   0.000  0.00  0.00    +0.326 C 
ATOM      4  O   UNK    1       -5.049   7.245   0.000  0.00  0.00    -0.249 OA
BRANCH   3   5
ATOM      5  O   UNK    1       -3.750   4.995   0.000  0.00  0.00    -0.479 OA
ATOM      6  H   UNK    1       -2.451   4.647   0.000  0.00  0.00    +0.295 HD
ENDBRANCH   3   5
ENDBRANCH   1   3
BRANCH   1   7
ATOM      7  C   UNK    1       -1.152   7.995   0.000  0.00  0.00    +0.114 C 
BRANCH   7   8
ATOM      8  S   UNK    1        0.147   8.745   0.000  0.00  0.00    -0.091 S 
ATOM      9  S   UNK    1        1.446   7.995   0.000  0.00  0.00    -0.087 S 
ATOM     10  C   UNK    1        2.745   8.745   0.000  0.00  0.00    +0.087 C 
ENDBRANCH   7   8
ENDBRANCH   1   7
TORSDOF 4
REMARK  Name = molecules/ANIAZGVDEUQPRI-ZJQCGQFWSA-N.pdb
REMARK                            x       y       z     vdW  Elec       q    Type
REMARK                         _______ _______ _______ _____ _____    ______ ____
ROOT
ATOM      1  N   LIG    1        9.294   5.598   0.000  0.00  0.00    -0.163 NA
ATOM      2  C   LIG    1        9.642   6.897   0.000  0.00  0.00    +0.121 C 
ATOM      3  C   LIG    1        7.794   5.598   0.000  0.00  0.00    +0.121 C 
ENDROOT
BRANCH   1   4
ATOM      4  O   LIG    1       10.005   5.442   0.000  0.00  0.00    -0.279 OA
ATOM      5  C   LIG    1       10.044   4.299   0.000  0.00  0.00    +0.201 C 
ENDBRANCH   1   4
TORSDOF 1
REMARK  Name = molecules/ANIAZGVDEUQPRI-ZJQCGQFWSA-N.pdb
REMARK                            x       y       z     vdW  Elec       q    Type
REMARK                         _______ _______ _______ _____ _____    ______ ____
ROOT
ATOM      1  N   LIG    1        4.794   8.196   0.000  0.00  0.00    -0.265 NA
ATOM      2  H   LIG    1        5.215   7.154   0.000  0.00  0.00    +0.170 HD
ENDROOT
BRANCH   1   3
ATOM      3  C   LIG    1        4.044   6.897   0.000  0.00  0.00    +0.059 C 
ATOM      4  C   LIG    1        4.794   5.598   0.000  0.00  0.00    +0.036 C 
ENDBRANCH   1   3
TORSDOF 1
REMARK  Name = molecules/ANIAZGVDEUQPRI-ZJQCGQFWSA-N.pdb
REMARK                            x       y       z     vdW  Elec       q    Type
REMARK                         _______ _______ _______ _____ _____    ______ ____
ROOT
ATOM      1  C   LIG    1       15.642   4.701   0.000  0.00  0.00    +0.150 C 
ATOM      2  N   LIG    1       14.892   6.000   0.000  0.00  0.00    -0.135 NA
ENDROOT
BRANCH   1   4
ATOM      3  N   LIG    1       14.343   2.451   0.000  0.00  0.00    -0.096 NA
ATOM      4  C   LIG    1       14.343   3.951   0.000  0.00  0.00    +0.253 C 
BRANCH   4   5
ATOM      5  O   LIG    1       13.396   4.498   0.000  0.00  0.00    -0.202 OA
BRANCH   5   6
ATOM      6  O   LIG    1       12.994   5.310   0.000  0.00  0.00    -0.216 OA
ATOM      7  C   LIG    1       13.392   6.000   0.000  0.00  0.00    +0.218 C 
ENDBRANCH   5   6
ENDBRANCH   4   5
ENDBRANCH   1   4
BRANCH   1   8
ATOM      8  C   LIG    1       16.941   5.451   0.000  0.00  0.00    +0.030 C 
BRANCH   8   9
ATOM      9  C   LIG    1       18.240   6.201   0.000  0.00  0.00    +0.042 C 
BRANCH   9  10
ATOM     10  C   LIG    1       19.539   6.951   0.000  0.00  0.00    +0.244 C 
BRANCH  10  11
ATOM     11  N   LIG    1       20.838   7.701   0.000  0.00  0.00    -0.102 NA
BRANCH  11  12
ATOM     12  C   LIG    1       22.137   6.951   0.000  0.00  0.00    +0.534 C 
ATOM     13  N   LIG    1       23.436   7.701   0.000  0.00  0.00    +0.135 NA
ATOM     14  N   LIG    1       22.137   5.451   0.000  0.00  0.00    +0.135 NA
ENDBRANCH  11  12
ENDBRANCH  10  11
ENDBRANCH   9  10
ENDBRANCH   8   9
ENDBRANCH   1   8
TORSDOF 8
REMARK  Name = molecules/ANIAZGVDEUQPRI-ZJQCGQFWSA-N.pdb
REMARK                            x       y       z     vdW  Elec       q    Type
REMARK                         _______ _______ _______ _____ _____    ______ ____
ROOT
ATOM      1  O   HOH    1        2.544   6.897   0.000  0.00  0.00    -0.253 OA
ATOM      2  H   HOH    0        3.159   7.303   0.000  0.00  0.00    +0.253 HD
ENDROOT
TORSDOF 0
REMARK  Name = molecules/ANIAZGVDEUQPRI-ZJQCGQFWSA-N.pdb
REMARK                            x       y       z     vdW  Elec       q    Type
REMARK                         _______ _______ _______ _____ _____    ______ ____
ROOT
ATOM      1  N   LIG    1       11.343   6.549   0.000  0.00  0.00    -0.273 NA
ATOM      2  H   LIG    1       10.197   6.796   0.000  0.00  0.00    +0.137 HD
ATOM      3  H   LIG    1       11.983   6.568   0.000  0.00  0.00    +0.137 HD
ENDROOT
TORSDOF 0
REMARK  Name = molecules/ANIAZGVDEUQPRI-ZJQCGQFWSA-N.pdb
REMARK                            x       y       z     vdW  Elec       q    Type
REMARK                         _______ _______ _______ _____ _____    ______ ____
ROOT
ATOM      1  N   LIG    1       10.191   8.946   0.000  0.00  0.00    -0.163 NA
ATOM      2  H   LIG    1       11.142   9.897   0.000  0.00  0.00    +0.163 HD
ENDROOT
TORSDOF 0
REMARK  Name = molecules/ANIAZGVDEUQPRI-ZJQCGQFWSA-N.pdb
REMARK                            x       y       z     vdW  Elec       q    Type
REMARK                         _______ _______ _______ _____ _____    ______ ____
ROOT
ATOM      1  N   LIG    1        6.642   9.495   0.000  0.00  0.00    +0.380 N 
ATOM      2  H   LIG    1        6.283   8.379   0.000  0.00  0.00    -0.089 HD
ATOM      3  H   LIG    1        7.492   9.099   0.000  0.00  0.00    -0.089 HD
ATOM      4  H   LIG    1        6.623  10.537   0.000  0.00  0.00    -0.089 HD
ENDROOT
BRANCH   1   5
ATOM      5  C   LIG    1        5.544   9.495   0.000  0.00  0.00    -0.087 C 
BRANCH   5   6
ATOM      6  C   LIG    1        5.343  10.245   0.000  0.00  0.00    -0.028 C 
ATOM      7  C   LIG    1        4.794  10.794   0.000  0.00  0.00    +0.003 C 
ENDBRANCH   5   6
ENDBRANCH   1   5
TORSDOF 2
REMARK  Name = molecules/ANIAZGVDEUQPRI-ZJQCGQFWSA-N.pdb
REMARK                            x       y       z     vdW  Elec       q    Type
REMARK                         _______ _______ _______ _____ _____    ______ ____
ROOT
ATOM      1  N   LIG    1        8.343   7.647   0.000  0.00  0.00    -0.083 NA
ATOM      2  C   LIG    1        8.691   8.946   0.000  0.00  0.00    +0.143 C 
ENDROOT
BRANCH   1   3
ATOM      3  O   LIG    1        7.649   7.867   0.000  0.00  0.00    -0.277 OA
ATOM      4  C   LIG    1        7.044   6.897   0.000  0.00  0.00    +0.217 C 
ENDBRANCH   1   3
TORSDOF 1
REMARK  Name = molecules/ANIAZGVDEUQPRI-ZJQCGQFWSA-N.pdb
REMARK                            x       y       z     vdW  Elec       q    Type
REMARK                         _______ _______ _______ _____ _____    ______ ____
ROOT
ATOM      1  C   LIG    1       11.343   5.049   0.000  0.00  0.00    +0.279 C 
ATOM      2  O   LIG    1       12.110   4.606   0.000  0.00  0.00    -0.279 OA
ENDROOT
TORSDOF 0
REMARK  Name = molecules/ANIAZGVDEUQPRI-ZJQCGQFWSA-N.pdb
REMARK                            x       y       z     vdW  Elec       q    Type
REMARK                         _______ _______ _______ _____ _____    ______ ____
ROOT
ATOM      1  N   LIG    1        4.848   1.299   0.000  0.00  0.00    -0.102 NA
ENDROOT
BRANCH   1   2
ATOM      2  C   LIG    1        4.848  -0.201   0.000  0.00  0.00    +0.534 C 
ATOM      3  N   LIG    1        3.549  -0.951   0.000  0.00  0.00    +0.135 NA
ATOM      4  N   LIG    1        6.147  -0.951   0.000  0.00  0.00    +0.135 NA
ENDBRANCH   1   2
BRANCH   1   5
ATOM      5  C   LIG    1        6.147   2.049   0.000  0.00  0.00    +0.244 C 
BRANCH   5   7
ATOM      6  C   LIG    1        8.745   3.549   0.000  0.00  0.00    -0.001 C 
ATOM      7  C   LIG    1        7.446   2.799   0.000  0.00  0.00    +0.045 C 
ENDBRANCH   5   7
ENDBRANCH   1   5
TORSDOF 3
REMARK  Name = molecules/ANIAZGVDEUQPRI-ZJQCGQFWSA-N.pdb
REMARK                            x       y       z     vdW  Elec       q    Type
REMARK                         _______ _______ _______ _____ _____    ______ ____
ROOT
ATOM      1  C   LIG    1        4.044   9.495   0.000  0.00  0.00    -0.000 C 
ENDROOT
TORSDOF 0
REMARK  Name = molecules/ANIAZGVDEUQPRI-ZJQCGQFWSA-N.pdb
REMARK                            x       y       z     vdW  Elec       q    Type
REMARK                         _______ _______ _______ _____ _____    ______ ____
ROOT
ATOM      1  C   LIG    1        4.794  13.392   0.000  0.00  0.00    +0.568 C 
ATOM      2  N   LIG    1        4.044  14.691   0.000  0.00  0.00    +0.138 NA
ATOM      3  N   LIG    1        6.294  13.392   0.000  0.00  0.00    +0.138 NA
ENDROOT
BRANCH   1   5
ATOM      4  O   LIG    1        5.526  11.734   0.000  0.00  0.00    +0.029 OA
ATOM      5  N   LIG    1        4.044  12.093   0.000  0.00  0.00    +0.116 NA
ENDBRANCH   1   5
TORSDOF 1
REMARK  Name = molecules/ANIAZGVDEUQPRI-ZJQCGQFWSA-N.pdb
REMARK                            x       y       z     vdW  Elec       q    Type
REMARK                         _______ _______ _______ _____ _____    ______ ____
ROOT
ATOM      1  C   LIG    1       11.892   8.598   0.000  0.00  0.00    +0.000 C 
ENDROOT
TORSDOF 0
REMARK  Name = molecules/ANIAZGVDEUQPRI-ZJQCGQFWSA-N.pdb
REMARK                            x       y       z     vdW  Elec       q    Type
REMARK                         _______ _______ _______ _____ _____    ______ ____
ROOT
ATOM      1  C   LIG    1       12.642   7.299   0.000  0.00  0.00    +0.005 C 
ATOM      2  C   LIG    1       12.240   8.397   0.000  0.00  0.00    -0.005 C 
ENDROOT
TORSDOF 0
REMARK  Name = molecules/ANIAZGVDEUQPRI-ZJQCGQFWSA-N.pdb
REMARK                            x       y       z     vdW  Elec       q    Type
REMARK                         _______ _______ _______ _____ _____    ______ ____
ROOT
ATOM      1  N   LIG    1       16.137  10.647   0.000  0.00  0.00    -0.102 NA
ENDROOT
BRANCH   1   2
ATOM      2  C   LIG    1       16.137  12.147   0.000  0.00  0.00    +0.534 C 
ATOM      3  N   LIG    1       14.838  12.897   0.000  0.00  0.00    +0.135 NA
ATOM      4  N   LIG    1       17.436  12.897   0.000  0.00  0.00    +0.135 NA
ENDBRANCH   1   2
BRANCH   1   6
ATOM      5  C   LIG    1       13.539   9.147   0.000  0.00  0.00    +0.044 C 
ATOM      6  C   LIG    1       14.838   9.897   0.000  0.00  0.00    +0.244 C 
ENDBRANCH   1   6
TORSDOF 2
REMARK  Name = molecules/ANIAZGVDEUQPRI-ZJQCGQFWSA-N.pdb
REMARK                            x       y       z     vdW  Elec       q    Type
REMARK                         _______ _______ _______ _____ _____    ______ ____
ROOT
ATOM      1  C   LIG    1       10.941   7.647   0.000  0.00  0.00    -0.000 C 
ENDROOT
TORSDOF 0
REMARK  Name = molecules/ANIAZGVDEUQPRI-ZJQCGQFWSA-N.pdb
REMARK                            x       y       z     vdW  Elec       q    Type
REMARK                         _______ _______ _______ _____ _____    ______ ____
ROOT
ATOM      1  C   LIG    1        7.191  11.544   0.000  0.00  0.00    -0.000 C 
ENDROOT
TORSDOF 0
REMARK  Name = molecules/ANIAZGVDEUQPRI-ZJQCGQFWSA-N.pdb
REMARK                            x       y       z     vdW  Elec       q    Type
REMARK                         _______ _______ _______ _____ _____    ______ ____
ROOT
ATOM      1  C   LIG    1        7.941  10.245   0.000  0.00  0.00    +0.000 C 
ENDROOT
TORSDOF 0
REMARK  Name = molecules/ANIAZGVDEUQPRI-ZJQCGQFWSA-N.pdb
REMARK                            x       y       z     vdW  Elec       q    Type
REMARK                         _______ _______ _______ _____ _____    ______ ____
ROOT
ATOM      1  C   LIG    1        6.294   8.196   0.000  0.00  0.00    +0.000 C 
ENDROOT
TORSDOF 0
REMARK  Name = molecules/ANIAZGVDEUQPRI-ZJQCGQFWSA-N.pdb
REMARK                            x       y       z     vdW  Elec       q    Type
REMARK                         _______ _______ _______ _____ _____    ______ ____
ROOT
ATOM      1  O   HOH    1        6.891   4.400   0.000  0.00  0.00    -0.410 OA
ATOM      2  H   HOH    0        7.703   4.628   0.000  0.00  0.00    +0.205 HD
ATOM      3  H   HOH    0        5.544   4.299   0.000  0.00  0.00    +0.205 HD
ENDROOT
TORSDOF 0
REMARK  Name = molecules/ANIAZGVDEUQPRI-ZJQCGQFWSA-N.pdb
REMARK                            x       y       z     vdW  Elec       q    Type
REMARK                         _______ _______ _______ _____ _____    ______ ____
ROOT
ATOM      1  H   UNK    1       13.044   1.701   0.000  0.00  0.00    +0.000 HD
ENDROOT
TORSDOF 0
REMARK  Name = molecules/ANIAZGVDEUQPRI-ZJQCGQFWSA-N.pdb
REMARK                            x       y       z     vdW  Elec       q    Type
REMARK                         _______ _______ _______ _____ _____    ______ ____
ROOT
ATOM      1  H   UNK    1       15.642   1.701   0.000  0.00  0.00    +0.000 HD
ENDROOT
TORSDOF 0
REMARK  Name = molecules/ANIAZGVDEUQPRI-ZJQCGQFWSA-N.pdb
REMARK                            x       y       z     vdW  Elec       q    Type
REMARK                         _______ _______ _______ _____ _____    ______ ____
ROOT
ATOM      1  H   UNK    1       15.478   7.381   0.000  0.00  0.00    +0.000 HD
ENDROOT
TORSDOF 0
REMARK  Name = molecules/ANIAZGVDEUQPRI-ZJQCGQFWSA-N.pdb
REMARK                            x       y       z     vdW  Elec       q    Type
REMARK                         _______ _______ _______ _____ _____    ______ ____
ROOT
ATOM      1  H   UNK    1       10.605  10.388   0.000  0.00  0.00    +0.000 HD
ENDROOT
TORSDOF 0
REMARK  Name = molecules/ANIAZGVDEUQPRI-ZJQCGQFWSA-N.pdb
REMARK                            x       y       z     vdW  Elec       q    Type
REMARK                         _______ _______ _______ _____ _____    ______ ____
ROOT
ATOM      1  H   UNK    1       -5.049   4.245   0.000  0.00  0.00    +0.000 HD
ENDROOT
TORSDOF 0
REMARK  Name = molecules/ANIAZGVDEUQPRI-ZJQCGQFWSA-N.pdb
REMARK                            x       y       z     vdW  Elec       q    Type
REMARK                         _______ _______ _______ _____ _____    ______ ____
ROOT
ATOM      1  H   UNK    1       -0.212   5.763   0.000  0.00  0.00    +0.000 HD
ENDROOT
TORSDOF 0
REMARK  Name = molecules/ANIAZGVDEUQPRI-ZJQCGQFWSA-N.pdb
REMARK                            x       y       z     vdW  Elec       q    Type
REMARK                         _______ _______ _______ _____ _____    ______ ____
ROOT
ATOM      1  H   UNK    1        3.549   2.049   0.000  0.00  0.00    +0.000 HD
ENDROOT
TORSDOF 0
REMARK  Name = molecules/ANIAZGVDEUQPRI-ZJQCGQFWSA-N.pdb
REMARK                            x       y       z     vdW  Elec       q    Type
REMARK                         _______ _______ _______ _____ _____    ______ ____
ROOT
ATOM      1  H   UNK    1        6.147  -2.451   0.000  0.00  0.00    +0.000 HD
ENDROOT
TORSDOF 0
REMARK  Name = molecules/ANIAZGVDEUQPRI-ZJQCGQFWSA-N.pdb
REMARK                            x       y       z     vdW  Elec       q    Type
REMARK                         _______ _______ _______ _____ _____    ______ ____
ROOT
ATOM      1  H   UNK    1        7.446  -0.201   0.000  0.00  0.00    +0.000 HD
ENDROOT
TORSDOF 0
REMARK  Name = molecules/ANIAZGVDEUQPRI-ZJQCGQFWSA-N.pdb
REMARK                            x       y       z     vdW  Elec       q    Type
REMARK                         _______ _______ _______ _____ _____    ______ ____
ROOT
ATOM      1  H   UNK    1        3.549  -2.451   0.000  0.00  0.00    +0.000 HD
ENDROOT
TORSDOF 0
REMARK  Name = molecules/ANIAZGVDEUQPRI-ZJQCGQFWSA-N.pdb
REMARK                            x       y       z     vdW  Elec       q    Type
REMARK                         _______ _______ _______ _____ _____    ______ ____
ROOT
ATOM      1  H   UNK    1       10.794   3.000   0.000  0.00  0.00    +0.000 HD
ENDROOT
TORSDOF 0
REMARK  Name = molecules/ANIAZGVDEUQPRI-ZJQCGQFWSA-N.pdb
REMARK                            x       y       z     vdW  Elec       q    Type
REMARK                         _______ _______ _______ _____ _____    ______ ____
ROOT
ATOM      1  H   UNK    1        3.142  10.693   0.000  0.00  0.00    +0.000 HD
ENDROOT
TORSDOF 0
REMARK  Name = molecules/ANIAZGVDEUQPRI-ZJQCGQFWSA-N.pdb
REMARK                            x       y       z     vdW  Elec       q    Type
REMARK                         _______ _______ _______ _____ _____    ______ ____
ROOT
ATOM      1  H   UNK    1       20.838   9.201   0.000  0.00  0.00    +0.000 HD
ENDROOT
TORSDOF 0
REMARK  Name = molecules/ANIAZGVDEUQPRI-ZJQCGQFWSA-N.pdb
REMARK                            x       y       z     vdW  Elec       q    Type
REMARK                         _______ _______ _______ _____ _____    ______ ____
ROOT
ATOM      1  H   UNK    1       23.436   4.701   0.000  0.00  0.00    +0.000 HD
ENDROOT
TORSDOF 0
REMARK  Name = molecules/ANIAZGVDEUQPRI-ZJQCGQFWSA-N.pdb
REMARK                            x       y       z     vdW  Elec       q    Type
REMARK                         _______ _______ _______ _____ _____    ______ ____
ROOT
ATOM      1  H   UNK    1       20.838   4.701   0.000  0.00  0.00    +0.000 HD
ENDROOT
TORSDOF 0
REMARK  Name = molecules/ANIAZGVDEUQPRI-ZJQCGQFWSA-N.pdb
REMARK                            x       y       z     vdW  Elec       q    Type
REMARK                         _______ _______ _______ _____ _____    ______ ____
ROOT
ATOM      1  H   UNK    1       24.736   6.951   0.000  0.00  0.00    +0.000 HD
ENDROOT
TORSDOF 0
REMARK  Name = molecules/ANIAZGVDEUQPRI-ZJQCGQFWSA-N.pdb
REMARK                            x       y       z     vdW  Elec       q    Type
REMARK                         _______ _______ _______ _____ _____    ______ ____
ROOT
ATOM      1  H   UNK    1       12.789  10.446   0.000  0.00  0.00    +0.000 HD
ENDROOT
TORSDOF 0
REMARK  Name = molecules/ANIAZGVDEUQPRI-ZJQCGQFWSA-N.pdb
REMARK                            x       y       z     vdW  Elec       q    Type
REMARK                         _______ _______ _______ _____ _____    ______ ____
ROOT
ATOM      1  H   UNK    1       14.442   7.949   0.000  0.00  0.00    +0.000 HD
ENDROOT
TORSDOF 0
REMARK  Name = molecules/ANIAZGVDEUQPRI-ZJQCGQFWSA-N.pdb
REMARK                            x       y       z     vdW  Elec       q    Type
REMARK                         _______ _______ _______ _____ _____    ______ ____
ROOT
ATOM      1  H   UNK    1       17.436   9.897   0.000  0.00  0.00    +0.000 HD
ENDROOT
TORSDOF 0
REMARK  Name = molecules/ANIAZGVDEUQPRI-ZJQCGQFWSA-N.pdb
REMARK                            x       y       z     vdW  Elec       q    Type
REMARK                         _______ _______ _______ _____ _____    ______ ____
ROOT
ATOM      1  H   UNK    1       14.838  14.397   0.000  0.00  0.00    +0.000 HD
ENDROOT
TORSDOF 0
REMARK  Name = molecules/ANIAZGVDEUQPRI-ZJQCGQFWSA-N.pdb
REMARK                            x       y       z     vdW  Elec       q    Type
REMARK                         _______ _______ _______ _____ _____    ______ ____
ROOT
ATOM      1  H   UNK    1       13.539  12.147   0.000  0.00  0.00    +0.000 HD
ENDROOT
TORSDOF 0
REMARK  Name = molecules/ANIAZGVDEUQPRI-ZJQCGQFWSA-N.pdb
REMARK                            x       y       z     vdW  Elec       q    Type
REMARK                         _______ _______ _______ _____ _____    ______ ____
ROOT
ATOM      1  H   UNK    1       17.436  14.397   0.000  0.00  0.00    +0.000 HD
ENDROOT
TORSDOF 0
REMARK  Name = molecules/ANIAZGVDEUQPRI-ZJQCGQFWSA-N.pdb
REMARK                            x       y       z     vdW  Elec       q    Type
REMARK                         _______ _______ _______ _____ _____    ______ ____
ROOT
ATOM      1  H   UNK    1        6.778  12.986   0.000  0.00  0.00    +0.000 HD
ENDROOT
TORSDOF 0
REMARK  Name = molecules/ANIAZGVDEUQPRI-ZJQCGQFWSA-N.pdb
REMARK                            x       y       z     vdW  Elec       q    Type
REMARK                         _______ _______ _______ _____ _____    ______ ____
ROOT
ATOM      1  H   UNK    1        8.490  12.294   0.000  0.00  0.00    +0.000 HD
ENDROOT
TORSDOF 0
REMARK  Name = molecules/ANIAZGVDEUQPRI-ZJQCGQFWSA-N.pdb
REMARK                            x       y       z     vdW  Elec       q    Type
REMARK                         _______ _______ _______ _____ _____    ______ ____
ROOT
ATOM      1  H   UNK    1        9.240  10.995   0.000  0.00  0.00    +0.000 HD
ENDROOT
TORSDOF 0
REMARK  Name = molecules/ANIAZGVDEUQPRI-ZJQCGQFWSA-N.pdb
REMARK                            x       y       z     vdW  Elec       q    Type
REMARK                         _______ _______ _______ _____ _____    ______ ____
ROOT
ATOM      1  H   UNK    1        2.544  12.093   0.000  0.00  0.00    +0.000 HD
ENDROOT
TORSDOF 0
REMARK  Name = molecules/ANIAZGVDEUQPRI-ZJQCGQFWSA-N.pdb
REMARK                            x       y       z     vdW  Elec       q    Type
REMARK                         _______ _______ _______ _____ _____    ______ ____
ROOT
ATOM      1  H   UNK    1        7.044  14.691   0.000  0.00  0.00    +0.000 HD
ENDROOT
TORSDOF 0
REMARK  Name = molecules/ANIAZGVDEUQPRI-ZJQCGQFWSA-N.pdb
REMARK                            x       y       z     vdW  Elec       q    Type
REMARK                         _______ _______ _______ _____ _____    ______ ____
ROOT
ATOM      1  H   UNK    1        4.794  15.990   0.000  0.00  0.00    +0.000 HD
ENDROOT
TORSDOF 0
