REMARK  Name = molecules/ANJNOJFLVNXCHT-UHFFFAOYSA-N.pdb
REMARK                            x       y       z     vdW  Elec       q    Type
REMARK                         _______ _______ _______ _____ _____    ______ ____
ROOT
ATOM      1  C   LIG    1        0.723   0.197  -1.592  0.00  0.00    +0.240 C 
ATOM      2  S   LIG    1        0.703   1.796  -1.394  0.00  0.00    +0.007 S 
ENDROOT
BRANCH   1   3
ATOM      3  N   LIG    1        1.674  -0.657  -1.078  0.00  0.00    -0.268 N 
ATOM      4  C   LIG    1        1.477  -2.100  -1.393  0.00  0.00    +0.139 C 
BRANCH   3   5
ATOM      5  C   LIG    1        2.799  -0.337  -0.288  0.00  0.00    +0.037 A 
ATOM      6  C   LIG    1        3.592  -1.372   0.228  0.00  0.00    +0.023 A 
ATOM      7  C   LIG    1        4.699  -1.174   1.014  0.00  0.00    +0.002 A 
ATOM      8  C   LIG    1        5.089   0.099   1.337  0.00  0.00    +0.003 A 
ATOM      9  C   LIG    1        4.336   1.132   0.849  0.00  0.00    -0.049 A 
ATOM     10  C   LIG    1        4.745   2.513   1.192  0.00  0.00    +0.044 C 
ATOM     11  C   LIG    1        3.218   0.925   0.055  0.00  0.00    +0.027 A 
ENDBRANCH   3   5
ENDBRANCH   1   3
BRANCH   1  12
ATOM     12  O   LIG    1       -0.364  -0.299  -2.374  0.00  0.00    -0.435 OA
BRANCH  12  13
ATOM     13  C   LIG    1       -1.652  -0.272  -1.834  0.00  0.00    +0.131 A 
ATOM     14  C   LIG    1       -1.844   0.228  -0.569  0.00  0.00    +0.050 A 
ATOM     15  C   LIG    1       -3.112   0.282   0.026  0.00  0.00    -0.041 A 
ATOM     16  C   LIG    1       -3.565   0.775   1.361  0.00  0.00    +0.036 C 
ATOM     17  C   LIG    1       -4.936   0.216   1.502  0.00  0.00    +0.009 C 
ATOM     18  C   LIG    1       -5.411  -0.045   0.100  0.00  0.00    +0.036 C 
ATOM     19  C   LIG    1       -4.162  -0.191  -0.712  0.00  0.00    -0.044 A 
ATOM     20  C   LIG    1       -3.998  -0.701  -1.988  0.00  0.00    +0.007 A 
ATOM     21  C   LIG    1       -2.738  -0.738  -2.543  0.00  0.00    +0.046 A 
ENDBRANCH  12  13
ENDBRANCH   1  12
TORSDOF 4
