REMARK  Name = molecules/ANJQEDFWRSLVBR-VHUDCFPWSA-N.pdb
REMARK                            x       y       z     vdW  Elec       q    Type
REMARK                         _______ _______ _______ _____ _____    ______ ____
ROOT
ATOM      1  C   LIG    1       -1.488  -0.696   1.427  0.00  0.00    +0.016 C 
ATOM      2  C   LIG    1       -1.723   0.133   0.141  0.00  0.00    -0.005 C 
ATOM      3  C   LIG    1       -2.693   1.134   0.541  0.00  0.00    -0.063 C 
ATOM      4  C   LIG    1       -2.353   2.481   1.067  0.00  0.00    +0.040 C 
ATOM      5  C   LIG    1       -4.001   0.885   0.487  0.00  0.00    +0.045 C 
ATOM      6  C   LIG    1       -4.568  -0.394   0.032  0.00  0.00    +0.156 C 
ATOM      7  C   LIG    1       -3.585  -1.527  -0.176  0.00  0.00    +0.083 C 
ATOM      8  O   LIG    1       -5.763  -0.602  -0.188  0.00  0.00    -0.293 OA
ATOM      9  C   LIG    1       -0.493   0.466  -0.570  0.00  0.00    +0.003 C 
ATOM     10  C   LIG    1        0.454  -0.728  -0.310  0.00  0.00    -0.003 C 
ATOM     11  C   LIG    1        1.788  -0.303  -0.706  0.00  0.00    +0.001 C 
ATOM     12  C   LIG    1        2.320   0.608   0.415  0.00  0.00    -0.003 C 
ATOM     13  C   LIG    1        2.540  -0.144   1.701  0.00  0.00    +0.014 C 
ATOM     14  C   LIG    1        1.348   1.680   0.649  0.00  0.00    +0.010 C 
ATOM     15  C   LIG    1        3.629   0.928  -0.198  0.00  0.00    +0.121 C 
ATOM     16  C   LIG    1        4.125  -0.487  -0.545  0.00  0.00    +0.032 C 
ATOM     17  C   LIG    1        2.872  -1.330  -0.730  0.00  0.00    +0.007 C 
ATOM     18  C   LIG    1       -0.120  -1.905  -1.042  0.00  0.00    +0.004 C 
ATOM     19  C   LIG    1       -1.495  -1.737  -1.561  0.00  0.00    +0.005 C 
ATOM     20  C   LIG    1        0.234   1.720  -0.411  0.00  0.00    +0.005 C 
ATOM     21  C   LIG    1       -2.428  -0.858  -0.824  0.00  0.00    +0.007 C 
ENDROOT
BRANCH  15  22
ATOM     22  O   LIG    1        4.505   1.628   0.559  0.00  0.00    -0.391 OA
ATOM     23  H   LIG    1        4.851   1.202   1.354  0.00  0.00    +0.210 HD
ENDBRANCH  15  22
TORSDOF 1
