REMARK  Name = molecules/ANJTVLIZGCUXLD-DTWKUNHWSA-N.pdb
REMARK                            x       y       z     vdW  Elec       q    Type
REMARK                         _______ _______ _______ _____ _____    ______ ____
ROOT
ATOM      1  C   LIG    1        1.211  -1.395  -1.228  0.00  0.00    +0.022 A 
ATOM      2  C   LIG    1        0.373  -0.392  -0.790  0.00  0.00    +0.026 A 
ATOM      3  N   LIG    1        0.910   0.737  -0.316  0.00  0.00    -0.312 N 
ATOM      4  C   LIG    1        0.093   1.852   0.169  0.00  0.00    +0.130 C 
ATOM      5  C   LIG    1       -1.224   1.269   0.623  0.00  0.00    +0.023 C 
ATOM      6  C   LIG    1       -1.107   0.347   1.781  0.00  0.00    +0.086 C 
ATOM      7  N   LIG    1       -0.672  -0.976   1.426  0.00  0.00    -0.315 NA
ATOM      8  H   LIG    1       -0.615  -1.586   2.237  0.00  0.00    +0.122 HD
ATOM      9  C   LIG    1       -1.439  -1.534   0.326  0.00  0.00    +0.090 C 
ATOM     10  C   LIG    1       -1.872   0.648  -0.594  0.00  0.00    +0.017 C 
ATOM     11  C   LIG    1        2.253   0.863  -0.279  0.00  0.00    +0.251 A 
ATOM     12  O   LIG    1        2.771   1.938   0.172  0.00  0.00    -0.268 OA
ATOM     13  C   LIG    1        3.116  -0.118  -0.708  0.00  0.00    +0.070 A 
ATOM     14  C   LIG    1       -1.092  -0.640  -0.878  0.00  0.00    +0.050 C 
ATOM     15  C   LIG    1        2.588  -1.290  -1.201  0.00  0.00    +0.007 A 
ENDROOT
TORSDOF 0
