REMARK  Name = molecules/ANTSCNMPPGJYLG-UHFFFAOYSA-N.pdb
REMARK                            x       y       z     vdW  Elec       q    Type
REMARK                         _______ _______ _______ _____ _____    ______ ____
ROOT
ATOM      1  C   LIG    1        2.597   0.467   0.545  0.00  0.00    +0.304 C 
ATOM      2  C   LIG    1        1.698   0.696   1.735  0.00  0.00    +0.247 C 
ATOM      3  N   LIG    1        0.303   0.942   1.288  0.00  0.00    -0.125 NA
ATOM      4  O   LIG    1       -0.223   2.139   1.691  0.00  0.00    -0.118 OA
ATOM      5  C   LIG    1       -0.393   0.161   0.535  0.00  0.00    +0.133 C 
ATOM      6  C   LIG    1        0.117  -1.158   0.058  0.00  0.00    +0.034 A 
ATOM      7  C   LIG    1       -0.873  -2.101   0.107  0.00  0.00    +0.030 A 
ATOM      8  C   LIG    1       -0.514  -3.376  -0.343  0.00  0.00    +0.042 A 
ATOM      9 CL   LIG    1       -1.737  -4.644  -0.319  0.00  0.00    -0.084 Cl
ATOM     10  C   LIG    1        0.755  -3.663  -0.802  0.00  0.00    +0.024 A 
ATOM     11  C   LIG    1        1.744  -2.678  -0.835  0.00  0.00    +0.057 A 
ATOM     12  C   LIG    1        1.388  -1.444  -0.397  0.00  0.00    +0.182 A 
ATOM     13  N   LIG    1        2.460  -0.459  -0.370  0.00  0.00    -0.045 NA
ENDROOT
BRANCH   5  14
ATOM     14  C   LIG    1       -1.765   0.471   0.203  0.00  0.00    -0.018 A 
ATOM     15  C   LIG    1       -2.485   1.457   0.818  0.00  0.00    +0.006 A 
ATOM     16  C   LIG    1       -3.756   1.869   0.363  0.00  0.00    +0.000 A 
ATOM     17  C   LIG    1       -4.346   1.297  -0.732  0.00  0.00    +0.000 A 
ATOM     18  C   LIG    1       -3.637   0.306  -1.360  0.00  0.00    +0.000 A 
ATOM     19  C   LIG    1       -2.392  -0.099  -0.918  0.00  0.00    +0.006 A 
ENDBRANCH   5  14
BRANCH   1  21
ATOM     20  C   LIG    1        3.729   2.283  -0.661  0.00  0.00    +0.273 C 
ATOM     21  N   LIG    1        3.688   1.361   0.449  0.00  0.00    -0.239 N 
ATOM     22  H   LIG    1        4.423   1.326   1.177  0.00  0.00    +0.291 HD
ENDBRANCH   1  21
TORSDOF 2
