REMARK  Name = molecules/ANUCDXCTICZJRH-ADLMAVQZSA-N.pdb
REMARK                            x       y       z     vdW  Elec       q    Type
REMARK                         _______ _______ _______ _____ _____    ______ ____
ROOT
ATOM      1  C   LIG    1       -0.436   3.646   0.279  0.00  0.00    +0.026 C 
ATOM      2  C   LIG    1       -0.741   2.260   0.685  0.00  0.00    +0.083 C 
ATOM      3  C   LIG    1        0.058   1.812   1.919  0.00  0.00    +0.181 C 
ATOM      4  O   LIG    1       -0.206   0.439   1.867  0.00  0.00    -0.349 OA
ATOM      5  C   LIG    1       -0.132   0.072   0.527  0.00  0.00    +0.179 C 
ATOM      6  C   LIG    1        1.223  -0.474   0.299  0.00  0.00    +0.026 A 
ATOM      7  C   LIG    1        1.974  -0.677   1.468  0.00  0.00    +0.030 A 
ATOM      8  C   LIG    1        3.233  -1.221   1.357  0.00  0.00    +0.041 A 
ATOM      9 CL   LIG    1        4.189  -1.488   2.776  0.00  0.00    -0.084 Cl
ATOM     10  C   LIG    1        3.777  -1.571   0.117  0.00  0.00    +0.022 A 
ATOM     11  C   LIG    1        3.057  -1.377  -1.040  0.00  0.00    +0.025 A 
ATOM     12  C   LIG    1        1.783  -0.825  -0.915  0.00  0.00    +0.041 A 
ATOM     13  N   LIG    1        1.165  -0.602  -2.184  0.00  0.00    -0.284 N 
ATOM     14  C   LIG    1        0.223   0.449  -2.451  0.00  0.00    +0.231 C 
ATOM     15  C   LIG    1       -0.136   1.508  -1.507  0.00  0.00    +0.184 C 
ATOM     16  O   LIG    1       -0.305   0.407  -3.608  0.00  0.00    -0.274 OA
ATOM     17  H   LIG    1        1.450  -1.260  -2.941  0.00  0.00    +0.155 HD
ATOM     18  N   LIG    1       -0.451   1.229  -0.210  0.00  0.00    -0.254 NA
ENDROOT
BRANCH   5  19
ATOM     19  C   LIG    1       -1.230  -0.922   0.294  0.00  0.00    +0.022 A 
ATOM     20  C   LIG    1       -1.352  -2.121   0.943  0.00  0.00    +0.049 A 
ATOM     21 CL   LIG    1       -0.170  -2.630   2.086  0.00  0.00    -0.083 Cl
ATOM     22  C   LIG    1       -2.424  -2.975   0.704  0.00  0.00    +0.020 A 
ATOM     23  C   LIG    1       -3.416  -2.641  -0.208  0.00  0.00    +0.001 A 
ATOM     24  C   LIG    1       -3.301  -1.435  -0.867  0.00  0.00    +0.000 A 
ATOM     25  C   LIG    1       -2.231  -0.597  -0.619  0.00  0.00    +0.009 A 
ENDBRANCH   5  19
TORSDOF 1
