REMARK  Name = molecules/ANUSOIHIIPAHJV-UHFFFAOYSA-N.pdb
REMARK                            x       y       z     vdW  Elec       q    Type
REMARK                         _______ _______ _______ _____ _____    ______ ____
ROOT
ATOM      1  S   LIG    1        0.005  -1.160  -1.181  0.00  0.00    -0.082 S 
ENDROOT
BRANCH   1   2
ATOM      2  C   LIG    1       -1.486  -0.491  -0.488  0.00  0.00    +0.056 A 
ATOM      3  C   LIG    1       -1.992  -1.034   0.679  0.00  0.00    +0.131 A 
ATOM      4  C   LIG    1       -3.147  -0.497   1.193  0.00  0.00    +0.048 A 
ATOM      5  C   LIG    1       -3.814   0.548   0.603  0.00  0.00    +0.023 A 
ATOM      6  C   LIG    1       -3.286   1.070  -0.560  0.00  0.00    +0.042 A 
ATOM      7 CL   LIG    1       -4.075   2.413  -1.389  0.00  0.00    -0.084 Cl
ATOM      8  C   LIG    1       -2.129   0.563  -1.113  0.00  0.00    +0.038 A 
BRANCH   3   9
ATOM      9  O   LIG    1       -1.312  -2.098   1.279  0.00  0.00    -0.506 OA
ATOM     10  H   LIG    1       -1.661  -2.511   2.130  0.00  0.00    +0.292 HD
ENDBRANCH   3   9
ENDBRANCH   1   2
BRANCH   1  11
ATOM     11  C   LIG    1        1.452  -0.333  -0.549  0.00  0.00    +0.056 A 
ATOM     12  C   LIG    1        1.399   0.697   0.365  0.00  0.00    +0.038 A 
ATOM     13  C   LIG    1        2.562   1.287   0.808  0.00  0.00    +0.042 A 
ATOM     14 CL   LIG    1        2.389   2.601   1.981  0.00  0.00    -0.084 Cl
ATOM     15  C   LIG    1        3.796   0.884   0.367  0.00  0.00    +0.023 A 
ATOM     16  C   LIG    1        3.865  -0.143  -0.545  0.00  0.00    +0.048 A 
ATOM     17  C   LIG    1        2.700  -0.727  -0.983  0.00  0.00    +0.131 A 
BRANCH  17  18
ATOM     18  O   LIG    1        2.810  -1.758  -1.901  0.00  0.00    -0.506 OA
ATOM     19  H   LIG    1        1.989  -2.235  -2.267  0.00  0.00    +0.292 HD
ENDBRANCH  17  18
ENDBRANCH   1  11
TORSDOF 4
