REMARK  Name = molecules/ANZXOIAKUNOVQU-OAHLLOKOSA-N.pdb
REMARK                            x       y       z     vdW  Elec       q    Type
REMARK                         _______ _______ _______ _____ _____    ______ ____
ROOT
ATOM      1  C   LIG    1        0.286  -0.195   0.191  0.00  0.00    -0.011 A 
ATOM      2  C   LIG    1       -0.322   1.009   0.389  0.00  0.00    +0.053 A 
ATOM      3  C   LIG    1       -1.672   1.114   0.590  0.00  0.00    +0.137 A 
ATOM      4  C   LIG    1       -2.420  -0.079   0.588  0.00  0.00    +0.092 A 
ATOM      5  C   LIG    1       -1.860  -1.318   0.396  0.00  0.00    +0.137 A 
ATOM      6  C   LIG    1       -0.495  -1.337   0.201  0.00  0.00    +0.053 A 
ENDROOT
BRANCH   1   7
ATOM      7  C   LIG    1        1.765  -0.392  -0.025  0.00  0.00    +0.158 C 
BRANCH   7   8
ATOM      8  O   LIG    1        2.038  -1.682   0.510  0.00  0.00    -0.386 OA
ATOM      9  H   LIG    1        1.760  -1.620   1.441  0.00  0.00    +0.210 HD
ENDBRANCH   7   8
BRANCH   7  10
ATOM     10  C   LIG    1        2.586   0.544   0.775  0.00  0.00    +0.117 C 
BRANCH  10  11
ATOM     11  N   LIG    1        3.958   0.311   0.795  0.00  0.00    -0.309 NA
ATOM     12  H   LIG    1        4.236  -0.474   1.481  0.00  0.00    +0.123 HD
BRANCH  11  13
ATOM     13  C   LIG    1        4.879   0.516  -0.209  0.00  0.00    +0.011 C 
ATOM     14  C   LIG    1        5.811   1.678   0.290  0.00  0.00    +0.027 C 
ATOM     15  C   LIG    1        5.863  -0.689  -0.213  0.00  0.00    +0.027 C 
ATOM     16  C   LIG    1        4.540   0.770  -1.615  0.00  0.00    +0.027 C 
ENDBRANCH  11  13
ENDBRANCH  10  11
ENDBRANCH   7  10
ENDBRANCH   1   7
BRANCH   3  17
ATOM     17  O   LIG    1       -2.320   2.311   0.792  0.00  0.00    -0.411 OA
BRANCH  17  18
ATOM     18  C   LIG    1       -2.910   3.012  -0.268  0.00  0.00    +0.408 C 
ATOM     19  N   LIG    1       -3.578   4.222  -0.005  0.00  0.00    -0.273 N 
ATOM     20  C   LIG    1       -3.684   4.741   1.318  0.00  0.00    +0.135 C 
ATOM     21  C   LIG    1       -4.182   4.936  -1.110  0.00  0.00    +0.135 C 
ATOM     22  O   LIG    1       -2.827   2.530  -1.420  0.00  0.00    -0.226 OA
ENDBRANCH  17  18
ENDBRANCH   3  17
BRANCH   5  23
ATOM     23  O   LIG    1       -2.656  -2.430   0.414  0.00  0.00    -0.411 OA
BRANCH  23  24
ATOM     24  C   LIG    1       -2.415  -3.572  -0.304  0.00  0.00    +0.408 C 
ATOM     25  N   LIG    1       -3.313  -4.685  -0.217  0.00  0.00    -0.273 N 
ATOM     26  C   LIG    1       -4.517  -4.560   0.561  0.00  0.00    +0.135 C 
ATOM     27  C   LIG    1       -2.972  -5.891  -0.940  0.00  0.00    +0.135 C 
ATOM     28  O   LIG    1       -1.402  -3.645  -1.036  0.00  0.00    -0.226 OA
ENDBRANCH  23  24
ENDBRANCH   5  23
TORSDOF 9
