REMARK  Name = molecules/AOCCBINRVIKJHY-UHFFFAOYSA-N.pdb
REMARK                            x       y       z     vdW  Elec       q    Type
REMARK                         _______ _______ _______ _____ _____    ______ ____
ROOT
ATOM      1  C   LIG    1       -1.900   1.185  -0.505  0.00  0.00    +0.322 C 
ATOM      2  N   LIG    1       -3.126   0.485  -0.401  0.00  0.00    -0.220 N 
ATOM      3  C   LIG    1       -3.187  -0.833  -0.239  0.00  0.00    +0.144 A 
ATOM      4  C   LIG    1       -4.381  -1.540  -0.135  0.00  0.00    +0.204 A 
ATOM      5  F   LIG    1       -4.420  -2.884   0.030  0.00  0.00    -0.198 F 
ATOM      6  C   LIG    1       -5.561  -0.848  -0.202  0.00  0.00    +0.289 A 
ATOM      7  O   LIG    1       -6.696  -1.425  -0.115  0.00  0.00    -0.265 OA
ATOM      8  N   LIG    1       -5.494   0.483  -0.366  0.00  0.00    -0.272 N 
ATOM      9  H   LIG    1       -6.388   1.013  -0.418  0.00  0.00    +0.174 HD
ATOM     10  C   LIG    1       -4.321   1.128  -0.462  0.00  0.00    +0.337 A 
ATOM     11  O   LIG    1       -4.290   2.378  -0.616  0.00  0.00    -0.246 OA
ATOM     12  N   LIG    1       -0.648   0.547  -0.445  0.00  0.00    -0.297 N 
ATOM     13  H   LIG    1       -0.559  -0.473  -0.324  0.00  0.00    +0.150 HD
ATOM     14  O   LIG    1       -1.985   2.458  -0.659  0.00  0.00    -0.249 OA
ENDROOT
BRANCH  12  15
ATOM     15  C   LIG    1        0.548   1.342  -0.560  0.00  0.00    +0.106 C 
BRANCH  15  16
ATOM     16  C   LIG    1        1.818   0.484  -0.470  0.00  0.00    +0.019 C 
BRANCH  16  17
ATOM     17  C   LIG    1        1.884  -0.221   0.834  0.00  0.00    +0.002 C 
BRANCH  17  18
ATOM     18  C   LIG    1        3.006  -1.130   1.091  0.00  0.00    -0.000 C 
BRANCH  18  19
ATOM     19  C   LIG    1        4.383  -0.559   1.063  0.00  0.00    -0.003 C 
ATOM     20  C   LIG    1        4.837  -0.014  -0.248  0.00  0.00    +0.004 C 
ENDBRANCH  18  19
ENDBRANCH  17  18
ENDBRANCH  16  17
ENDBRANCH  15  16
ENDBRANCH  12  15
TORSDOF 5
