REMARK  Name = molecules/AOJJSUZBOXZQNB-TZSSRYMLSA-N.pdb
REMARK                            x       y       z     vdW  Elec       q    Type
REMARK                         _______ _______ _______ _____ _____    ______ ____
ROOT
ATOM      1  C   LIG    1        2.135   2.239   0.707  0.00  0.00    +0.132 A 
ATOM      2  C   LIG    1        0.732   2.250   0.583  0.00  0.00    +0.007 A 
ATOM      3  C   LIG    1       -0.012   3.443   1.063  0.00  0.00    +0.082 C 
ATOM      4  C   LIG    1       -1.473   3.146   1.150  0.00  0.00    +0.133 C 
ATOM      5  C   LIG    1       -1.921   2.472  -0.137  0.00  0.00    +0.079 C 
ATOM      6  C   LIG    1       -1.345   1.056  -0.172  0.00  0.00    +0.158 C 
ATOM      7  C   LIG    1        0.148   1.151   0.019  0.00  0.00    +0.030 A 
ATOM      8  C   LIG    1        0.832   0.022  -0.443  0.00  0.00    +0.134 A 
ATOM      9  C   LIG    1        2.213   0.024  -0.314  0.00  0.00    +0.078 A 
ATOM     10  C   LIG    1        3.023  -1.091  -0.756  0.00  0.00    +0.202 C 
ATOM     11  C   LIG    1        4.474  -1.058  -0.607  0.00  0.00    +0.075 A 
ATOM     12  C   LIG    1        5.077   0.021  -0.050  0.00  0.00    +0.037 A 
ATOM     13  C   LIG    1        4.299   1.158   0.406  0.00  0.00    +0.198 C 
ATOM     14  O   LIG    1        4.830   2.178   0.928  0.00  0.00    -0.286 OA
ATOM     15  C   LIG    1        6.458   0.059   0.095  0.00  0.00    +0.012 A 
ATOM     16  C   LIG    1        7.190  -1.025  -0.340  0.00  0.00    +0.004 A 
ATOM     17  C   LIG    1        6.561  -2.120  -0.906  0.00  0.00    +0.046 A 
ATOM     18  C   LIG    1        5.194  -2.159  -1.051  0.00  0.00    +0.132 A 
ATOM     19  O   LIG    1        2.474  -2.089  -1.270  0.00  0.00    -0.286 OA
ATOM     20  C   LIG    1        2.830   1.134   0.258  0.00  0.00    +0.078 A 
ENDROOT
BRANCH   1  21
ATOM     21  O   LIG    1        2.795   3.326   1.270  0.00  0.00    -0.506 OA
ATOM     22  H   LIG    1        2.263   4.116   1.572  0.00  0.00    +0.292 HD
ENDBRANCH   1  21
BRANCH   4  23
ATOM     23  O   LIG    1       -1.619   2.255   2.234  0.00  0.00    -0.381 OA
ATOM     24  H   LIG    1       -1.122   2.640   3.003  0.00  0.00    +0.211 HD
ENDBRANCH   4  23
BRANCH   4  25
ATOM     25  C   LIG    1       -2.259   4.364   1.369  0.00  0.00    +0.190 C 
ATOM     26  O   LIG    1       -2.913   4.436   2.415  0.00  0.00    -0.292 OA
BRANCH  25  27
ATOM     27  C   LIG    1       -2.338   5.519   0.451  0.00  0.00    +0.233 C 
BRANCH  27  28
ATOM     28  O   LIG    1       -1.581   5.386  -0.701  0.00  0.00    -0.387 OA
ATOM     29  H   LIG    1       -1.218   6.253  -0.989  0.00  0.00    +0.210 HD
ENDBRANCH  27  28
ENDBRANCH  25  27
ENDBRANCH   4  25
BRANCH  18  30
ATOM     30  O   LIG    1        4.536  -3.221  -1.605  0.00  0.00    -0.494 OA
ATOM     31  C   LIG    1        5.151  -4.386  -2.088  0.00  0.00    +0.277 C 
ENDBRANCH  18  30
BRANCH   8  32
ATOM     32  O   LIG    1        0.153  -1.011  -0.987  0.00  0.00    -0.506 OA
ATOM     33  H   LIG    1        0.303  -1.866  -1.371  0.00  0.00    +0.292 HD
ENDBRANCH   8  32
BRANCH   6  34
ATOM     34  O   LIG    1       -1.947   0.395   0.878  0.00  0.00    -0.343 OA
BRANCH  34  35
ATOM     35  C   LIG    1       -2.701  -0.710   0.525  0.00  0.00    +0.253 C 
ATOM     36  C   LIG    1       -2.223  -1.983   1.163  0.00  0.00    +0.082 C 
ATOM     37  C   LIG    1       -2.991  -3.137   0.541  0.00  0.00    +0.087 C 
ATOM     38  C   LIG    1       -4.442  -2.902   0.788  0.00  0.00    +0.160 C 
ATOM     39  C   LIG    1       -4.880  -1.534   0.388  0.00  0.00    +0.148 C 
ATOM     40  C   LIG    1       -5.060  -1.518  -1.122  0.00  0.00    +0.041 C 
ATOM     41  O   LIG    1       -4.061  -0.501   0.743  0.00  0.00    -0.346 OA
BRANCH  37  42
ATOM     42  N   LIG    1       -2.626  -3.408  -0.814  0.00  0.00    -0.325 NA
ATOM     43  H   LIG    1       -3.253  -4.151  -1.190  0.00  0.00    +0.119 HD
ATOM     44  H   LIG    1       -2.623  -2.623  -1.466  0.00  0.00    +0.119 HD
ENDBRANCH  37  42
BRANCH  38  45
ATOM     45  O   LIG    1       -5.253  -3.904   0.258  0.00  0.00    -0.388 OA
ATOM     46  H   LIG    1       -6.151  -3.546  -0.002  0.00  0.00    +0.210 HD
ENDBRANCH  38  45
ENDBRANCH  34  35
ENDBRANCH   6  34
TORSDOF 11
