REMARK  Name = molecules/AOJJSUZBOXZQNB-VTZDEGQISA-N.pdb
REMARK                            x       y       z     vdW  Elec       q    Type
REMARK                         _______ _______ _______ _____ _____    ______ ____
ROOT
ATOM      1  C   LIG    1        2.107   2.041  -1.103  0.00  0.00    +0.132 A 
ATOM      2  C   LIG    1        2.890   0.938  -0.757  0.00  0.00    +0.078 A 
ATOM      3  C   LIG    1        2.278  -0.161  -0.240  0.00  0.00    +0.078 A 
ATOM      4  C   LIG    1        3.080  -1.344   0.135  0.00  0.00    +0.202 C 
ATOM      5  O   LIG    1        2.524  -2.353   0.609  0.00  0.00    -0.286 OA
ATOM      6  C   LIG    1        4.530  -1.318  -0.055  0.00  0.00    +0.075 A 
ATOM      7  C   LIG    1        5.287  -2.421   0.294  0.00  0.00    +0.132 A 
ATOM      8  C   LIG    1        6.668  -2.427   0.126  0.00  0.00    +0.046 A 
ATOM      9  C   LIG    1        7.307  -1.321  -0.398  0.00  0.00    +0.004 A 
ATOM     10  C   LIG    1        6.532  -0.235  -0.738  0.00  0.00    +0.012 A 
ATOM     11  C   LIG    1        5.166  -0.211  -0.578  0.00  0.00    +0.037 A 
ATOM     12  C   LIG    1        0.880  -0.232  -0.039  0.00  0.00    +0.134 A 
ATOM     13  C   LIG    1        0.134   0.838  -0.376  0.00  0.00    +0.030 A 
ATOM     14  C   LIG    1       -1.332   0.963  -0.251  0.00  0.00    +0.158 C 
ATOM     15  C   LIG    1       -1.650   2.244   0.553  0.00  0.00    +0.079 C 
ATOM     16  C   LIG    1       -0.909   3.436   0.031  0.00  0.00    +0.133 C 
ATOM     17  C   LIG    1       -0.118   3.112  -1.248  0.00  0.00    +0.082 C 
ATOM     18  C   LIG    1        4.332   0.933  -0.934  0.00  0.00    +0.198 C 
ATOM     19  O   LIG    1        4.870   1.956  -1.411  0.00  0.00    -0.286 OA
ATOM     20  C   LIG    1        0.763   1.982  -0.912  0.00  0.00    +0.007 A 
ENDROOT
BRANCH   1  21
ATOM     21  O   LIG    1        2.784   3.116  -1.618  0.00  0.00    -0.506 OA
ATOM     22  H   LIG    1        2.415   3.989  -1.923  0.00  0.00    +0.292 HD
ENDBRANCH   1  21
BRANCH   7  23
ATOM     23  O   LIG    1        4.653  -3.543   0.823  0.00  0.00    -0.494 OA
ATOM     24  C   LIG    1        5.416  -4.679   1.184  0.00  0.00    +0.277 C 
ENDBRANCH   7  23
BRANCH  12  25
ATOM     25  O   LIG    1        0.360  -1.374   0.485  0.00  0.00    -0.506 OA
ATOM     26  H   LIG    1       -0.563  -1.571   0.684  0.00  0.00    +0.292 HD
ENDBRANCH  12  25
BRANCH  16  27
ATOM     27  O   LIG    1        0.072   3.763   0.974  0.00  0.00    -0.381 OA
ATOM     28  H   LIG    1        0.151   3.083   1.680  0.00  0.00    +0.211 HD
ENDBRANCH  16  27
BRANCH  16  29
ATOM     29  C   LIG    1       -1.763   4.608  -0.189  0.00  0.00    +0.190 C 
ATOM     30  O   LIG    1       -2.706   4.551  -0.988  0.00  0.00    -0.292 OA
BRANCH  29  31
ATOM     31  C   LIG    1       -1.501   5.867   0.544  0.00  0.00    +0.233 C 
BRANCH  31  32
ATOM     32  O   LIG    1       -2.421   6.864   0.199  0.00  0.00    -0.387 OA
ATOM     33  H   LIG    1       -2.296   7.620   0.835  0.00  0.00    +0.210 HD
ENDBRANCH  31  32
ENDBRANCH  29  31
ENDBRANCH  16  29
BRANCH  14  34
ATOM     34  O   LIG    1       -1.998  -0.056   0.348  0.00  0.00    -0.343 OA
BRANCH  34  35
ATOM     35  C   LIG    1       -3.063  -0.493  -0.435  0.00  0.00    +0.253 C 
ATOM     36  O   LIG    1       -4.249  -0.223   0.217  0.00  0.00    -0.346 OA
ATOM     37  C   LIG    1       -5.083  -1.286   0.406  0.00  0.00    +0.148 C 
ATOM     38  C   LIG    1       -4.410  -2.506   1.000  0.00  0.00    +0.160 C 
ATOM     39  C   LIG    1       -3.262  -2.928   0.127  0.00  0.00    +0.087 C 
ATOM     40  C   LIG    1       -5.903  -1.643  -0.824  0.00  0.00    +0.041 C 
ATOM     41  C   LIG    1       -2.937  -1.907  -0.908  0.00  0.00    +0.082 C 
BRANCH  39  42
ATOM     42  N   LIG    1       -3.547  -4.185  -0.537  0.00  0.00    -0.325 NA
ATOM     43  H   LIG    1       -4.306  -4.725  -0.109  0.00  0.00    +0.119 HD
ATOM     44  H   LIG    1       -3.537  -4.131  -1.560  0.00  0.00    +0.119 HD
ENDBRANCH  39  42
BRANCH  38  45
ATOM     45  O   LIG    1       -3.988  -2.177   2.276  0.00  0.00    -0.388 OA
ATOM     46  H   LIG    1       -4.628  -1.529   2.704  0.00  0.00    +0.210 HD
ENDBRANCH  38  45
ENDBRANCH  34  35
ENDBRANCH  14  34
TORSDOF 11
