REMARK  Name = molecules/APGDTXUMTIZLCJ-CGVGKPPMSA-N.pdb
REMARK                            x       y       z     vdW  Elec       q    Type
REMARK                         _______ _______ _______ _____ _____    ______ ____
ROOT
ATOM      1  C   LIG    1       -0.126  -1.319  -2.059  0.00  0.00    +0.015 C 
ATOM      2  C   LIG    1        0.088  -0.387  -0.904  0.00  0.00    +0.009 C 
ATOM      3  C   LIG    1       -0.291  -1.117   0.358  0.00  0.00    +0.041 C 
ATOM      4  C   LIG    1       -1.770  -1.316   0.544  0.00  0.00    +0.120 C 
ATOM      5  C   LIG    1       -2.572  -0.138   0.171  0.00  0.00    +0.035 C 
ATOM      6  C   LIG    1       -4.062  -0.231   0.289  0.00  0.00    +0.013 C 
ATOM      7  C   LIG    1       -4.491  -1.114   1.351  0.00  0.00    -0.012 C 
ATOM      8  C   LIG    1       -5.217  -0.728   2.369  0.00  0.00    +0.047 C 
ATOM      9  C   LIG    1       -5.656   0.649   2.516  0.00  0.00    +0.179 C 
ATOM     10  O   LIG    1       -6.352   1.029   3.484  0.00  0.00    -0.288 OA
ATOM     11  C   LIG    1       -5.238   1.567   1.469  0.00  0.00    +0.051 C 
ATOM     12  C   LIG    1       -4.516   1.153   0.470  0.00  0.00    -0.056 C 
ATOM     13  C   LIG    1       -4.050   2.115  -0.595  0.00  0.00    +0.032 C 
ATOM     14  C   LIG    1       -3.114   1.546  -1.564  0.00  0.00    +0.008 C 
ATOM     15  C   LIG    1       -4.721  -0.712  -0.999  0.00  0.00    +0.020 C 
ATOM     16  C   LIG    1       -2.182   0.472  -1.166  0.00  0.00    -0.000 C 
ATOM     17  C   LIG    1        1.467   0.179  -0.913  0.00  0.00    +0.133 C 
ATOM     18  C   LIG    1        1.331   1.653  -1.354  0.00  0.00    +0.043 C 
ATOM     19  C   LIG    1       -0.087   1.684  -1.968  0.00  0.00    +0.008 C 
ATOM     20  C   LIG    1       -0.764   0.867  -0.951  0.00  0.00    +0.002 C 
ENDROOT
BRANCH   4  21
ATOM     21  O   LIG    1       -2.128  -2.534   0.053  0.00  0.00    -0.391 OA
ATOM     22  H   LIG    1       -2.874  -2.609  -0.546  0.00  0.00    +0.210 HD
ENDBRANCH   4  21
BRANCH  17  23
ATOM     23  O   LIG    1        2.055   0.147   0.367  0.00  0.00    -0.380 OA
ATOM     24  H   LIG    1        1.617   0.776   0.980  0.00  0.00    +0.211 HD
ENDBRANCH  17  23
BRANCH  17  25
ATOM     25  C   LIG    1        2.406  -0.411  -1.877  0.00  0.00    +0.202 C 
ATOM     26  O   LIG    1        2.085  -0.516  -3.031  0.00  0.00    -0.291 OA
BRANCH  25  27
ATOM     27  C   LIG    1        3.735  -0.879  -1.471  0.00  0.00    +0.309 C 
BRANCH  27  28
ATOM     28  O   LIG    1        4.045  -0.720  -0.109  0.00  0.00    -0.457 OA
BRANCH  28  29
ATOM     29  C   LIG    1        5.299  -1.161   0.324  0.00  0.00    +0.308 C 
ATOM     30  O   LIG    1        6.046  -1.673  -0.588  0.00  0.00    -0.251 OA
BRANCH  29  31
ATOM     31  C   LIG    1        5.761  -1.066   1.714  0.00  0.00    +0.132 C 
BRANCH  31  32
ATOM     32  C   LIG    1        6.576   0.158   2.017  0.00  0.00    +0.131 C 
BRANCH  32  33
ATOM     33  C   LIG    1        7.802   0.319   1.228  0.00  0.00    +0.305 C 
ATOM     34  O   LIG    1        7.788   0.130  -0.013  0.00  0.00    -0.251 OA
BRANCH  33  35
ATOM     35  O   LIG    1        8.986   0.677   1.836  0.00  0.00    -0.481 OA
ATOM     36  H   LIG    1        9.826   0.933   1.316  0.00  0.00    +0.295 HD
ENDBRANCH  33  35
ENDBRANCH  32  33
ENDBRANCH  31  32
ENDBRANCH  29  31
ENDBRANCH  28  29
ENDBRANCH  27  28
ENDBRANCH  25  27
ENDBRANCH  17  25
TORSDOF 10
