REMARK  Name = molecules/APKFDSVGJQXUKY-SKLSDIGGSA-N.pdb
REMARK                            x       y       z     vdW  Elec       q    Type
REMARK                         _______ _______ _______ _____ _____    ______ ____
ROOT
ATOM      1  C   LIG    1       -2.913  -2.443  -1.968  0.00  0.00    +0.097 C 
ATOM      2  C   LIG    1       -2.503  -1.534  -0.866  0.00  0.00    +0.172 C 
ATOM      3  C   LIG    1       -1.139  -2.051  -0.376  0.00  0.00    +0.096 C 
ATOM      4  C   LIG    1       -1.267  -3.293   0.448  0.00  0.00    +0.122 C 
ATOM      5  C   LIG    1        0.131  -3.810   0.743  0.00  0.00    +0.065 C 
ATOM      6  C   LIG    1        0.160  -4.532   2.078  0.00  0.00    +0.145 C 
ATOM      7  C   LIG    1        0.843  -5.867   1.857  0.00  0.00    +0.143 C 
ATOM      8  C   LIG    1        2.117  -5.603   1.090  0.00  0.00    +0.036 C 
ATOM      9  C   LIG    1        3.246  -6.504   1.553  0.00  0.00    +0.034 C 
ATOM     10  C   LIG    1        4.524  -5.960   0.925  0.00  0.00    +0.117 C 
ATOM     11  C   LIG    1        5.129  -4.979   1.905  0.00  0.00    +0.063 C 
ATOM     12  C   LIG    1        5.163  -3.630   1.268  0.00  0.00    +0.128 C 
ATOM     13  C   LIG    1        6.525  -3.372   0.634  0.00  0.00    +0.152 C 
ATOM     14  C   LIG    1        6.947  -2.022   1.069  0.00  0.00    +0.310 C 
ATOM     15  O   LIG    1        7.851  -1.946   1.935  0.00  0.00    -0.251 OA
ATOM     16  O   LIG    1        6.368  -0.924   0.542  0.00  0.00    -0.461 OA
ATOM     17  C   LIG    1        6.277  -0.462  -0.762  0.00  0.00    +0.179 C 
ATOM     18  C   LIG    1        5.632   0.937  -0.655  0.00  0.00    +0.055 C 
ATOM     19  C   LIG    1        4.567   0.788   0.396  0.00  0.00    +0.124 C 
ATOM     20  C   LIG    1        3.489   1.881   0.302  0.00  0.00    +0.019 C 
ATOM     21  C   LIG    1        3.024   2.089   1.725  0.00  0.00    +0.010 C 
ATOM     22  C   LIG    1        4.188   3.085  -0.256  0.00  0.00    +0.006 C 
ATOM     23  C   LIG    1        4.005   3.577  -1.469  0.00  0.00    +0.022 C 
ATOM     24  C   LIG    1        2.783   4.212  -1.964  0.00  0.00    -0.026 C 
ATOM     25  C   LIG    1        2.231   5.322  -1.521  0.00  0.00    -0.026 C 
ATOM     26  C   LIG    1        2.551   6.018  -0.270  0.00  0.00    +0.022 C 
ATOM     27  C   LIG    1        2.357   5.551   0.956  0.00  0.00    +0.004 C 
ATOM     28  C   LIG    1        1.051   5.243   1.552  0.00  0.00    +0.001 C 
ATOM     29  C   LIG    1        0.015   6.049   1.675  0.00  0.00    +0.004 C 
ATOM     30  C   LIG    1       -0.389   7.112   0.743  0.00  0.00    +0.022 C 
ATOM     31  C   LIG    1       -0.829   6.961  -0.496  0.00  0.00    -0.026 C 
ATOM     32  C   LIG    1       -2.105   6.324  -0.880  0.00  0.00    -0.026 C 
ATOM     33  C   LIG    1       -2.913   5.646  -0.098  0.00  0.00    +0.022 C 
ATOM     34  C   LIG    1       -2.668   4.330   0.497  0.00  0.00    +0.006 C 
ATOM     35  C   LIG    1       -2.515   3.189  -0.162  0.00  0.00    +0.028 C 
ATOM     36  C   LIG    1       -3.582   2.628  -1.094  0.00  0.00    +0.128 C 
ATOM     37  C   LIG    1       -3.043   1.792  -2.173  0.00  0.00    +0.064 C 
ATOM     38  C   LIG    1       -3.321   0.326  -1.991  0.00  0.00    +0.140 C 
ATOM     39  C   LIG    1       -3.216  -0.436  -3.300  0.00  0.00    +0.155 C 
ATOM     40  C   LIG    1        6.745   1.870  -0.262  0.00  0.00    +0.014 C 
ATOM     41  C   LIG    1        5.513  -1.318  -1.720  0.00  0.00    +0.052 C 
ATOM     42  O   LIG    1       -2.319  -0.214  -1.180  0.00  0.00    -0.344 OA
ATOM     43  C   LIG    1       -3.802  -1.801  -3.006  0.00  0.00    +0.136 C 
ENDROOT
BRANCH   2  44
ATOM     44  O   LIG    1       -3.369  -1.719   0.230  0.00  0.00    -0.364 OA
ATOM     45  H   LIG    1       -3.697  -2.655   0.215  0.00  0.00    +0.213 HD
ENDBRANCH   2  44
BRANCH   6  46
ATOM     46  O   LIG    1       -1.163  -4.689   2.492  0.00  0.00    -0.389 OA
ATOM     47  H   LIG    1       -1.440  -5.649   2.366  0.00  0.00    +0.210 HD
ENDBRANCH   6  46
BRANCH   7  48
ATOM     48  O   LIG    1        1.106  -6.509   3.068  0.00  0.00    -0.389 OA
ATOM     49  H   LIG    1        0.868  -5.927   3.857  0.00  0.00    +0.210 HD
ENDBRANCH   7  48
BRANCH  12  50
ATOM     50  O   LIG    1        4.857  -2.663   2.222  0.00  0.00    -0.391 OA
ATOM     51  H   LIG    1        4.181  -2.978   2.869  0.00  0.00    +0.210 HD
ENDBRANCH  12  50
BRANCH  39  52
ATOM     52  C   LIG    1       -3.917   0.166  -4.423  0.00  0.00    +0.313 C 
ATOM     53  O   LIG    1       -3.275   0.512  -5.444  0.00  0.00    -0.251 OA
BRANCH  52  54
ATOM     54  O   LIG    1       -5.282   0.379  -4.419  0.00  0.00    -0.480 OA
ATOM     55  H   LIG    1       -5.974  -0.326  -4.224  0.00  0.00    +0.295 HD
ENDBRANCH  52  54
ENDBRANCH  39  52
BRANCH  19  56
ATOM     56  O   LIG    1        3.885  -0.426   0.281  0.00  0.00    -0.391 OA
ATOM     57  H   LIG    1        2.966  -0.316  -0.029  0.00  0.00    +0.210 HD
ENDBRANCH  19  56
BRANCH  10  58
ATOM     58  O   LIG    1        4.217  -5.320  -0.268  0.00  0.00    -0.392 OA
ATOM     59  H   LIG    1        4.507  -5.831  -1.062  0.00  0.00    +0.210 HD
ENDBRANCH  10  58
BRANCH   4  60
ATOM     60  O   LIG    1       -1.933  -4.328  -0.180  0.00  0.00    -0.392 OA
ATOM     61  H   LIG    1       -1.510  -5.184  -0.015  0.00  0.00    +0.210 HD
ENDBRANCH   4  60
BRANCH  43  62
ATOM     62  O   LIG    1       -3.726  -2.602  -4.158  0.00  0.00    -0.391 OA
ATOM     63  H   LIG    1       -4.611  -2.810  -4.521  0.00  0.00    +0.210 HD
ENDBRANCH  43  62
BRANCH  36  64
ATOM     64  O   LIG    1       -4.443   1.901  -0.279  0.00  0.00    -0.345 OA
BRANCH  64  65
ATOM     65  C   LIG    1       -5.672   2.497  -0.134  0.00  0.00    +0.281 C 
ATOM     66  O   LIG    1       -5.835   2.972   1.185  0.00  0.00    -0.343 OA
ATOM     67  C   LIG    1       -5.878   1.938   2.094  0.00  0.00    +0.148 C 
ATOM     68  C   LIG    1       -4.538   1.256   2.265  0.00  0.00    +0.041 C 
ATOM     69  C   LIG    1       -6.911   0.896   1.842  0.00  0.00    +0.162 C 
ATOM     70  C   LIG    1       -7.152   0.555   0.410  0.00  0.00    +0.116 C 
ATOM     71  C   LIG    1       -6.859   1.679  -0.550  0.00  0.00    +0.189 C 
BRANCH  70  72
ATOM     72  N   LIG    1       -6.485  -0.657  -0.004  0.00  0.00    -0.323 NA
ATOM     73  H   LIG    1       -6.544  -1.361   0.761  0.00  0.00    +0.119 HD
ATOM     74  H   LIG    1       -7.008  -1.046  -0.814  0.00  0.00    +0.119 HD
ENDBRANCH  70  72
BRANCH  69  75
ATOM     75  O   LIG    1       -8.111   1.315   2.442  0.00  0.00    -0.388 OA
ATOM     76  H   LIG    1       -8.177   2.306   2.361  0.00  0.00    +0.210 HD
ENDBRANCH  69  75
BRANCH  71  77
ATOM     77  O   LIG    1       -6.722   1.205  -1.830  0.00  0.00    -0.385 OA
ATOM     78  H   LIG    1       -7.273   1.698  -2.486  0.00  0.00    +0.210 HD
ENDBRANCH  71  77
ENDBRANCH  64  65
ENDBRANCH  36  64
TORSDOF 15
