REMARK  Name = molecules/AQCHWTWZEMGIFD-JTQLQIEISA-N.pdb
REMARK                            x       y       z     vdW  Elec       q    Type
REMARK                         _______ _______ _______ _____ _____    ______ ____
ROOT
ATOM      1  O   LIG    1       -0.169   1.685  -0.721  0.00  0.00    -0.270 OA
ATOM      2  C   LIG    1       -0.002   0.552  -0.213  0.00  0.00    +0.254 C 
ATOM      3  N   LIG    1       -1.152  -0.189   0.249  0.00  0.00    -0.249 N 
ATOM      4  C   LIG    1       -0.963  -1.628   0.210  0.00  0.00    +0.163 C 
ATOM      5  N   LIG    1        0.291  -1.940   0.913  0.00  0.00    -0.325 N 
ATOM      6  H   LIG    1        0.324  -2.629   1.687  0.00  0.00    +0.148 HD
ATOM      7  C   LIG    1        1.451  -1.247   0.474  0.00  0.00    +0.042 A 
ATOM      8  C   LIG    1        2.704  -1.852   0.631  0.00  0.00    +0.045 A 
ATOM      9  C   LIG    1        3.826  -1.172   0.205  0.00  0.00    +0.069 A 
ATOM     10 CL   LIG    1        5.390  -1.965   0.418  0.00  0.00    -0.081 Cl
ATOM     11  C   LIG    1        3.740   0.079  -0.368  0.00  0.00    +0.124 A 
ATOM     12  C   LIG    1        2.486   0.641  -0.505  0.00  0.00    +0.045 A 
ATOM     13  C   LIG    1       -0.755  -2.041  -1.225  0.00  0.00    +0.050 C 
ATOM     14  C   LIG    1        1.340   0.002  -0.095  0.00  0.00    +0.060 A 
ENDROOT
BRANCH   3  15
ATOM     15  C   LIG    1       -2.313   0.476   0.703  0.00  0.00    +0.041 A 
ATOM     16  C   LIG    1       -2.296   1.334   1.807  0.00  0.00    +0.024 A 
ATOM     17  C   LIG    1       -3.415   1.987   2.259  0.00  0.00    +0.002 A 
ATOM     18  C   LIG    1       -4.621   1.804   1.613  0.00  0.00    +0.000 A 
ATOM     19  C   LIG    1       -4.659   0.972   0.535  0.00  0.00    +0.005 A 
ATOM     20  C   LIG    1       -3.511   0.303   0.072  0.00  0.00    -0.029 A 
ATOM     21  C   LIG    1       -3.611  -0.584  -1.095  0.00  0.00    +0.045 C 
ENDBRANCH   3  15
BRANCH  11  22
ATOM     22  S   LIG    1        5.195   0.892  -0.891  0.00  0.00    +0.057 S 
ATOM     23  O   LIG    1        6.092   1.128   0.294  0.00  0.00    -0.153 OA
ATOM     24  O   LIG    1        5.952   0.035  -1.862  0.00  0.00    -0.153 OA
BRANCH  22  25
ATOM     25  N   LIG    1        4.811   2.417  -1.565  0.00  0.00    -0.203 NA
ATOM     26  H   LIG    1        3.994   2.870  -1.120  0.00  0.00    +0.144 HD
ATOM     27  H   LIG    1        5.640   3.049  -1.424  0.00  0.00    +0.144 HD
ENDBRANCH  22  25
ENDBRANCH  11  22
TORSDOF 3
