REMARK  Name = molecules/AQHHHDLHHXJYJD-CQSZACIVSA-N.pdb
REMARK                            x       y       z     vdW  Elec       q    Type
REMARK                         _______ _______ _______ _____ _____    ______ ____
ROOT
ATOM      1  O   LIG    1        0.708  -0.672   0.464  0.00  0.00    -0.489 OA
ENDROOT
BRANCH   1   7
ATOM      2  C   LIG    1        2.700   0.184  -0.497  0.00  0.00    +0.024 A 
ATOM      3  C   LIG    1        2.706   1.175   0.467  0.00  0.00    +0.012 A 
ATOM      4  C   LIG    1        3.707   2.147   0.513  0.00  0.00    +0.001 A 
ATOM      5  C   LIG    1        4.712   2.111  -0.430  0.00  0.00    +0.001 A 
ATOM      6  C   LIG    1        4.702   1.124  -1.388  0.00  0.00    +0.008 A 
ATOM      7  C   LIG    1        1.694  -0.756  -0.510  0.00  0.00    +0.128 A 
ATOM      8  C   LIG    1        1.725  -1.726  -1.490  0.00  0.00    +0.046 A 
ATOM      9  C   LIG    1        2.738  -1.765  -2.444  0.00  0.00    +0.004 A 
ATOM     10  C   LIG    1        3.730  -0.832  -2.426  0.00  0.00    +0.009 A 
ATOM     11  C   LIG    1        3.722   0.153  -1.453  0.00  0.00    -0.014 A 
ENDBRANCH   1   7
BRANCH   1  12
ATOM     12  C   LIG    1       -0.318  -1.662   0.421  0.00  0.00    +0.261 C 
BRANCH  12  13
ATOM     13  C   LIG    1       -1.322  -1.448   1.538  0.00  0.00    +0.166 C 
BRANCH  13  14
ATOM     14  O   LIG    1       -2.277  -2.455   1.414  0.00  0.00    -0.387 OA
ATOM     15  H   LIG    1       -1.778  -3.305   1.283  0.00  0.00    +0.210 HD
ENDBRANCH  13  14
BRANCH  13  16
ATOM     16  C   LIG    1       -1.974  -0.083   1.276  0.00  0.00    +0.115 C 
BRANCH  16  17
ATOM     17  N   LIG    1       -2.492  -0.124  -0.046  0.00  0.00    -0.311 NA
ATOM     18  H   LIG    1       -2.940  -1.012  -0.321  0.00  0.00    +0.122 HD
BRANCH  17  19
ATOM     19  C   LIG    1       -3.150   1.057  -0.502  0.00  0.00    +0.048 C 
ATOM     20  C   LIG    1       -4.379   1.419   0.286  0.00  0.00    +0.023 C 
ATOM     21  C   LIG    1       -3.604   0.793  -1.934  0.00  0.00    +0.023 C 
ENDBRANCH  17  19
ENDBRANCH  16  17
ENDBRANCH  13  16
ENDBRANCH  12  13
ENDBRANCH   1  12
TORSDOF 7
