REMARK  Name = molecules/AQIXAKUUQRKLND-UHFFFAOYSA-N.pdb
REMARK                            x       y       z     vdW  Elec       q    Type
REMARK                         _______ _______ _______ _____ _____    ______ ____
ROOT
ATOM      1  C   LIG    1        1.177   0.673  -0.430  0.00  0.00    +0.206 C 
ENDROOT
BRANCH   1   2
ATOM      2  N   LIG    1        2.421   1.085   0.143  0.00  0.00    -0.274 N 
ATOM      3  H   LIG    1        2.374   1.744   0.983  0.00  0.00    +0.258 HD
BRANCH   2   4
ATOM      4  C   LIG    1        3.694   0.692  -0.302  0.00  0.00    +0.397 C 
ATOM      5  N   LIG    1        4.230   1.131  -1.388  0.00  0.00    +0.010 NA
BRANCH   4   6
ATOM      6  N   LIG    1        4.407  -0.230   0.492  0.00  0.00    -0.278 N 
ATOM      7  C   LIG    1        4.649   0.083   1.872  0.00  0.00    +0.239 C 
ATOM      8  H   LIG    1        4.744  -1.112   0.088  0.00  0.00    +0.258 HD
ENDBRANCH   4   6
BRANCH   5   9
ATOM      9  C   LIG    1        5.512   0.689  -1.769  0.00  0.00    +0.295 C 
ATOM     10  N   LIG    1        6.535   0.317  -2.088  0.00  0.00    -0.151 NA
ENDBRANCH   5   9
ENDBRANCH   2   4
ENDBRANCH   1   2
BRANCH   1  11
ATOM     11  C   LIG    1        0.904  -0.797  -0.204  0.00  0.00    +0.106 C 
BRANCH  11  12
ATOM     12  S   LIG    1       -0.725  -1.159  -0.971  0.00  0.00    -0.151 S 
BRANCH  12  13
ATOM     13  C   LIG    1       -1.980  -0.227  -0.045  0.00  0.00    +0.126 C 
BRANCH  13  14
ATOM     14  C   LIG    1       -3.340  -0.494  -0.570  0.00  0.00    +0.072 A 
ATOM     15  C   LIG    1       -4.485   0.083  -0.066  0.00  0.00    +0.036 A 
ATOM     16  C   LIG    1       -4.506   1.055   1.058  0.00  0.00    +0.065 C 
ATOM     17  N   LIG    1       -5.524  -0.399  -0.779  0.00  0.00    -0.348 N 
ATOM     18  H   LIG    1       -6.527  -0.121  -0.602  0.00  0.00    +0.166 HD
ATOM     19  C   LIG    1       -5.047  -1.239  -1.687  0.00  0.00    +0.197 A 
ATOM     20  N   LIG    1       -3.720  -1.306  -1.571  0.00  0.00    -0.240 NA
ENDBRANCH  13  14
ENDBRANCH  12  13
ENDBRANCH  11  12
ENDBRANCH   1  11
TORSDOF 8
