REMARK  Name = molecules/ARAIBEBZBOPLMB-UFGQHTETSA-N.pdb
REMARK                            x       y       z     vdW  Elec       q    Type
REMARK                         _______ _______ _______ _____ _____    ______ ____
ROOT
ATOM      1  C   LIG    1        0.537   0.370  -0.428  0.00  0.00    +0.157 C 
ATOM      2  C   LIG    1        1.812  -0.423  -0.622  0.00  0.00    +0.196 C 
ATOM      3  C   LIG    1        1.555  -1.858  -0.354  0.00  0.00    +0.068 C 
ATOM      4  C   LIG    1        0.459  -2.388  -0.859  0.00  0.00    +0.204 C 
ATOM      5  O   LIG    1       -0.373  -1.576  -1.600  0.00  0.00    -0.477 OA
ATOM      6  C   LIG    1       -0.476  -0.194  -1.354  0.00  0.00    +0.228 C 
ENDROOT
BRANCH   1  10
ATOM      7  C   LIG    1        1.074   4.202  -0.146  0.00  0.00    +0.109 C 
ATOM      8  C   LIG    1        0.769   2.789   0.184  0.00  0.00    +0.210 C 
ATOM      9  O   LIG    1        0.431   2.485   1.354  0.00  0.00    -0.276 OA
ATOM     10  N   LIG    1        0.840   1.745  -0.773  0.00  0.00    -0.305 N 
ATOM     11  H   LIG    1        1.124   2.021  -1.749  0.00  0.00    +0.149 HD
ENDBRANCH   1  10
BRANCH   2  12
ATOM     12  N   LIG    1        2.910   0.096   0.129  0.00  0.00    -0.268 N 
ATOM     13  H   LIG    1        3.764   0.410  -0.407  0.00  0.00    +0.259 HD
BRANCH  12  14
ATOM     14  C   LIG    1        2.974   0.232   1.517  0.00  0.00    +0.377 C 
ATOM     15  N   LIG    1        2.411  -0.750   2.359  0.00  0.00    -0.289 N 
ATOM     16  H   LIG    1        1.573  -0.512   2.967  0.00  0.00    +0.255 HD
ATOM     17  H   LIG    1        2.751  -1.729   2.446  0.00  0.00    +0.255 HD
BRANCH  14  18
ATOM     18  N   LIG    1        3.543   1.250   2.042  0.00  0.00    -0.130 NA
ATOM     19  H   LIG    1        3.981   2.017   1.498  0.00  0.00    +0.306 HD
ENDBRANCH  14  18
ENDBRANCH  12  14
ENDBRANCH   2  12
BRANCH   4  20
ATOM     20  C   LIG    1        0.137  -3.796  -0.638  0.00  0.00    +0.372 C 
ATOM     21  O   LIG    1        0.925  -4.482   0.042  0.00  0.00    -0.242 OA
BRANCH  20  22
ATOM     22  O   LIG    1       -1.015  -4.349  -1.172  0.00  0.00    -0.475 OA
ATOM     23  H   LIG    1       -1.109  -5.343  -1.199  0.00  0.00    +0.296 HD
ENDBRANCH  20  22
ENDBRANCH   4  20
BRANCH   6  24
ATOM     24  C   LIG    1       -1.895   0.143  -1.013  0.00  0.00    +0.187 C 
BRANCH  24  25
ATOM     25  O   LIG    1       -2.003   1.533  -0.769  0.00  0.00    -0.385 OA
ATOM     26  H   LIG    1       -2.090   1.994  -1.648  0.00  0.00    +0.210 HD
ENDBRANCH  24  25
BRANCH  24  27
ATOM     27  C   LIG    1       -2.434  -0.530   0.201  0.00  0.00    +0.172 C 
BRANCH  27  28
ATOM     28  O   LIG    1       -2.408  -1.921   0.140  0.00  0.00    -0.387 OA
ATOM     29  H   LIG    1       -1.861  -2.239   0.899  0.00  0.00    +0.210 HD
ENDBRANCH  27  28
BRANCH  27  30
ATOM     30  C   LIG    1       -3.918  -0.148   0.295  0.00  0.00    +0.189 C 
BRANCH  30  31
ATOM     31  O   LIG    1       -4.503  -0.697   1.423  0.00  0.00    -0.392 OA
ATOM     32  H   LIG    1       -4.292  -0.098   2.208  0.00  0.00    +0.210 HD
ENDBRANCH  30  31
ENDBRANCH  27  30
ENDBRANCH  24  27
ENDBRANCH   6  24
TORSDOF 12
