REMARK  Name = molecules/ASFKKFRSMGBFRO-INIZCTEOSA-N.pdb
REMARK                            x       y       z     vdW  Elec       q    Type
REMARK                         _______ _______ _______ _____ _____    ______ ____
ROOT
ATOM      1  C   LIG    1       -2.175  -0.634  -0.388  0.00  0.00    +0.023 A 
ATOM      2  C   LIG    1       -0.821  -0.809  -0.062  0.00  0.00    +0.016 A 
ATOM      3  C   LIG    1       -0.226  -2.044  -0.062  0.00  0.00    -0.035 A 
ATOM      4  C   LIG    1       -1.067  -3.109  -0.410  0.00  0.00    +0.004 A 
ATOM      5  C   LIG    1       -2.387  -2.955  -0.730  0.00  0.00    +0.001 A 
ATOM      6  C   LIG    1       -2.951  -1.708  -0.721  0.00  0.00    +0.012 A 
ENDROOT
BRANCH   1   7
ATOM      7  C   LIG    1       -2.717   0.710  -0.373  0.00  0.00    +0.193 C 
ATOM      8  O   LIG    1       -1.933   1.663  -0.691  0.00  0.00    -0.287 OA
BRANCH   7   9
ATOM      9  C   LIG    1       -4.106   0.989  -0.009  0.00  0.00    +0.022 A 
ATOM     10  C   LIG    1       -4.800   0.104   0.801  0.00  0.00    +0.012 A 
ATOM     11  C   LIG    1       -6.128   0.359   1.142  0.00  0.00    +0.001 A 
ATOM     12  C   LIG    1       -6.774   1.481   0.688  0.00  0.00    +0.000 A 
ATOM     13  C   LIG    1       -6.102   2.374  -0.118  0.00  0.00    +0.001 A 
ATOM     14  C   LIG    1       -4.775   2.106  -0.450  0.00  0.00    +0.012 A 
ENDBRANCH   7   9
ENDBRANCH   1   7
BRANCH   3  15
ATOM     15  C   LIG    1        1.145  -2.378   0.277  0.00  0.00    +0.102 C 
ATOM     16  C   LIG    1        1.167  -2.507   1.828  0.00  0.00    +0.022 C 
BRANCH  15  17
ATOM     17  C   LIG    1        2.211  -1.443  -0.075  0.00  0.00    +0.225 C 
ATOM     18  N   LIG    1        2.407  -0.230   0.589  0.00  0.00    -0.270 N 
ATOM     19  H   LIG    1        1.715  -0.029   1.375  0.00  0.00    +0.156 HD
ATOM     20  O   LIG    1        3.001  -1.754  -1.029  0.00  0.00    -0.275 OA
BRANCH  18  21
ATOM     21  C   LIG    1        3.408   0.732   0.371  0.00  0.00    +0.125 A 
ATOM     22  N   LIG    1        3.369   1.881   1.089  0.00  0.00    -0.240 NA
ATOM     23  C   LIG    1        4.244   2.879   0.980  0.00  0.00    +0.113 A 
ATOM     24  C   LIG    1        5.285   2.774   0.076  0.00  0.00    +0.023 A 
ATOM     25  C   LIG    1        5.386   1.646  -0.679  0.00  0.00    -0.046 A 
ATOM     26  C   LIG    1        6.491   1.518  -1.635  0.00  0.00    +0.044 C 
ATOM     27  C   LIG    1        4.433   0.630  -0.517  0.00  0.00    +0.047 A 
ENDBRANCH  18  21
ENDBRANCH  15  17
ENDBRANCH   3  15
TORSDOF 5
