REMARK  Name = molecules/ASUTZQLVASHGKV-JDFRZJQESA-N.pdb
REMARK                            x       y       z     vdW  Elec       q    Type
REMARK                         _______ _______ _______ _____ _____    ______ ____
ROOT
ATOM      1  C   LIG    1       -1.420   2.432   0.347  0.00  0.00    +0.162 A 
ATOM      2  C   LIG    1       -1.254   1.059   0.286  0.00  0.00    +0.167 A 
ATOM      3  O   LIG    1       -2.138   0.009   0.531  0.00  0.00    -0.484 OA
ATOM      4  C   LIG    1       -1.357  -1.159   0.843  0.00  0.00    +0.191 C 
ATOM      5  C   LIG    1       -2.123  -2.391   0.627  0.00  0.00    +0.081 C 
ATOM      6  C   LIG    1       -1.720  -3.226  -0.546  0.00  0.00    +0.141 C 
ATOM      7  C   LIG    1       -1.124  -2.451  -1.649  0.00  0.00    +0.001 C 
ATOM      8  C   LIG    1       -0.387  -1.363  -1.452  0.00  0.00    -0.013 C 
ATOM      9  C   LIG    1       -0.177  -0.944  -0.051  0.00  0.00    +0.056 C 
ATOM     10  C   LIG    1        1.102  -1.504   0.505  0.00  0.00    +0.035 C 
ATOM     11  C   LIG    1        2.155  -1.376  -0.566  0.00  0.00    +0.086 C 
ATOM     12  N   LIG    1        2.958  -0.222  -0.473  0.00  0.00    -0.301 NA
ATOM     13  C   LIG    1        4.135  -0.302   0.297  0.00  0.00    +0.105 C 
ATOM     14  C   LIG    1        2.426   1.023  -0.778  0.00  0.00    +0.119 C 
ATOM     15  C   LIG    1        1.057   1.310  -0.379  0.00  0.00    -0.026 A 
ATOM     16  C   LIG    1        0.866   2.679  -0.310  0.00  0.00    +0.009 A 
ATOM     17  C   LIG    1       -0.047   0.535  -0.068  0.00  0.00    +0.016 A 
ATOM     18  C   LIG    1       -0.344   3.240   0.044  0.00  0.00    +0.050 A 
ENDROOT
BRANCH   1  19
ATOM     19  O   LIG    1       -2.663   2.924   0.710  0.00  0.00    -0.491 OA
ATOM     20  C   LIG    1       -2.978   4.279   0.814  0.00  0.00    +0.277 C 
ENDBRANCH   1  19
BRANCH   6  21
ATOM     21  O   LIG    1       -2.811  -3.932  -1.049  0.00  0.00    -0.388 OA
ATOM     22  H   LIG    1       -3.443  -3.308  -1.491  0.00  0.00    +0.210 HD
ENDBRANCH   6  21
TORSDOF 2
