REMARK  Name = molecules/ATEBXHFBFRCZMA-VUIWNEJGSA-N.pdb
REMARK                            x       y       z     vdW  Elec       q    Type
REMARK                         _______ _______ _______ _____ _____    ______ ____
ROOT
ATOM      1  C   LIG    1       -4.980   0.828  -1.147  0.00  0.00    +0.126 C 
ATOM      2  C   LIG    1       -4.564  -0.334  -0.349  0.00  0.00    +0.056 C 
ATOM      3  C   LIG    1       -5.408  -0.449   0.932  0.00  0.00    +0.014 C 
ATOM      4  C   LIG    1       -4.718  -1.705  -1.042  0.00  0.00    +0.187 C 
ATOM      5  C   LIG    1       -3.294  -2.293  -1.038  0.00  0.00    +0.056 C 
ATOM      6  C   LIG    1       -3.180  -3.767  -1.176  0.00  0.00    +0.130 C 
ATOM      7  C   LIG    1       -2.405  -4.476  -0.105  0.00  0.00    +0.058 C 
ATOM      8  C   LIG    1       -1.357  -5.210  -0.081  0.00  0.00    +0.158 C 
ATOM      9  O   LIG    1        0.045  -4.903   0.035  0.00  0.00    -0.327 OA
ATOM     10  C   LIG    1        0.500  -3.799   0.594  0.00  0.00    +0.274 C 
ATOM     11  O   LIG    1        0.024  -3.861   2.045  0.00  0.00    -0.453 OA
ATOM     12  C   LIG    1        0.097  -2.457   2.310  0.00  0.00    +0.142 A 
ATOM     13  C   LIG    1       -0.747  -1.670   3.030  0.00  0.00    +0.034 A 
ATOM     14  C   LIG    1       -1.936  -2.198   3.763  0.00  0.00    +0.051 C 
ATOM     15  C   LIG    1       -0.423  -0.338   3.038  0.00  0.00    +0.135 A 
ATOM     16  C   LIG    1        0.703   0.167   2.347  0.00  0.00    +0.075 A 
ATOM     17  C   LIG    1        0.784   1.638   2.235  0.00  0.00    +0.213 A 
ATOM     18  O   LIG    1       -0.156   2.126   3.010  0.00  0.00    -0.285 OA
ATOM     19  C   LIG    1        1.774   2.340   1.415  0.00  0.00    +0.104 A 
ATOM     20  N   LIG    1        1.486   3.733   0.994  0.00  0.00    -0.280 N 
ATOM     21  C   LIG    1        1.586   4.942   1.652  0.00  0.00    +0.225 C 
ATOM     22  C   LIG    1        0.643   5.711   2.473  0.00  0.00    +0.062 C 
ATOM     23  C   LIG    1        1.213   6.710   3.487  0.00  0.00    +0.022 C 
ATOM     24  C   LIG    1       -0.678   5.635   2.397  0.00  0.00    +0.013 C 
ATOM     25  C   LIG    1       -1.478   4.509   1.974  0.00  0.00    +0.001 C 
ATOM     26  C   LIG    1       -1.744   3.893   0.884  0.00  0.00    +0.002 C 
ATOM     27  C   LIG    1       -2.894   3.965  -0.085  0.00  0.00    +0.018 C 
ATOM     28  C   LIG    1       -3.756   5.178   0.099  0.00  0.00    +0.010 C 
ATOM     29  C   LIG    1       -3.768   2.712   0.052  0.00  0.00    +0.123 C 
ATOM     30  O   LIG    1        2.749   5.572   1.545  0.00  0.00    -0.275 OA
ATOM     31  H   LIG    1        1.111   3.977  -0.081  0.00  0.00    +0.155 HD
ATOM     32  C   LIG    1        2.705   1.532   0.826  0.00  0.00    +0.078 A 
ATOM     33  C   LIG    1        2.592   0.084   0.867  0.00  0.00    +0.082 A 
ATOM     34  N   LIG    1        3.687  -0.430   0.253  0.00  0.00    -0.223 NA
ATOM     35  C   LIG    1        4.471   0.480  -0.397  0.00  0.00    +0.119 C 
ATOM     36  C   LIG    1        5.914   0.290   0.129  0.00  0.00    +0.062 C 
ATOM     37  C   LIG    1        6.510  -0.807  -0.771  0.00  0.00    +0.088 C 
ATOM     38  N   LIG    1        6.837  -0.176  -1.982  0.00  0.00    -0.302 NA
ATOM     39  C   LIG    1        5.795   0.602  -2.551  0.00  0.00    +0.088 C 
ATOM     40  C   LIG    1        4.475   0.476  -1.884  0.00  0.00    +0.062 C 
ATOM     41  N   LIG    1        4.013   1.710   0.142  0.00  0.00    -0.319 N 
ATOM     42  H   LIG    1        4.578   2.560   0.065  0.00  0.00    +0.148 HD
ATOM     43  C   LIG    1        1.558  -0.653   1.641  0.00  0.00    +0.028 A 
ATOM     44  C   LIG    1        1.244  -1.972   1.639  0.00  0.00    +0.076 A 
ATOM     45  C   LIG    1        1.759  -3.223   1.024  0.00  0.00    +0.238 C 
ATOM     46  O   LIG    1        2.868  -3.759   0.851  0.00  0.00    -0.285 OA
ATOM     47  C   LIG    1       -0.152  -2.563  -0.099  0.00  0.00    +0.098 C 
ATOM     48  C   LIG    1       -2.646  -1.617  -2.258  0.00  0.00    +0.014 C 
ATOM     49  C   LIG    1       -4.063   2.020  -1.233  0.00  0.00    +0.044 C 
ATOM     50  C   LIG    1       -2.872   1.837  -2.117  0.00  0.00    +0.013 C 
ENDROOT
BRANCH  15  51
ATOM     51  O   LIG    1       -1.222   0.558   3.747  0.00  0.00    -0.506 OA
ATOM     52  H   LIG    1       -2.024   0.193   4.237  0.00  0.00    +0.292 HD
ENDBRANCH  15  51
BRANCH  29  53
ATOM     53  O   LIG    1       -3.042   1.848   0.906  0.00  0.00    -0.391 OA
ATOM     54  H   LIG    1       -3.137   2.204   1.825  0.00  0.00    +0.210 HD
ENDBRANCH  29  53
BRANCH   6  55
ATOM     55  O   LIG    1       -2.770  -4.071  -2.454  0.00  0.00    -0.379 OA
ATOM     56  C   LIG    1       -3.803  -4.702  -3.134  0.00  0.00    +0.194 C 
ENDBRANCH   6  55
BRANCH   1  57
ATOM     57  O   LIG    1       -5.413   0.493  -2.439  0.00  0.00    -0.391 OA
ATOM     58  H   LIG    1       -5.942   1.253  -2.824  0.00  0.00    +0.210 HD
ENDBRANCH   1  57
BRANCH   4  59
ATOM     59  O   LIG    1       -5.516  -2.541  -0.256  0.00  0.00    -0.461 OA
BRANCH  59  60
ATOM     60  C   LIG    1       -6.632  -3.188  -0.717  0.00  0.00    +0.304 C 
ATOM     61  C   LIG    1       -7.414  -4.062   0.207  0.00  0.00    +0.136 C 
ATOM     62  O   LIG    1       -6.999  -3.050  -1.910  0.00  0.00    -0.251 OA
ENDBRANCH  59  60
ENDBRANCH   4  59
BRANCH  38  63
ATOM     63  C   LIG    1        8.149   0.104  -2.349  0.00  0.00    +0.087 C 
BRANCH  63  64
ATOM     64  C   LIG    1        9.261  -0.659  -1.684  0.00  0.00    -0.003 C 
ATOM     65  C   LIG    1        9.529  -0.297  -0.263  0.00  0.00    +0.008 C 
ATOM     66  C   LIG    1        9.191  -2.142  -1.854  0.00  0.00    +0.008 C 
ENDBRANCH  63  64
ENDBRANCH  38  63
TORSDOF 8
