REMARK  Name = molecules/AUVVAXYIELKVAI-CKBKHPSWSA-N.pdb
REMARK                            x       y       z     vdW  Elec       q    Type
REMARK                         _______ _______ _______ _____ _____    ______ ____
ROOT
ATOM      1  C   LIG    1        0.038  -1.126  -0.339  0.00  0.00    -0.003 C 
ATOM      2  C   LIG    1       -1.089  -0.376   0.350  0.00  0.00    +0.027 C 
ATOM      3  C   LIG    1       -2.411  -0.919  -0.110  0.00  0.00    +0.087 C 
ATOM      4  C   LIG    1       -3.545  -0.286   0.602  0.00  0.00    -0.023 A 
ATOM      5  C   LIG    1       -3.420   0.503   1.729  0.00  0.00    +0.054 A 
ATOM      6  C   LIG    1       -4.512   1.069   2.359  0.00  0.00    +0.162 A 
ATOM      7  C   LIG    1       -5.762   0.812   1.813  0.00  0.00    +0.162 A 
ATOM      8  C   LIG    1       -5.911   0.018   0.673  0.00  0.00    +0.053 A 
ATOM      9  C   LIG    1       -4.799  -0.528   0.073  0.00  0.00    -0.038 A 
ATOM     10  C   LIG    1       -4.845  -1.385  -1.142  0.00  0.00    +0.051 C 
ATOM     11  C   LIG    1       -3.815  -0.792  -2.083  0.00  0.00    +0.089 C 
ATOM     12  N   LIG    1       -2.522  -0.606  -1.499  0.00  0.00    -0.295 NA
ATOM     13  C   LIG    1       -1.556  -1.241  -2.317  0.00  0.00    +0.088 C 
ATOM     14  C   LIG    1       -0.170  -1.375  -1.771  0.00  0.00    +0.006 C 
ENDROOT
BRANCH   6  15
ATOM     15  O   LIG    1       -4.392   1.863   3.492  0.00  0.00    -0.491 OA
ATOM     16  C   LIG    1       -3.134   2.143   4.073  0.00  0.00    +0.277 C 
ENDBRANCH   6  15
BRANCH   7  17
ATOM     17  O   LIG    1       -6.858   1.381   2.447  0.00  0.00    -0.491 OA
ATOM     18  C   LIG    1       -8.136   1.130   1.903  0.00  0.00    +0.277 C 
ENDBRANCH   7  17
BRANCH  14  19
ATOM     19  C   LIG    1        0.284  -2.785  -2.198  0.00  0.00    +0.002 C 
ATOM     20  C   LIG    1        0.046  -2.971  -3.676  0.00  0.00    +0.004 C 
ENDBRANCH  14  19
BRANCH   1  21
ATOM     21  C   LIG    1        1.258  -0.325   0.046  0.00  0.00    +0.027 C 
BRANCH  21  22
ATOM     22  C   LIG    1        2.560  -0.785  -0.455  0.00  0.00    +0.085 C 
ATOM     23  C   LIG    1        3.619   0.152   0.073  0.00  0.00    -0.024 A 
ATOM     24  C   LIG    1        3.336   1.176   0.913  0.00  0.00    +0.054 A 
ATOM     25  C   LIG    1        4.402   1.967   1.325  0.00  0.00    +0.162 A 
ATOM     26  C   LIG    1        5.687   1.707   0.888  0.00  0.00    +0.162 A 
ATOM     27  C   LIG    1        5.937   0.655   0.032  0.00  0.00    +0.053 A 
ATOM     28  C   LIG    1        4.901  -0.126  -0.377  0.00  0.00    -0.038 A 
ATOM     29  C   LIG    1        5.048  -1.287  -1.292  0.00  0.00    +0.050 C 
ATOM     30  C   LIG    1        3.993  -1.195  -2.341  0.00  0.00    +0.086 C 
ATOM     31  N   LIG    1        2.731  -0.722  -1.896  0.00  0.00    -0.309 NA
ATOM     32  H   LIG    1        2.671   0.311  -2.138  0.00  0.00    +0.123 HD
BRANCH  25  33
ATOM     33  O   LIG    1        4.176   3.016   2.174  0.00  0.00    -0.491 OA
ATOM     34  C   LIG    1        2.854   3.304   2.639  0.00  0.00    +0.277 C 
ENDBRANCH  25  33
BRANCH  26  35
ATOM     35  O   LIG    1        6.756   2.518   1.314  0.00  0.00    -0.491 OA
ATOM     36  C   LIG    1        8.064   2.235   0.856  0.00  0.00    +0.277 C 
ENDBRANCH  26  35
ENDBRANCH  21  22
ENDBRANCH   1  21
TORSDOF 7
