REMARK  Name = molecules/AUYYCJSJGJYCDS-LBPRGKRZSA-N.pdb
REMARK                            x       y       z     vdW  Elec       q    Type
REMARK                         _______ _______ _______ _____ _____    ______ ____
ROOT
ATOM      1  C   LIG    1        0.329  -0.795   1.231  0.00  0.00    +0.155 A 
ATOM      2  C   LIG    1        0.001   0.486   1.603  0.00  0.00    +0.057 A 
ATOM      3  I   LIG    1        1.421   1.766   2.487  0.00  0.00    -0.040 I 
ATOM      4  C   LIG    1       -1.312   0.931   1.381  0.00  0.00    +0.021 A 
ATOM      5  C   LIG    1       -2.273   0.127   0.806  0.00  0.00    -0.043 A 
ATOM      6  C   LIG    1       -1.925  -1.159   0.438  0.00  0.00    +0.021 A 
ATOM      7  C   LIG    1       -0.633  -1.589   0.659  0.00  0.00    +0.057 A 
ATOM      8  I   LIG    1       -0.110  -3.539   0.100  0.00  0.00    -0.040 I 
ENDROOT
BRANCH   1   9
ATOM      9  O   LIG    1        1.585  -1.271   1.425  0.00  0.00    -0.454 OA
BRANCH   9  10
ATOM     10  C   LIG    1        2.639  -1.202   0.563  0.00  0.00    +0.130 A 
ATOM     11  C   LIG    1        3.860  -1.738   0.913  0.00  0.00    +0.050 A 
ATOM     12  C   LIG    1        4.919  -1.668   0.044  0.00  0.00    +0.050 A 
ATOM     13  C   LIG    1        4.827  -1.072  -1.202  0.00  0.00    +0.130 A 
ATOM     14  C   LIG    1        3.598  -0.533  -1.553  0.00  0.00    +0.058 A 
ATOM     15  I   LIG    1        3.419   0.386  -3.450  0.00  0.00    -0.040 I 
ATOM     16  C   LIG    1        2.536  -0.606  -0.676  0.00  0.00    +0.064 A 
BRANCH  13  17
ATOM     17  O   LIG    1        5.913  -1.010  -2.071  0.00  0.00    -0.506 OA
ATOM     18  H   LIG    1        6.776  -1.417  -1.763  0.00  0.00    +0.292 HD
ENDBRANCH  13  17
ENDBRANCH   9  10
ENDBRANCH   1   9
BRANCH   5  19
ATOM     19  C   LIG    1       -3.639   0.656   0.597  0.00  0.00    +0.065 C 
BRANCH  19  20
ATOM     20  CA  LIG    1       -3.820   1.317  -0.749  0.00  0.00    +0.165 C 
BRANCH  20  21
ATOM     21  N   LIG    1       -3.668   0.313  -1.802  0.00  0.00    -0.318 NA
ATOM     22  H1  LIG    1       -4.168  -0.555  -1.530  0.00  0.00    +0.119 HD
ATOM     23  H2  LIG    1       -3.924   0.675  -2.725  0.00  0.00    +0.119 HD
ENDBRANCH  20  21
BRANCH  20  24
ATOM     24  C   LIG    1       -2.924   2.455  -0.953  0.00  0.00    +0.322 C 
ATOM     25  O   LIG    1       -2.137   2.464  -1.937  0.00  0.00    -0.249 OA
BRANCH  24  26
ATOM     26  OXT LIG    1       -2.899   3.530  -0.108  0.00  0.00    -0.480 OA
ATOM     27  HXT LIG    1       -2.604   4.449  -0.413  0.00  0.00    +0.295 HD
ENDBRANCH  24  26
ENDBRANCH  20  24
ENDBRANCH  19  20
ENDBRANCH   5  19
TORSDOF 8
