REMARK  Name = molecules/AUZONCFQVSMFAP-UHFFFAOYSA-N.pdb
REMARK                            x       y       z     vdW  Elec       q    Type
REMARK                         _______ _______ _______ _____ _____    ______ ____
ROOT
ATOM      1  S   LIG    1       -1.304   1.373  -0.274  0.00  0.00    -0.027 S 
ENDROOT
BRANCH   1   2
ATOM      2  C   LIG    1       -2.284  -0.077  -0.616  0.00  0.00    +0.120 C 
ATOM      3  S   LIG    1       -1.395  -1.332  -1.238  0.00  0.00    -0.027 S 
BRANCH   2   4
ATOM      4  N   LIG    1       -3.645  -0.239  -0.420  0.00  0.00    -0.319 N 
BRANCH   4   5
ATOM      5  C   LIG    1       -4.479   0.830   0.109  0.00  0.00    +0.103 C 
ATOM      6  C   LIG    1       -3.845   2.158   0.209  0.00  0.00    +0.024 C 
ENDBRANCH   4   5
BRANCH   4   7
ATOM      7  C   LIG    1       -4.362  -1.459  -0.666  0.00  0.00    +0.103 C 
ATOM      8  C   LIG    1       -3.630  -2.630  -1.174  0.00  0.00    +0.024 C 
ENDBRANCH   4   7
ENDBRANCH   2   4
ENDBRANCH   1   2
BRANCH   1   9
ATOM      9  S   LIG    1        0.712   1.174  -0.768  0.00  0.00    -0.027 S 
BRANCH   9  10
ATOM     10  C   LIG    1        1.710   0.512   0.544  0.00  0.00    +0.120 C 
ATOM     11  S   LIG    1        0.921   0.097   1.923  0.00  0.00    -0.027 S 
BRANCH  10  12
ATOM     12  N   LIG    1        3.116   0.331   0.450  0.00  0.00    -0.319 N 
BRANCH  12  13
ATOM     13  C   LIG    1        3.848  -0.217   1.564  0.00  0.00    +0.103 C 
ATOM     14  C   LIG    1        4.351  -1.582   1.194  0.00  0.00    +0.024 C 
ENDBRANCH  12  13
BRANCH  12  15
ATOM     15  C   LIG    1        3.851   0.684  -0.730  0.00  0.00    +0.103 C 
ATOM     16  C   LIG    1        4.731   1.888  -0.364  0.00  0.00    +0.024 C 
ENDBRANCH  12  15
ENDBRANCH  10  12
ENDBRANCH   9  10
ENDBRANCH   1   9
TORSDOF 9
