REMARK  Name = molecules/AVKHCKXGKPAGEI-UHFFFAOYSA-N.pdb
REMARK                            x       y       z     vdW  Elec       q    Type
REMARK                         _______ _______ _______ _____ _____    ______ ____
ROOT
ATOM      1  N   LIG    1        0.670  -0.668  -0.500  0.00  0.00    -0.263 N 
ATOM      2  H   LIG    1        0.812  -1.647  -0.905  0.00  0.00    +0.170 HD
ENDROOT
BRANCH   1   7
ATOM      3  N   LIG    1        4.139   0.514   0.074  0.00  0.00    -0.312 N 
ATOM      4  H   LIG    1        4.679   0.460   0.989  0.00  0.00    +0.147 HD
ATOM      5  C   LIG    1        3.040  -0.339  -0.135  0.00  0.00    +0.313 C 
ATOM      6  O   LIG    1        3.213  -1.572  -0.176  0.00  0.00    -0.252 OA
ATOM      7  N   LIG    1        1.743   0.185  -0.296  0.00  0.00    -0.220 N 
ATOM      8  H   LIG    1        1.605   1.214  -0.262  0.00  0.00    +0.174 HD
ATOM      9  H   LIG    1        4.497   1.224  -0.603  0.00  0.00    +0.147 HD
ENDBRANCH   1   7
BRANCH   1  10
ATOM     10  C   LIG    1       -0.668  -0.316  -0.194  0.00  0.00    +0.044 A 
ATOM     11  C   LIG    1       -0.981   0.915   0.328  0.00  0.00    +0.024 A 
ATOM     12  C   LIG    1       -2.310   1.220   0.619  0.00  0.00    +0.002 A 
ATOM     13  C   LIG    1       -3.343   0.333   0.406  0.00  0.00    +0.000 A 
ATOM     14  C   LIG    1       -3.029  -0.903  -0.118  0.00  0.00    +0.002 A 
ATOM     15  C   LIG    1       -1.714  -1.222  -0.413  0.00  0.00    +0.024 A 
ENDBRANCH   1  10
TORSDOF 2
