REMARK  Name = molecules/AVKUERGKIZMTKX-NJBDSQKTSA-N.pdb
REMARK                            x       y       z     vdW  Elec       q    Type
REMARK                         _______ _______ _______ _____ _____    ______ ____
ROOT
ATOM      1  C   LIG    1       -2.910  -1.801   1.071  0.00  0.00    +0.025 C 
ATOM      2  C   LIG    1       -3.418  -0.799   0.092  0.00  0.00    +0.042 C 
ATOM      3  CA  LIG    1       -3.503   0.599   0.648  0.00  0.00    +0.201 C 
ATOM      4  N   LIG    1       -2.228   1.233   0.424  0.00  0.00    -0.271 N 
ATOM      5  C   LIG    1       -0.982   1.908   0.600  0.00  0.00    +0.240 C 
ATOM      6  O   LIG    1       -0.522   2.585   1.559  0.00  0.00    -0.273 OA
ATOM      7  CA  LIG    1       -0.466   1.503  -0.754  0.00  0.00    +0.190 C 
ATOM      8  C   LIG    1       -1.906   1.200  -1.011  0.00  0.00    +0.165 C 
ATOM      9  C   LIG    1       -4.732  -1.260  -0.505  0.00  0.00    +0.025 C 
ATOM     10  S   LIG    1       -2.264  -0.576  -1.320  0.00  0.00    -0.127 S 
ENDROOT
BRANCH   7  11
ATOM     11  N   LIG    1        0.433   0.396  -0.670  0.00  0.00    -0.300 N 
ATOM     12  H   LIG    1        0.153  -0.488  -0.201  0.00  0.00    +0.150 HD
ATOM     13  C   LIG    1        1.756   0.439  -1.222  0.00  0.00    +0.235 C 
ATOM     14  O   LIG    1        2.124   1.504  -1.800  0.00  0.00    -0.274 OA
BRANCH  13  15
ATOM     15  CA  LIG    1        2.673  -0.710  -1.129  0.00  0.00    +0.168 C 
BRANCH  15  16
ATOM     16  C   LIG    1        3.851  -0.413  -0.285  0.00  0.00    -0.022 A 
ATOM     17  C   LIG    1        4.139   0.833   0.215  0.00  0.00    +0.005 A 
ATOM     18  C   LIG    1        5.258   1.069   1.015  0.00  0.00    +0.000 A 
ATOM     19  C   LIG    1        6.111   0.031   1.322  0.00  0.00    +0.000 A 
ATOM     20  C   LIG    1        5.832  -1.226   0.825  0.00  0.00    +0.000 A 
ATOM     21  C   LIG    1        4.734  -1.458   0.040  0.00  0.00    +0.005 A 
ENDBRANCH  15  16
BRANCH  15  22
ATOM     22  N   LIG    1        1.964  -1.892  -0.607  0.00  0.00    -0.316 NA
ATOM     23  H1  LIG    1        1.702  -1.692   0.384  0.00  0.00    +0.119 HD
ATOM     24  H2  LIG    1        1.111  -2.020  -1.177  0.00  0.00    +0.119 HD
ENDBRANCH  15  22
ENDBRANCH  13  15
ENDBRANCH   7  11
BRANCH   3  25
ATOM     25  C   LIG    1       -4.631   1.366   0.117  0.00  0.00    +0.327 C 
ATOM     26  OXT LIG    1       -5.794   0.940   0.239  0.00  0.00    -0.249 OA
BRANCH  25  27
ATOM     27  O   LIG    1       -4.415   2.566  -0.522  0.00  0.00    -0.479 OA
ATOM     28  H   LIG    1       -4.274   3.397   0.075  0.00  0.00    +0.295 HD
ENDBRANCH  25  27
ENDBRANCH   3  25
TORSDOF 6
