REMARK  Name = molecules/AVWWVJUMXRXPNF-UHFFFAOYSA-N.pdb
REMARK                            x       y       z     vdW  Elec       q    Type
REMARK                         _______ _______ _______ _____ _____    ______ ____
ROOT
ATOM      1  N   LIG    1       -0.864  -0.945  -0.381  0.00  0.00    +0.381 N 
ATOM      2  C   LIG    1       -2.057  -1.723  -0.562  0.00  0.00    -0.092 C 
ATOM      3  C   LIG    1       -0.119  -1.013  -1.643  0.00  0.00    -0.092 C 
ENDROOT
BRANCH   1   4
ATOM      4  C   LIG    1       -1.091   0.414  -0.004  0.00  0.00    -0.040 C 
BRANCH   4   5
ATOM      5  C   LIG    1       -2.498   0.786   0.153  0.00  0.00    -0.063 A 
ATOM      6  C   LIG    1       -3.175   0.677   1.350  0.00  0.00    +0.002 A 
ATOM      7  C   LIG    1       -4.508   1.037   1.470  0.00  0.00    +0.000 A 
ATOM      8  C   LIG    1       -5.205   1.526   0.362  0.00  0.00    +0.000 A 
ATOM      9  C   LIG    1       -4.544   1.636  -0.823  0.00  0.00    +0.000 A 
ATOM     10  C   LIG    1       -3.214   1.271  -0.921  0.00  0.00    +0.002 A 
ENDBRANCH   4   5
ENDBRANCH   1   4
BRANCH   1  11
ATOM     11  C   LIG    1       -0.053  -1.635   0.623  0.00  0.00    -0.034 C 
BRANCH  11  12
ATOM     12  C   LIG    1        1.422  -1.434   0.367  0.00  0.00    +0.211 C 
BRANCH  12  13
ATOM     13  O   LIG    1        1.778  -0.058   0.405  0.00  0.00    -0.494 OA
BRANCH  13  14
ATOM     14  C   LIG    1        3.094   0.277   0.188  0.00  0.00    +0.120 A 
ATOM     15  C   LIG    1        3.426   1.616   0.227  0.00  0.00    +0.045 A 
ATOM     16  C   LIG    1        4.737   1.991   0.015  0.00  0.00    +0.004 A 
ATOM     17  C   LIG    1        5.741   1.055  -0.239  0.00  0.00    +0.000 A 
ATOM     18  C   LIG    1        5.396  -0.271  -0.275  0.00  0.00    +0.004 A 
ATOM     19  C   LIG    1        4.089  -0.637  -0.063  0.00  0.00    +0.045 A 
ENDBRANCH  13  14
ENDBRANCH  12  13
ENDBRANCH  11  12
ENDBRANCH   1  11
TORSDOF 6
