REMARK  Name = molecules/AWKLBIOQCIORSB-UHFFFAOYSA-N.pdb
REMARK                            x       y       z     vdW  Elec       q    Type
REMARK                         _______ _______ _______ _____ _____    ______ ____
ROOT
ATOM      1  N   LIG    1       -0.444  -0.465  -0.978  0.00  0.00    -0.323 N 
ATOM      2  C   LIG    1       -1.644  -0.033  -0.496  0.00  0.00    +0.151 A 
ATOM      3  C   LIG    1       -2.379  -1.112  -0.016  0.00  0.00    +0.168 A 
ATOM      4  N   LIG    1       -3.605  -0.980   0.518  0.00  0.00    -0.280 N 
ATOM      5  C   LIG    1       -4.363  -2.102   1.017  0.00  0.00    +0.155 C 
ATOM      6  C   LIG    1       -4.129   0.244   0.586  0.00  0.00    +0.333 A 
ATOM      7  O   LIG    1       -5.291   0.406   1.087  0.00  0.00    -0.246 OA
ATOM      8  N   LIG    1       -3.465   1.339   0.137  0.00  0.00    -0.262 N 
ATOM      9  C   LIG    1       -4.045   2.672   0.215  0.00  0.00    +0.157 C 
ATOM     10  N   LIG    1       -1.599  -2.188  -0.222  0.00  0.00    -0.218 NA
ATOM     11  C   LIG    1       -2.230   1.209  -0.402  0.00  0.00    +0.282 A 
ATOM     12  O   LIG    1       -1.592   2.205  -0.826  0.00  0.00    -0.265 OA
ATOM     13  C   LIG    1       -0.442  -1.790  -0.798  0.00  0.00    +0.202 A 
ENDROOT
BRANCH   1  14
ATOM     14  C   LIG    1        0.578   0.390  -1.552  0.00  0.00    +0.139 C 
BRANCH  14  15
ATOM     15  C   LIG    1        1.523   0.880  -0.509  0.00  0.00    +0.106 C 
BRANCH  15  16
ATOM     16  N   LIG    1        2.258  -0.157   0.183  0.00  0.00    -0.301 NA
BRANCH  16  17
ATOM     17  C   LIG    1        3.061   0.441   1.234  0.00  0.00    +0.081 C 
ATOM     18  C   LIG    1        4.198   1.271   0.753  0.00  0.00    +0.020 C 
ENDBRANCH  16  17
BRANCH  16  19
ATOM     19  C   LIG    1        3.107  -0.873  -0.764  0.00  0.00    +0.081 C 
ATOM     20  C   LIG    1        3.943  -1.925  -0.123  0.00  0.00    +0.020 C 
ENDBRANCH  16  19
ENDBRANCH  15  16
ENDBRANCH  14  15
ENDBRANCH   1  14
TORSDOF 5
