REMARK  Name = molecules/AXKPFOAXAHJUAG-UHFFFAOYSA-N.pdb
REMARK                            x       y       z     vdW  Elec       q    Type
REMARK                         _______ _______ _______ _____ _____    ______ ____
ROOT
ATOM      1  C   LIG    1       -2.566  -0.353  -0.177  0.00  0.00    +0.101 C 
ATOM      2  C   LIG    1       -2.096  -0.196   1.260  0.00  0.00    +0.047 C 
ATOM      3  C   LIG    1       -0.654  -0.129   1.449  0.00  0.00    +0.086 C 
ATOM      4  N   LIG    1        0.220  -0.212   0.337  0.00  0.00    -0.302 NA
ATOM      5  C   LIG    1       -0.288   0.134  -0.931  0.00  0.00    +0.086 C 
ATOM      6  C   LIG    1       -1.707   0.532  -1.010  0.00  0.00    +0.047 C 
ENDROOT
BRANCH   1   7
ATOM      7  N   LIG    1       -3.980  -0.002  -0.232  0.00  0.00    -0.289 NA
ATOM      8  C   LIG    1       -4.661  -0.605   0.906  0.00  0.00    +0.085 C 
ATOM      9  C   LIG    1       -6.142  -0.571   0.611  0.00  0.00    +0.015 C 
ATOM     10  C   LIG    1       -6.556   0.882   0.545  0.00  0.00    +0.002 C 
ATOM     11  C   LIG    1       -5.704   1.672  -0.402  0.00  0.00    +0.015 C 
ATOM     12  C   LIG    1       -4.226   1.403  -0.214  0.00  0.00    +0.085 C 
ENDBRANCH   1   7
BRANCH   1  13
ATOM     13  C   LIG    1       -2.435  -1.742  -0.648  0.00  0.00    +0.231 C 
ATOM     14  O   LIG    1       -1.334  -2.352  -0.716  0.00  0.00    -0.274 OA
ATOM     15  N   LIG    1       -3.585  -2.471  -1.061  0.00  0.00    -0.328 N 
ATOM     16  H   LIG    1       -3.665  -3.509  -0.964  0.00  0.00    +0.145 HD
ATOM     17  H   LIG    1       -4.402  -1.978  -1.485  0.00  0.00    +0.145 HD
ENDBRANCH   1  13
BRANCH   4  18
ATOM     18  C   LIG    1        1.515   0.334   0.654  0.00  0.00    +0.085 C 
BRANCH  18  19
ATOM     19  C   LIG    1        2.533   0.259  -0.423  0.00  0.00    +0.023 C 
BRANCH  19  20
ATOM     20  C   LIG    1        3.809   0.895   0.169  0.00  0.00    +0.081 C 
BRANCH  20  21
ATOM     21  C   LIG    1        4.924   0.891  -0.801  0.00  0.00    +0.163 C 
ATOM     22  O   LIG    1        4.692   1.387  -1.930  0.00  0.00    -0.292 OA
BRANCH  21  23
ATOM     23  C   LIG    1        6.241   0.346  -0.496  0.00  0.00    +0.018 A 
ATOM     24  C   LIG    1        6.531  -0.286   0.690  0.00  0.00    +0.014 A 
ATOM     25  C   LIG    1        7.812  -0.810   0.904  0.00  0.00    +0.039 A 
ATOM     26  C   LIG    1        8.802  -0.711  -0.046  0.00  0.00    +0.123 A 
ATOM     27  F   LIG    1       10.055  -1.229   0.176  0.00  0.00    -0.205 F 
ATOM     28  C   LIG    1        8.495  -0.074  -1.231  0.00  0.00    +0.039 A 
ATOM     29  C   LIG    1        7.240   0.444  -1.450  0.00  0.00    +0.014 A 
ENDBRANCH  21  23
ENDBRANCH  20  21
ENDBRANCH  19  20
ENDBRANCH  18  19
ENDBRANCH   4  18
TORSDOF 7
