REMARK  Name = molecules/AXQACEQYCPKDMV-RZAWKFBISA-N.pdb
REMARK                            x       y       z     vdW  Elec       q    Type
REMARK                         _______ _______ _______ _____ _____    ______ ____
ROOT
ATOM      1  C   LIG    1       -2.477   0.569   0.491  0.00  0.00    +0.100 C 
ATOM      2  C   LIG    1       -2.927  -0.463   1.469  0.00  0.00    +0.075 C 
ATOM      3  C   LIG    1       -2.050  -0.611   2.700  0.00  0.00    +0.252 C 
ATOM      4  O   LIG    1       -2.455  -1.978   3.037  0.00  0.00    -0.476 OA
ATOM      5  C   LIG    1       -2.355  -2.685   1.814  0.00  0.00    +0.167 A 
ATOM      6  C   LIG    1       -2.054  -3.970   1.434  0.00  0.00    +0.159 A 
ATOM      7  C   LIG    1       -2.056  -4.274   0.066  0.00  0.00    +0.049 A 
ATOM      8  C   LIG    1       -2.350  -3.315  -0.885  0.00  0.00    +0.008 A 
ATOM      9  C   LIG    1       -2.655  -2.009  -0.499  0.00  0.00    -0.038 A 
ATOM     10  C   LIG    1       -2.942  -0.949  -1.469  0.00  0.00    +0.057 C 
ATOM     11  C   LIG    1       -0.632  -0.779   2.255  0.00  0.00    +0.144 C 
ATOM     12  C   LIG    1       -0.219  -0.348   1.086  0.00  0.00    +0.058 C 
ATOM     13  C   LIG    1       -4.365  -0.340   1.761  0.00  0.00    +0.034 C 
ATOM     14  C   LIG    1       -5.223  -0.366   0.542  0.00  0.00    +0.086 C 
ATOM     15  N   LIG    1       -4.723   0.321  -0.575  0.00  0.00    -0.296 NA
ATOM     16  C   LIG    1       -2.639  -1.779   0.829  0.00  0.00    +0.014 A 
ATOM     17  C   LIG    1       -1.024   0.355   0.084  0.00  0.00    +0.081 C 
ATOM     18  C   LIG    1       -3.314   0.369  -0.743  0.00  0.00    +0.094 C 
ENDROOT
BRANCH  12  19
ATOM     19  C   LIG    1        1.207  -0.564   0.716  0.00  0.00    +0.244 C 
ATOM     20  O   LIG    1        1.995  -1.120   1.516  0.00  0.00    -0.270 OA
ATOM     21  N   LIG    1        1.693  -0.148  -0.545  0.00  0.00    -0.298 N 
ATOM     22  H   LIG    1        1.002   0.338  -1.204  0.00  0.00    +0.150 HD
BRANCH  21  23
ATOM     23  C   LIG    1        3.018  -0.336  -0.970  0.00  0.00    +0.108 C 
ATOM     24  C   LIG    1        3.404  -1.803  -1.044  0.00  0.00    +0.041 C 
ATOM     25  C   LIG    1        3.163   0.208  -2.407  0.00  0.00    +0.041 C 
BRANCH  23  26
ATOM     26  C   LIG    1        4.061   0.360  -0.131  0.00  0.00    +0.251 A 
ATOM     27  O   LIG    1        3.966   1.068   0.936  0.00  0.00    -0.335 OA
ATOM     28  N   LIG    1        5.157   1.478   1.316  0.00  0.00    -0.056 NA
ATOM     29  C   LIG    1        6.075   1.032   0.480  0.00  0.00    +0.202 A 
ATOM     30  N   LIG    1        5.399   0.313  -0.453  0.00  0.00    -0.190 NA
BRANCH  29  31
ATOM     31  C   LIG    1        7.514   1.267   0.542  0.00  0.00    +0.022 A 
ATOM     32  C   LIG    1        8.056   2.164   1.417  0.00  0.00    +0.012 A 
ATOM     33  C   LIG    1        9.438   2.414   1.415  0.00  0.00    +0.001 A 
ATOM     34  C   LIG    1       10.290   1.774   0.544  0.00  0.00    +0.000 A 
ATOM     35  C   LIG    1        9.732   0.865  -0.338  0.00  0.00    +0.001 A 
ATOM     36  C   LIG    1        8.377   0.621  -0.337  0.00  0.00    +0.012 A 
ENDBRANCH  29  31
ENDBRANCH  23  26
ENDBRANCH  21  23
ENDBRANCH  12  19
BRANCH   1  37
ATOM     37  O   LIG    1       -2.577   1.851   0.958  0.00  0.00    -0.386 OA
ATOM     38  H   LIG    1       -2.196   1.945   1.873  0.00  0.00    +0.210 HD
ENDBRANCH   1  37
BRANCH   6  39
ATOM     39  O   LIG    1       -1.762  -4.925   2.392  0.00  0.00    -0.503 OA
ATOM     40  H   LIG    1       -1.759  -4.699   3.368  0.00  0.00    +0.292 HD
ENDBRANCH   6  39
BRANCH  11  41
ATOM     41  O   LIG    1        0.205  -1.416   3.158  0.00  0.00    -0.507 OA
ATOM     42  H   LIG    1        0.149  -2.429   3.204  0.00  0.00    +0.292 HD
ENDBRANCH  11  41
BRANCH  15  43
ATOM     43  C   LIG    1       -5.524   1.277  -1.217  0.00  0.00    +0.088 C 
BRANCH  43  44
ATOM     44  C   LIG    1       -5.560   2.661  -0.659  0.00  0.00    +0.003 C 
ATOM     45  C   LIG    1       -6.950   3.069  -0.151  0.00  0.00    +0.005 C 
ATOM     46  C   LIG    1       -6.337   3.741  -1.317  0.00  0.00    +0.005 C 
ENDBRANCH  43  44
ENDBRANCH  15  43
TORSDOF 9
