REMARK  Name = molecules/AYDXAULLCROVIT-OAHLLOKOSA-N.pdb
REMARK                            x       y       z     vdW  Elec       q    Type
REMARK                         _______ _______ _______ _____ _____    ______ ____
ROOT
ATOM      1  C   LIG    1        0.274  -0.025  -0.302  0.00  0.00    +0.037 A 
ATOM      2  C   LIG    1       -0.496   0.812   0.442  0.00  0.00    +0.024 A 
ATOM      3  C   LIG    1       -1.872   0.735   0.387  0.00  0.00    +0.006 A 
ATOM      4  C   LIG    1       -2.521  -0.190  -0.421  0.00  0.00    -0.034 A 
ATOM      5  C   LIG    1       -1.713  -1.031  -1.169  0.00  0.00    +0.006 A 
ATOM      6  C   LIG    1       -0.339  -0.954  -1.113  0.00  0.00    +0.024 A 
ENDROOT
BRANCH   1  16
ATOM      7  O   LIG    1        2.092   0.087   2.038  0.00  0.00    -0.270 OA
ATOM      8  C   LIG    1        2.549   0.048   0.869  0.00  0.00    +0.251 C 
ATOM      9  C   LIG    1        3.936   0.037   0.445  0.00  0.00    +0.042 A 
ATOM     10  C   LIG    1        5.134   0.050   1.143  0.00  0.00    +0.013 A 
ATOM     11  C   LIG    1        6.314   0.015   0.438  0.00  0.00    +0.001 A 
ATOM     12  C   LIG    1        6.349  -0.032  -0.949  0.00  0.00    +0.000 A 
ATOM     13  C   LIG    1        5.167  -0.044  -1.629  0.00  0.00    +0.006 A 
ATOM     14  C   LIG    1        3.941  -0.008  -0.923  0.00  0.00    -0.018 A 
ATOM     15  C   LIG    1        2.566  -0.004  -1.425  0.00  0.00    +0.149 C 
ATOM     16  N   LIG    1        1.715   0.006  -0.275  0.00  0.00    -0.263 N 
ENDBRANCH   1  16
BRANCH   4  17
ATOM     17  C   LIG    1       -3.992  -0.262  -0.467  0.00  0.00    +0.127 C 
BRANCH  17  18
ATOM     18  C   LIG    1       -4.547  -1.004   0.736  0.00  0.00    +0.016 C 
ATOM     19  C   LIG    1       -4.197  -0.385   2.045  0.00  0.00    +0.005 C 
ENDBRANCH  17  18
BRANCH  17  20
ATOM     20  C   LIG    1       -4.670   1.028  -0.654  0.00  0.00    +0.312 C 
ATOM     21  O   LIG    1       -5.398   1.187  -1.679  0.00  0.00    -0.250 OA
BRANCH  20  22
ATOM     22  O   LIG    1       -4.521   2.068   0.279  0.00  0.00    -0.480 OA
ATOM     23  H   LIG    1       -4.514   3.006  -0.136  0.00  0.00    +0.295 HD
ENDBRANCH  20  22
ENDBRANCH  17  20
ENDBRANCH   4  17
TORSDOF 5
