REMARK  Name = molecules/AYFVYJQAPQTCCC-GBXIJSLDSA-N.pdb
REMARK                            x       y       z     vdW  Elec       q    Type
REMARK                         _______ _______ _______ _____ _____    ______ ____
ROOT
ATOM      1  CA  THR A  1       -0.674   0.380  -0.357  0.00  0.00    +0.189 C 
ENDROOT
BRANCH   1   2
ATOM      2  N   THR A  1       -0.548   1.778  -0.045  0.00  0.00    -0.316 NA
ATOM      3  H1  THR A  1       -1.241   2.079   0.700  0.00  0.00    +0.119 HD
ATOM      4  H2  THR A  1       -0.684   2.361  -0.906  0.00  0.00    +0.119 HD
ENDBRANCH   1   2
BRANCH   1   5
ATOM      5  C   THR A  1       -1.293  -0.380   0.743  0.00  0.00    +0.324 C 
ATOM      6  OXT THR A  1       -1.663   0.151   1.824  0.00  0.00    -0.249 OA
BRANCH   5   7
ATOM      7  O   THR A  1       -1.485  -1.746   0.597  0.00  0.00    -0.479 OA
ATOM      8  H   THR A  1       -2.071  -2.131  -0.133  0.00  0.00    +0.295 HD
ENDBRANCH   5   7
ENDBRANCH   1   5
BRANCH   1   9
ATOM      9  CB  THR A  1        0.714  -0.152  -0.694  0.00  0.00    +0.139 C 
ATOM     10  CG2 THR A  1        1.705   0.088   0.397  0.00  0.00    +0.040 C 
BRANCH   9  11
ATOM     11  OG1 THR A  1        0.691  -1.498  -1.010  0.00  0.00    -0.390 OA
ATOM     12  HG1 THR A  1        0.784  -2.053  -0.189  0.00  0.00    +0.210 HD
ENDBRANCH   9  11
ENDBRANCH   1   9
TORSDOF 5
