REMARK  Name = molecules/AYJVGKWCGIYEAK-UHFFFAOYSA-N.pdb
REMARK                            x       y       z     vdW  Elec       q    Type
REMARK                         _______ _______ _______ _____ _____    ______ ____
ROOT
ATOM      1  C   LIG    1       -0.901  -0.421  -0.133  0.00  0.00    +0.351 C 
ATOM      2  O   LIG    1       -0.308   0.240   0.741  0.00  0.00    -0.246 OA
ENDROOT
BRANCH   1   3
ATOM      3  C   LIG    1       -2.340  -0.182  -0.375  0.00  0.00    +0.200 C 
ATOM      4  C   LIG    1       -3.049  -1.513  -0.147  0.00  0.00    +0.067 C 
ATOM      5  C   LIG    1       -2.546   0.164  -1.835  0.00  0.00    +0.067 C 
BRANCH   3   6
ATOM      6  O   LIG    1       -2.797   0.813   0.486  0.00  0.00    -0.475 OA
BRANCH   6   7
ATOM      7  C   LIG    1       -4.071   1.296   0.550  0.00  0.00    +0.122 A 
ATOM      8  C   LIG    1       -4.986   0.716   1.390  0.00  0.00    +0.047 A 
ATOM      9  C   LIG    1       -6.281   1.242   1.426  0.00  0.00    +0.023 A 
ATOM     10  C   LIG    1       -6.658   2.308   0.654  0.00  0.00    +0.041 A 
ATOM     11 CL   LIG    1       -8.316   2.905   0.765  0.00  0.00    -0.084 Cl
ATOM     12  C   LIG    1       -5.741   2.886  -0.184  0.00  0.00    +0.023 A 
ATOM     13  C   LIG    1       -4.454   2.364  -0.220  0.00  0.00    +0.047 A 
ENDBRANCH   6   7
ENDBRANCH   3   6
ENDBRANCH   1   3
BRANCH   1  14
ATOM     14  O   LIG    1       -0.224  -1.362  -0.865  0.00  0.00    -0.462 OA
BRANCH  14  15
ATOM     15  C   LIG    1        1.182  -1.663  -0.691  0.00  0.00    +0.235 C 
BRANCH  15  16
ATOM     16  C   LIG    1        1.425  -2.177   0.669  0.00  0.00    +0.082 C 
BRANCH  16  17
ATOM     17  C   LIG    1        2.814  -2.593   1.003  0.00  0.00    +0.236 C 
BRANCH  17  18
ATOM     18  O   LIG    1        3.761  -1.609   0.876  0.00  0.00    -0.461 OA
BRANCH  18  19
ATOM     19  C   LIG    1        4.288  -1.095  -0.255  0.00  0.00    +0.341 C 
ATOM     20  O   LIG    1        3.964  -1.504  -1.384  0.00  0.00    -0.245 OA
BRANCH  19  21
ATOM     21  C   LIG    1        5.285  -0.007  -0.172  0.00  0.00    +0.077 A 
ATOM     22  C   LIG    1        5.697   0.503   1.041  0.00  0.00    +0.125 A 
ATOM     23  N   LIG    1        6.607   1.492   1.058  0.00  0.00    -0.262 NA
ATOM     24  C   LIG    1        7.150   2.025  -0.054  0.00  0.00    +0.111 A 
ATOM     25  C   LIG    1        6.763   1.542  -1.282  0.00  0.00    +0.020 A 
ATOM     26  C   LIG    1        5.831   0.528  -1.317  0.00  0.00    +0.018 A 
ENDBRANCH  19  21
ENDBRANCH  18  19
ENDBRANCH  17  18
ENDBRANCH  16  17
ENDBRANCH  15  16
ENDBRANCH  14  15
ENDBRANCH   1  14
TORSDOF 10
