REMARK  Name = molecules/AYLPVIWBPZMVSH-FCKMLYJASA-N.pdb
REMARK                            x       y       z     vdW  Elec       q    Type
REMARK                         _______ _______ _______ _____ _____    ______ ____
ROOT
ATOM      1  C   UNK A  3       -1.204  -1.441  -1.222  0.00  0.00    +0.156 C 
ATOM      2  C   UNK A  3       -1.534  -0.119  -1.911  0.00  0.00    +0.038 C 
ENDROOT
BRANCH   1   3
ATOM      3  C   UNK A  3        0.218  -1.534  -0.860  0.00  0.00    +0.234 C 
ATOM      4  O   UNK A  3        0.493  -2.086   0.272  0.00  0.00    -0.274 OA
ATOM      5  N   UNK A  3        1.263  -1.042  -1.673  0.00  0.00    -0.302 N 
ATOM      6  H   UNK A  3        0.975  -0.612  -2.573  0.00  0.00    +0.150 HD
BRANCH   5   7
ATOM      7  C   UNK A  3        2.667  -1.089  -1.339  0.00  0.00    +0.163 C 
BRANCH   7   8
ATOM      8  C   UNK A  3        3.020  -0.011  -0.347  0.00  0.00    +0.234 C 
ATOM      9  O   UNK A  3        2.155   0.701   0.187  0.00  0.00    -0.274 OA
ATOM     10  N   UNK A  3        4.366   0.191  -0.031  0.00  0.00    -0.302 N 
ATOM     11  H   UNK A  3        5.081  -0.425  -0.512  0.00  0.00    +0.150 HD
BRANCH  10  12
ATOM     12  C   UNK A  3        4.905   1.121   0.905  0.00  0.00    +0.162 C 
BRANCH  12  13
ATOM     13  C   UNK A  3        5.570   2.228   0.195  0.00  0.00    +0.234 C 
ATOM     14  N   UNK A  3        6.949   2.538   0.418  0.00  0.00    -0.305 N 
ATOM     15  H   UNK A  3        7.439   1.873   1.065  0.00  0.00    +0.149 HD
ATOM     16  O   UNK A  3        4.968   2.952  -0.636  0.00  0.00    -0.274 OA
BRANCH  14  17
ATOM     17  C   UNK A  3        7.718   3.615  -0.095  0.00  0.00    +0.200 C 
BRANCH  17  18
ATOM     18  C   UNK A  3        9.183   3.333   0.178  0.00  0.00    +0.231 C 
ATOM     19  N   UNK A  3        9.594   2.056   0.504  0.00  0.00    -0.303 N 
ATOM     20  H   UNK A  3        8.848   1.256   0.486  0.00  0.00    +0.149 HD
ATOM     21  O   UNK A  3        9.962   4.298   0.076  0.00  0.00    -0.274 OA
BRANCH  19  22
ATOM     22  C   UNK A  3       10.883   1.523   0.840  0.00  0.00    +0.159 C 
BRANCH  22  23
ATOM     23  C   UNK A  3       11.871   2.084  -0.176  0.00  0.00    +0.234 C 
ATOM     24  N   UNK A  3       13.229   2.048   0.012  0.00  0.00    -0.302 N 
ATOM     25  H   UNK A  3       13.598   1.641   0.953  0.00  0.00    +0.150 HD
ATOM     26  O   UNK A  3       11.365   2.609  -1.222  0.00  0.00    -0.274 OA
BRANCH  24  27
ATOM     27  C   UNK A  3       14.262   2.512  -0.872  0.00  0.00    +0.159 C 
BRANCH  27  28
ATOM     28  C   UNK A  3       14.125   1.738  -2.177  0.00  0.00    +0.231 C 
ATOM     29  O   UNK A  3       13.280   0.861  -2.294  0.00  0.00    -0.274 OA
ATOM     30  N   UNK A  3       15.007   2.066  -3.241  0.00  0.00    -0.328 N 
ATOM     31  H   UNK A  3       16.033   2.022  -3.135  0.00  0.00    +0.145 HD
ATOM     32  H   UNK A  3       14.627   2.372  -4.183  0.00  0.00    +0.145 HD
ENDBRANCH  27  28
BRANCH  27  33
ATOM     33  C   UNK A  3       15.659   2.298  -0.328  0.00  0.00    +0.042 C 
BRANCH  33  34
ATOM     34  C   UNK A  3       15.839   0.792  -0.143  0.00  0.00    +0.071 C 
BRANCH  34  35
ATOM     35  S   UNK A  3       17.499   0.423   0.466  0.00  0.00    -0.164 S 
ATOM     36  C   UNK A  3       17.717  -1.385   0.614  0.00  0.00    +0.084 C 
ENDBRANCH  34  35
ENDBRANCH  33  34
ENDBRANCH  27  33
ENDBRANCH  24  27
ENDBRANCH  22  23
BRANCH  22  37
ATOM     37  C   UNK A  3       10.854   0.021   0.591  0.00  0.00    +0.034 C 
BRANCH  37  38
ATOM     38  C   UNK A  3       12.100  -0.672   0.889  0.00  0.00    -0.015 C 
ATOM     39  C   UNK A  3       12.533  -0.578   2.349  0.00  0.00    +0.007 C 
ATOM     40  C   UNK A  3       11.944  -2.205   0.666  0.00  0.00    +0.007 C 
ENDBRANCH  37  38
ENDBRANCH  22  37
ENDBRANCH  19  22
ENDBRANCH  17  18
ENDBRANCH  14  17
ENDBRANCH  12  13
BRANCH  12  41
ATOM     41  C   UNK A  3        5.672   0.596   2.033  0.00  0.00    +0.015 C 
ATOM     42  C   UNK A  3        6.041   1.773   2.973  0.00  0.00    +0.010 C 
BRANCH  41  43
ATOM     43  C   UNK A  3        4.955  -0.351   2.938  0.00  0.00    +0.002 C 
ATOM     44  C   UNK A  3        3.734   0.219   3.611  0.00  0.00    +0.004 C 
ENDBRANCH  41  43
ENDBRANCH  12  41
ENDBRANCH  10  12
ENDBRANCH   7   8
BRANCH   7  45
ATOM     45  C   UNK A  3        3.520  -1.134  -2.546  0.00  0.00    +0.067 C 
BRANCH  45  46
ATOM     46  C   UNK A  3        3.390  -2.274  -3.415  0.00  0.00    -0.045 A 
ATOM     47  C   UNK A  3        4.286  -3.344  -3.191  0.00  0.00    +0.004 A 
ATOM     48  C   UNK A  3        4.237  -4.486  -4.000  0.00  0.00    +0.000 A 
ATOM     49  C   UNK A  3        3.344  -4.591  -5.002  0.00  0.00    +0.000 A 
ATOM     50  C   UNK A  3        2.439  -3.568  -5.261  0.00  0.00    +0.000 A 
ATOM     51  C   UNK A  3        2.494  -2.439  -4.457  0.00  0.00    +0.004 A 
ENDBRANCH  45  46
ENDBRANCH   7  45
ENDBRANCH   5   7
ENDBRANCH   1   3
BRANCH   1  53
ATOM     52  C   UNK A  3       -3.262  -1.176   0.134  0.00  0.00    +0.234 C 
ATOM     53  N   UNK A  3       -2.006  -1.755  -0.081  0.00  0.00    -0.303 N 
ATOM     54  H   UNK A  3       -1.614  -2.436   0.587  0.00  0.00    +0.149 HD
ATOM     55  O   UNK A  3       -3.721  -0.296  -0.677  0.00  0.00    -0.274 OA
BRANCH  52  56
ATOM     56  C   UNK A  3       -4.116  -1.559   1.296  0.00  0.00    +0.169 C 
BRANCH  56  59
ATOM     57  C   UNK A  3       -6.239  -0.539   2.165  0.00  0.00    +0.234 C 
ATOM     58  O   UNK A  3       -6.282  -0.933   3.342  0.00  0.00    -0.274 OA
ATOM     59  N   UNK A  3       -5.317  -0.795   1.175  0.00  0.00    -0.302 N 
ATOM     60  H   UNK A  3       -5.525  -0.374   0.196  0.00  0.00    +0.150 HD
BRANCH  57  61
ATOM     61  C   UNK A  3       -7.404   0.393   1.740  0.00  0.00    +0.159 C 
BRANCH  61  63
ATOM     62  C   UNK A  3       -9.264  -1.123   1.155  0.00  0.00    +0.236 C 
ATOM     63  N   UNK A  3       -8.607  -0.271   2.113  0.00  0.00    -0.302 N 
ATOM     64  H   UNK A  3       -9.053  -0.180   3.049  0.00  0.00    +0.150 HD
ATOM     65  O   UNK A  3       -8.706  -1.216   0.034  0.00  0.00    -0.274 OA
BRANCH  62  66
ATOM     66  C   UNK A  3      -10.526  -1.845   1.473  0.00  0.00    +0.184 C 
BRANCH  66  68
ATOM     67  C   PRO A  2      -12.398  -2.112  -0.548  0.00  0.00    +0.234 C 
ATOM     68  N   UNK A  3      -11.380  -1.919   0.421  0.00  0.00    -0.301 N 
ATOM     69  H   UNK A  3      -12.216  -2.664   1.276  0.00  0.00    +0.150 HD
ATOM     70  O   PRO A  2      -13.427  -2.787  -0.381  0.00  0.00    -0.274 OA
BRANCH  67  74
ATOM     71  C   GLN A  1      -14.389   0.035  -1.278  0.00  0.00    +0.237 C 
ATOM     72  O   GLN A  1      -15.045  -0.885  -0.748  0.00  0.00    -0.274 OA
ATOM     73  N   PRO A  2      -13.136  -0.261  -1.891  0.00  0.00    -0.288 N 
ATOM     74  CA  PRO A  2      -12.335  -1.473  -1.926  0.00  0.00    +0.162 C 
ATOM     75  CB  PRO A  2      -10.963  -0.965  -2.238  0.00  0.00    +0.033 C 
ATOM     76  CG  PRO A  2      -11.356   0.015  -3.385  0.00  0.00    +0.021 C 
ATOM     77  CD  PRO A  2      -12.398   0.803  -2.589  0.00  0.00    +0.109 C 
BRANCH  71  78
ATOM     78  CA  GLN A  1      -14.968   1.393  -1.216  0.00  0.00    +0.159 C 
ATOM     79  CB  GLN A  1      -14.174   2.323  -0.295  0.00  0.00    +0.041 C 
ATOM     80  CG  GLN A  1      -15.203   3.337   0.181  0.00  0.00    +0.098 C 
ATOM     81  CD  GLN A  1      -16.497   2.627  -0.007  0.00  0.00    +0.214 C 
ATOM     82  OE1 GLN A  1      -17.639   3.092   0.202  0.00  0.00    -0.276 OA
ATOM     83  N   GLN A  1      -16.253   1.306  -0.470  0.00  0.00    -0.304 N 
ATOM     84  H   GLN A  1      -16.791   0.457  -0.351  0.00  0.00    +0.149 HD
ENDBRANCH  71  78
ENDBRANCH  67  74
ENDBRANCH  66  68
BRANCH  66  85
ATOM     85  C   UNK A  3      -10.078  -3.328   1.860  0.00  0.00    +0.187 C 
BRANCH  85  86
ATOM     86  O   UNK A  3       -9.455  -3.896   0.776  0.00  0.00    -0.393 OA
ATOM     87  H   UNK A  3      -10.109  -4.353   0.166  0.00  0.00    +0.209 HD
ENDBRANCH  85  86
ENDBRANCH  66  85
ENDBRANCH  62  66
ENDBRANCH  61  63
BRANCH  61  88
ATOM     88  C   UNK A  3       -7.065   1.682   2.336  0.00  0.00    +0.032 C 
BRANCH  88  89
ATOM     89  C   UNK A  3       -7.761   2.941   2.192  0.00  0.00    +0.003 C 
BRANCH  89  90
ATOM     90  C   UNK A  3       -9.177   3.103   2.484  0.00  0.00    +0.015 C 
BRANCH  90  91
ATOM     91  C   UNK A  3      -10.208   2.484   1.615  0.00  0.00    +0.077 C 
BRANCH  91  92
ATOM     92  N   UNK A  3      -10.095   2.944   0.225  0.00  0.00    -0.330 NA
ATOM     93  H   UNK A  3       -9.557   3.872   0.211  0.00  0.00    +0.118 HD
ATOM     94  H   UNK A  3       -9.582   2.222  -0.367  0.00  0.00    +0.118 HD
ENDBRANCH  91  92
ENDBRANCH  90  91
ENDBRANCH  89  90
ENDBRANCH  88  89
ENDBRANCH  61  88
ENDBRANCH  57  61
ENDBRANCH  56  59
BRANCH  56  95
ATOM     95  C   UNK A  3       -4.319  -3.039   1.355  0.00  0.00    +0.152 C 
BRANCH  95  96
ATOM     96  C   UNK A  3       -4.932  -3.710   0.219  0.00  0.00    +0.307 C 
ATOM     97  O   UNK A  3       -4.152  -4.104  -0.742  0.00  0.00    -0.251 OA
BRANCH  96  98
ATOM     98  O   UNK A  3       -6.283  -3.985   0.044  0.00  0.00    -0.481 OA
ATOM     99  H   UNK A  3       -6.609  -4.735  -0.533  0.00  0.00    +0.295 HD
ENDBRANCH  96  98
ENDBRANCH  95  96
ENDBRANCH  56  95
ENDBRANCH  52  56
ENDBRANCH   1  53
TORSDOF 39
