REMARK  Name = molecules/AYXYPKUFHZROOJ-ZETCQYMHSA-N.pdb
REMARK                            x       y       z     vdW  Elec       q    Type
REMARK                         _______ _______ _______ _____ _____    ______ ____
ROOT
ATOM      1  C   LIG    1        0.736  -0.683  -0.728  0.00  0.00    +0.013 C 
ENDROOT
BRANCH   1   2
ATOM      2  C   LIG    1       -0.617  -0.184  -1.011  0.00  0.00    +0.008 C 
BRANCH   2   4
ATOM      3  C   LIG    1       -1.688  -0.072   1.281  0.00  0.00    +0.007 C 
ATOM      4  C   LIG    1       -1.370   0.582  -0.009  0.00  0.00    -0.017 C 
ATOM      5  C   LIG    1       -2.717   0.942  -0.677  0.00  0.00    +0.007 C 
ENDBRANCH   2   4
ENDBRANCH   1   2
BRANCH   1   6
ATOM      6  C   LIG    1        0.894  -1.621   0.433  0.00  0.00    +0.081 C 
BRANCH   6   7
ATOM      7  N   LIG    1        2.312  -2.024   0.558  0.00  0.00    -0.330 NA
ATOM      8  H   LIG    1        2.580  -2.249   1.519  0.00  0.00    +0.118 HD
ATOM      9  H   LIG    1        2.450  -2.854  -0.044  0.00  0.00    +0.118 HD
ENDBRANCH   6   7
ENDBRANCH   1   6
BRANCH   1  10
ATOM     10  C   LIG    1        1.811   0.392  -0.734  0.00  0.00    +0.125 C 
BRANCH  10  11
ATOM     11  C   LIG    1        1.587   1.444   0.277  0.00  0.00    +0.305 C 
ATOM     12  O   LIG    1        1.423   1.170   1.489  0.00  0.00    -0.251 OA
BRANCH  11  13
ATOM     13  O   LIG    1        1.553   2.765  -0.110  0.00  0.00    -0.481 OA
ATOM     14  H   LIG    1        1.795   3.477   0.553  0.00  0.00    +0.295 HD
ENDBRANCH  11  13
ENDBRANCH  10  11
ENDBRANCH   1  10
TORSDOF 7
