REMARK  Name = molecules/AZFLJNIPTRTECV-FUMNGEBKSA-N.pdb
REMARK                            x       y       z     vdW  Elec       q    Type
REMARK                         _______ _______ _______ _____ _____    ______ ____
ROOT
ATOM      1  C   LIG    1       -1.505  -1.493  -0.221  0.00  0.00    +0.014 C 
ATOM      2  C   LIG    1       -1.696  -0.010  -0.025  0.00  0.00    +0.001 C 
ATOM      3  C   LIG    1       -0.865   0.496   1.165  0.00  0.00    +0.005 C 
ATOM      4  C   LIG    1       -1.751   0.172   2.311  0.00  0.00    +0.007 C 
ATOM      5  C   LIG    1       -3.080   0.755   1.815  0.00  0.00    +0.036 C 
ATOM      6  C   LIG    1        0.417  -0.249   1.105  0.00  0.00    +0.019 C 
ATOM      7  C   LIG    1        1.336   0.257   2.197  0.00  0.00    +0.013 C 
ATOM      8  C   LIG    1        2.568  -0.579   2.187  0.00  0.00    +0.036 C 
ATOM      9  C   LIG    1        3.099  -0.648   0.798  0.00  0.00    -0.041 C 
ATOM     10  C   LIG    1        4.349  -1.136   0.672  0.00  0.00    +0.050 C 
ATOM     11  C   LIG    1        4.878  -1.208  -0.676  0.00  0.00    +0.157 C 
ATOM     12  O   LIG    1        5.677  -2.090  -1.009  0.00  0.00    -0.293 OA
ATOM     13  C   LIG    1        4.427  -0.184  -1.643  0.00  0.00    +0.083 C 
ATOM     14  C   LIG    1        2.952   0.005  -1.701  0.00  0.00    +0.043 C 
ATOM     15  C   LIG    1        2.329  -0.219  -0.360  0.00  0.00    -0.044 C 
ATOM     16  C   LIG    1        1.000  -0.013  -0.241  0.00  0.00    -0.063 C 
ATOM     17  C   LIG    1        0.260   0.415  -1.428  0.00  0.00    +0.032 C 
ATOM     18  C   LIG    1       -3.086   0.293   0.372  0.00  0.00    +0.084 C 
ATOM     19  C   LIG    1       -1.181   0.722  -1.214  0.00  0.00    +0.014 C 
ENDROOT
BRANCH  18  20
ATOM     20  O   LIG    1       -3.849  -0.896   0.354  0.00  0.00    -0.387 OA
ATOM     21  H   LIG    1       -4.796  -0.698   0.550  0.00  0.00    +0.210 HD
ENDBRANCH  18  20
BRANCH  18  22
ATOM     22  C   LIG    1       -3.799   1.266  -0.529  0.00  0.00    +0.153 C 
BRANCH  22  23
ATOM     23  C   LIG    1       -5.161   1.444   0.022  0.00  0.00    +0.065 C 
ATOM     24  N   LIG    1       -6.227   1.569   0.456  0.00  0.00    -0.196 NA
ENDBRANCH  22  23
ENDBRANCH  18  22
TORSDOF 3
