REMARK  Name = molecules/BAPRUDZDYCKSOQ-RITPCOANSA-N.pdb
REMARK                            x       y       z     vdW  Elec       q    Type
REMARK                         _______ _______ _______ _____ _____    ______ ____
ROOT
ATOM      1  C   LIG    1       -0.685   0.798   0.160  0.00  0.00    +0.187 C 
ATOM      2  C   LIG    1       -1.772  -0.234   0.106  0.00  0.00    +0.066 C 
ATOM      3  C   LIG    1       -1.213  -1.252  -0.865  0.00  0.00    +0.134 C 
ATOM      4  C   LIG    1        0.222  -1.356  -0.351  0.00  0.00    +0.140 C 
ATOM      5  N   LIG    1        0.521   0.028  -0.020  0.00  0.00    -0.286 N 
ATOM      6  C   LIG    1        1.854   0.555   0.107  0.00  0.00    +0.213 C 
ATOM      7  O   LIG    1        2.051   1.754   0.391  0.00  0.00    -0.276 OA
ATOM      8  C   LIG    1        3.042  -0.313  -0.096  0.00  0.00    +0.109 C 
ENDROOT
BRANCH   1   9
ATOM      9  C   LIG    1       -0.713   1.495   1.479  0.00  0.00    +0.326 C 
ATOM     10  O   LIG    1        0.247   1.358   2.267  0.00  0.00    -0.249 OA
BRANCH   9  11
ATOM     11  O   LIG    1       -1.789   2.275   1.807  0.00  0.00    -0.479 OA
ATOM     12  H   LIG    1       -2.459   2.548   1.125  0.00  0.00    +0.295 HD
ENDBRANCH   9  11
ENDBRANCH   1   9
BRANCH   3  13
ATOM     13  O   LIG    1       -1.254  -0.749  -2.156  0.00  0.00    -0.390 OA
ATOM     14  H   LIG    1       -2.139  -0.362  -2.340  0.00  0.00    +0.210 HD
ENDBRANCH   3  13
TORSDOF 3
