REMARK  Name = molecules/BAQCROVBDNBEEB-KSDLJXBFSA-N.pdb
REMARK                            x       y       z     vdW  Elec       q    Type
REMARK                         _______ _______ _______ _____ _____    ______ ____
ROOT
ATOM      1  C   LIG    1        0.318  -0.089   0.918  0.00  0.00    +0.247 C 
ATOM      2  O   LIG    1        0.710  -0.732   1.982  0.00  0.00    -0.270 OA
ATOM      3  N   LIG    1        1.295   0.381   0.024  0.00  0.00    -0.301 N 
ATOM      4  H   LIG    1        1.074   0.859  -0.837  0.00  0.00    +0.150 HD
ENDROOT
BRANCH   1   5
ATOM      5  C   LIG    1       -1.119   0.032   0.828  0.00  0.00    +0.066 A 
ATOM      6  C   LIG    1       -1.930  -0.964   1.404  0.00  0.00    +0.049 A 
ATOM      7  I   LIG    1       -0.911  -2.505   2.448  0.00  0.00    -0.041 I 
ATOM      8  C   LIG    1       -3.299  -0.965   1.309  0.00  0.00    +0.062 A 
ATOM      9  C   LIG    1       -3.962   0.025   0.632  0.00  0.00    +0.058 A 
ATOM     10  I   LIG    1       -6.076   0.024   0.483  0.00  0.00    -0.040 I 
ATOM     11  C   LIG    1       -3.205   1.013   0.059  0.00  0.00    +0.065 A 
ATOM     12  C   LIG    1       -1.807   1.008   0.161  0.00  0.00    +0.049 A 
ATOM     13  I   LIG    1       -0.787   2.632  -0.701  0.00  0.00    -0.041 I 
BRANCH   8  14
ATOM     14  N   LIG    1       -4.041  -2.020   1.929  0.00  0.00    -0.284 N 
ATOM     15  H   LIG    1       -4.362  -1.899   2.913  0.00  0.00    +0.155 HD
ATOM     16  C   LIG    1       -4.344  -3.206   1.245  0.00  0.00    +0.214 C 
ATOM     17  C   LIG    1       -5.111  -4.272   1.913  0.00  0.00    +0.109 C 
ATOM     18  O   LIG    1       -3.966  -3.360   0.067  0.00  0.00    -0.276 OA
ENDBRANCH   8  14
BRANCH  11  19
ATOM     19  N   LIG    1       -3.872   2.055  -0.649  0.00  0.00    -0.273 N 
ATOM     20  C   LIG    1       -4.486   3.131   0.080  0.00  0.00    +0.138 C 
ATOM     21  C   LIG    1       -3.916   2.006  -2.062  0.00  0.00    +0.216 C 
ATOM     22  O   LIG    1       -4.505   2.940  -2.676  0.00  0.00    -0.276 OA
ATOM     23  C   LIG    1       -3.292   0.885  -2.835  0.00  0.00    +0.109 C 
ENDBRANCH  11  19
ENDBRANCH   1   5
BRANCH   3  24
ATOM     24  C   LIG    1        2.699   0.152   0.314  0.00  0.00    +0.160 C 
ATOM     25  C   LIG    1        3.492   1.444   0.438  0.00  0.00    +0.171 C 
ATOM     26  C   LIG    1        4.949   1.035   0.417  0.00  0.00    +0.176 C 
ATOM     27  C   LIG    1        5.255   0.493  -0.947  0.00  0.00    +0.178 C 
ATOM     28  O   LIG    1        4.177  -0.075  -1.575  0.00  0.00    -0.341 OA
ATOM     29  C   LIG    1        3.326  -0.767  -0.722  0.00  0.00    +0.270 C 
BRANCH  25  30
ATOM     30  O   LIG    1        3.269   2.044   1.680  0.00  0.00    -0.387 OA
ATOM     31  H   LIG    1        3.705   1.458   2.369  0.00  0.00    +0.210 HD
ENDBRANCH  25  30
BRANCH  26  32
ATOM     32  O   LIG    1        5.793   2.100   0.721  0.00  0.00    -0.387 OA
ATOM     33  H   LIG    1        6.066   2.612  -0.086  0.00  0.00    +0.210 HD
ENDBRANCH  26  32
BRANCH  29  34
ATOM     34  O   LIG    1        2.293  -1.291  -1.487  0.00  0.00    -0.365 OA
ATOM     35  H   LIG    1        2.488  -2.243  -1.656  0.00  0.00    +0.213 HD
ENDBRANCH  29  34
BRANCH  27  36
ATOM     36  C   LIG    1        6.428  -0.470  -0.923  0.00  0.00    +0.190 C 
BRANCH  36  37
ATOM     37  O   LIG    1        6.752  -0.769  -2.242  0.00  0.00    -0.392 OA
ATOM     38  H   LIG    1        6.365  -1.659  -2.445  0.00  0.00    +0.210 HD
ENDBRANCH  36  37
ENDBRANCH  27  36
ENDBRANCH   3  24
TORSDOF 9
