REMARK  Name = molecules/BAQLUVXNKOTTHU-UHFFFAOYSA-N.pdb
REMARK                            x       y       z     vdW  Elec       q    Type
REMARK                         _______ _______ _______ _____ _____    ______ ____
ROOT
ATOM      1  N   LIG    1        0.582  -1.370  -0.339  0.00  0.00    -0.297 NA
ATOM      2  C   LIG    1        0.130  -2.202   0.714  0.00  0.00    +0.100 C 
ATOM      3  C   LIG    1       -1.250  -2.724   0.420  0.00  0.00    +0.100 C 
ATOM      4  N   LIG    1       -2.135  -1.605   0.296  0.00  0.00    -0.300 NA
ATOM      5  C   LIG    1       -1.755  -0.674  -0.701  0.00  0.00    +0.100 C 
ATOM      6  C   LIG    1       -0.311  -0.405  -0.848  0.00  0.00    +0.100 C 
ENDROOT
BRANCH   1   7
ATOM      7  C   LIG    1        1.921  -0.884  -0.100  0.00  0.00    +0.125 C 
BRANCH   7   8
ATOM      8  C   LIG    1        2.426   0.001  -1.183  0.00  0.00    +0.248 C 
BRANCH   8   9
ATOM      9  O   LIG    1        3.730   0.439  -0.899  0.00  0.00    -0.460 OA
BRANCH   9  10
ATOM     10  C   LIG    1        4.778  -0.445  -0.777  0.00  0.00    +0.339 C 
ATOM     11  O   LIG    1        4.642  -1.680  -0.914  0.00  0.00    -0.245 OA
BRANCH  10  16
ATOM     12  C   LIG    1        8.486  -0.387  -0.069  0.00  0.00    +0.166 A 
ATOM     13  C   LIG    1        8.730   0.966   0.104  0.00  0.00    +0.204 A 
ATOM     14  C   LIG    1        7.662   1.830  -0.018  0.00  0.00    +0.166 A 
ATOM     15  C   LIG    1        6.377   1.405  -0.301  0.00  0.00    +0.064 A 
ATOM     16  C   LIG    1        6.138   0.049  -0.473  0.00  0.00    +0.066 A 
ATOM     17  C   LIG    1        7.202  -0.812  -0.352  0.00  0.00    +0.064 A 
BRANCH  12  19
ATOM     18  C   LIG    1        9.287  -2.650  -0.128  0.00  0.00    +0.277 C 
ATOM     19  O   LIG    1        9.540  -1.272   0.049  0.00  0.00    -0.491 OA
ENDBRANCH  12  19
BRANCH  13  20
ATOM     20  O   LIG    1       10.024   1.386   0.389  0.00  0.00    -0.488 OA
ATOM     21  C   LIG    1       10.377   1.459   1.765  0.00  0.00    +0.277 C 
ENDBRANCH  13  20
BRANCH  14  22
ATOM     22  O   LIG    1        7.932   3.183   0.160  0.00  0.00    -0.491 OA
ATOM     23  C   LIG    1        6.976   4.198   0.074  0.00  0.00    +0.277 C 
ENDBRANCH  14  22
ENDBRANCH  10  16
ENDBRANCH   9  10
ENDBRANCH   8   9
ENDBRANCH   7   8
ENDBRANCH   1   7
BRANCH   4  24
ATOM     24  C   LIG    1       -3.505  -2.004   0.263  0.00  0.00    +0.086 C 
BRANCH  24  25
ATOM     25  C   LIG    1       -4.440  -0.835   0.124  0.00  0.00    +0.035 C 
BRANCH  25  26
ATOM     26  C   LIG    1       -5.879  -1.248   0.093  0.00  0.00    +0.112 C 
BRANCH  26  27
ATOM     27  N   LIG    1       -6.731  -0.089  -0.073  0.00  0.00    -0.298 N 
ATOM     28  C   LIG    1       -7.378   0.472   1.084  0.00  0.00    +0.049 A 
ATOM     29  C   LIG    1       -7.149  -0.142   2.301  0.00  0.00    +0.044 A 
ATOM     30  C   LIG    1       -7.746   0.373   3.458  0.00  0.00    +0.043 A 
ATOM     31 CL   LIG    1       -7.444  -0.422   4.998  0.00  0.00    -0.083 Cl
ATOM     32  C   LIG    1       -8.559   1.484   3.416  0.00  0.00    +0.021 A 
ATOM     33  C   LIG    1       -8.758   2.069   2.166  0.00  0.00    +0.018 A 
ATOM     34  C   LIG    1       -8.188   1.581   1.036  0.00  0.00    +0.034 A 
ATOM     35  S   LIG    1       -8.514   2.424  -0.470  0.00  0.00    -0.086 S 
ATOM     36  C   LIG    1       -7.591   1.539  -1.749  0.00  0.00    +0.034 A 
ATOM     37  C   LIG    1       -7.681   2.012  -3.042  0.00  0.00    +0.017 A 
ATOM     38  C   LIG    1       -7.004   1.358  -4.033  0.00  0.00    +0.001 A 
ATOM     39  C   LIG    1       -6.250   0.252  -3.743  0.00  0.00    +0.002 A 
ATOM     40  C   LIG    1       -6.185  -0.189  -2.439  0.00  0.00    +0.024 A 
ATOM     41  C   LIG    1       -6.861   0.447  -1.384  0.00  0.00    +0.048 A 
ENDBRANCH  26  27
ENDBRANCH  25  26
ENDBRANCH  24  25
ENDBRANCH   4  24
TORSDOF 12
