REMARK  Name = molecules/BARDROPHSZEBKC-OITMNORJSA-N.pdb
REMARK                            x       y       z     vdW  Elec       q    Type
REMARK                         _______ _______ _______ _____ _____    ______ ____
ROOT
ATOM      1  N   LIG    1        1.232  -0.860   1.146  0.00  0.00    -0.282 NA
ATOM      2  C   LIG    1        0.165  -1.269   2.111  0.00  0.00    +0.113 C 
ATOM      3  C   LIG    1       -0.024  -0.198   3.131  0.00  0.00    +0.178 C 
ATOM      4  O   LIG    1       -0.135   1.111   2.662  0.00  0.00    -0.348 OA
ATOM      5  C   LIG    1       -0.245   1.126   1.260  0.00  0.00    +0.272 C 
ATOM      6  C   LIG    1        1.065   0.464   0.770  0.00  0.00    +0.144 C 
ENDROOT
BRANCH   6   7
ATOM      7  C   LIG    1        1.369   0.977  -0.555  0.00  0.00    -0.025 A 
ATOM      8  C   LIG    1        2.105   2.164  -0.684  0.00  0.00    +0.008 A 
ATOM      9  C   LIG    1        2.410   2.721  -1.900  0.00  0.00    +0.038 A 
ATOM     10  C   LIG    1        1.996   2.122  -3.068  0.00  0.00    +0.123 A 
ATOM     11  C   LIG    1        1.259   0.936  -2.961  0.00  0.00    +0.038 A 
ATOM     12  F   LIG    1        2.288   2.663  -4.268  0.00  0.00    -0.205 F 
ATOM     13  C   LIG    1        0.955   0.380  -1.722  0.00  0.00    +0.008 A 
ENDBRANCH   6   7
BRANCH   1  14
ATOM     14  C   LIG    1        2.448  -1.141   1.907  0.00  0.00    +0.161 C 
BRANCH  14  15
ATOM     15  C   LIG    1        3.719  -0.895   1.261  0.00  0.00    +0.146 A 
ATOM     16  N   LIG    1        4.370   0.268   1.081  0.00  0.00    -0.292 N 
ATOM     17  H   LIG    1        4.064   1.232   1.342  0.00  0.00    +0.172 HD
ATOM     18  C   LIG    1        5.560   0.054   0.479  0.00  0.00    +0.353 A 
ATOM     19  N   LIG    1        5.651  -1.261   0.280  0.00  0.00    -0.113 N 
ATOM     20  O   LIG    1        6.383   0.967   0.177  0.00  0.00    -0.244 OA
ATOM     21  N   LIG    1        4.565  -1.845   0.739  0.00  0.00    -0.143 NA
BRANCH  19  22
ATOM     22  P   LIG    1        7.069  -2.024  -0.448  0.00  0.00    +0.457 P 
ATOM     23  O   LIG    1        8.081  -2.351   0.648  0.00  0.00    -0.232 OA
BRANCH  22  24
ATOM     24  O   LIG    1        6.649  -3.385  -1.317  0.00  0.00    -0.307 OA
ATOM     25  H   LIG    1        6.437  -4.090  -0.639  0.00  0.00    +0.222 HD
ENDBRANCH  22  24
BRANCH  22  26
ATOM     26  O   LIG    1        7.812  -0.896  -1.470  0.00  0.00    -0.307 OA
ATOM     27  H   LIG    1        8.422  -0.340  -0.895  0.00  0.00    +0.222 HD
ENDBRANCH  22  26
ENDBRANCH  19  22
ENDBRANCH  14  15
ENDBRANCH   1  14
BRANCH   5  28
ATOM     28  O   LIG    1       -1.403   0.587   0.957  0.00  0.00    -0.342 OA
BRANCH  28  29
ATOM     29  C   LIG    1       -2.275   1.036   0.017  0.00  0.00    +0.148 C 
ATOM     30  C   LIG    1       -2.748   2.496   0.577  0.00  0.00    +0.043 C 
BRANCH  29  31
ATOM     31  C   LIG    1       -3.481   0.291  -0.241  0.00  0.00    -0.018 A 
ATOM     32  C   LIG    1       -4.716   0.945  -0.199  0.00  0.00    +0.018 A 
ATOM     33  C   LIG    1       -5.932   0.290  -0.361  0.00  0.00    +0.056 A 
ATOM     34  C   LIG    1       -5.896  -1.054  -0.576  0.00  0.00    +0.024 A 
ATOM     35  C   LIG    1       -4.730  -1.776  -0.637  0.00  0.00    +0.056 A 
ATOM     36  C   LIG    1       -3.536  -1.076  -0.467  0.00  0.00    +0.018 A 
BRANCH  33  37
ATOM     37  C   LIG    1       -7.193   1.091  -0.269  0.00  0.00    +0.417 C 
ATOM     38  F   LIG    1       -7.978   0.739   0.794  0.00  0.00    -0.166 F 
ATOM     39  F   LIG    1       -6.850   2.437  -0.239  0.00  0.00    -0.166 F 
ATOM     40  F   LIG    1       -7.895   0.915  -1.470  0.00  0.00    -0.166 F 
ENDBRANCH  33  37
BRANCH  35  41
ATOM     41  C   LIG    1       -4.789  -3.257  -0.872  0.00  0.00    +0.417 C 
ATOM     42  F   LIG    1       -4.014  -3.971  -0.012  0.00  0.00    -0.166 F 
ATOM     43  F   LIG    1       -6.116  -3.667  -0.658  0.00  0.00    -0.166 F 
ATOM     44  F   LIG    1       -4.519  -3.479  -2.201  0.00  0.00    -0.166 F 
ENDBRANCH  35  41
ENDBRANCH  29  31
ENDBRANCH  28  29
ENDBRANCH   5  28
TORSDOF 11
