REMARK  Name = molecules/BBAWEDCPNXPBQM-GDEBMMAJSA-N.pdb
REMARK                            x       y       z     vdW  Elec       q    Type
REMARK                         _______ _______ _______ _____ _____    ______ ____
ROOT
ATOM      1  C   LIG    1        2.098  -1.539  -0.176  0.00  0.00    +0.165 C 
ATOM      2  C   LIG    1        2.025  -3.030  -0.494  0.00  0.00    +0.023 C 
ATOM      3  C   LIG    1        0.891  -3.646   0.273  0.00  0.00    +0.006 C 
ATOM      4  C   LIG    1       -0.036  -4.278  -0.727  0.00  0.00    +0.001 C 
ATOM      5  C   LIG    1        0.586  -4.117  -2.096  0.00  0.00    +0.005 C 
ATOM      6  C   LIG    1        1.631  -3.030  -1.957  0.00  0.00    +0.012 C 
ATOM      7  C   LIG    1        0.965  -1.703  -2.216  0.00  0.00    +0.112 C 
ATOM      8  N   LIG    1        0.935  -1.069  -0.924  0.00  0.00    -0.288 N 
ATOM      9  C   LIG    1       -0.026  -0.169  -0.387  0.00  0.00    +0.237 C 
ATOM     10  O   LIG    1        0.132   0.192   0.819  0.00  0.00    -0.274 OA
ENDROOT
BRANCH   1  13
ATOM     11  N   LIG    1        4.379  -0.445   0.169  0.00  0.00    -0.304 N 
ATOM     12  H   LIG    1        4.234  -0.443   1.198  0.00  0.00    +0.149 HD
ATOM     13  C   LIG    1        3.372  -0.967  -0.666  0.00  0.00    +0.234 C 
ATOM     14  O   LIG    1        3.553  -0.947  -1.901  0.00  0.00    -0.274 OA
BRANCH  11  15
ATOM     15  C   LIG    1        5.628   0.092  -0.338  0.00  0.00    +0.149 C 
BRANCH  15  16
ATOM     16  C   LIG    1        6.741  -0.191   0.544  0.00  0.00    +0.237 C 
ATOM     17  O   LIG    1        6.649  -0.411   1.763  0.00  0.00    -0.285 OA
BRANCH  16  19
ATOM     18  N   LIG    1        9.230  -0.379   0.779  0.00  0.00    -0.306 N 
ATOM     19  C   LIG    1        8.132  -0.237  -0.020  0.00  0.00    +0.282 C 
ATOM     20  O   LIG    1        8.171  -0.134  -1.296  0.00  0.00    -0.267 OA
ATOM     21  H   LIG    1       10.031  -0.328  -0.334  0.00  0.00    +0.149 HD
BRANCH  18  24
ATOM     22  C   LIG    1       11.111   0.759   1.855  0.00  0.00    +0.024 C 
ATOM     23  C   LIG    1       10.383   0.129   2.966  0.00  0.00    +0.024 C 
ATOM     24  C   LIG    1       10.333  -0.521   1.573  0.00  0.00    +0.073 C 
ENDBRANCH  18  24
ENDBRANCH  16  19
ENDBRANCH  15  16
BRANCH  15  25
ATOM     25  C   LIG    1        5.498   1.578  -0.613  0.00  0.00    +0.030 C 
BRANCH  25  26
ATOM     26  C   LIG    1        5.257   2.452   0.549  0.00  0.00    -0.001 C 
ATOM     27  C   LIG    1        6.293   2.502   1.612  0.00  0.00    +0.004 C 
ENDBRANCH  25  26
ENDBRANCH  15  25
ENDBRANCH  11  15
ENDBRANCH   1  13
BRANCH   9  28
ATOM     28  C   LIG    1       -1.185   0.379  -1.106  0.00  0.00    +0.164 C 
BRANCH  28  29
ATOM     29  N   LIG    1       -2.322   0.468  -0.208  0.00  0.00    -0.302 N 
ATOM     30  H   LIG    1       -2.157   0.731   0.804  0.00  0.00    +0.150 HD
ATOM     31  C   LIG    1       -3.647   0.210  -0.606  0.00  0.00    +0.234 C 
ATOM     32  O   LIG    1       -3.877  -0.109  -1.786  0.00  0.00    -0.274 OA
BRANCH  31  33
ATOM     33  C   LIG    1       -4.749   0.319   0.356  0.00  0.00    +0.162 C 
BRANCH  33  34
ATOM     34  C   LIG    1       -5.101  -0.980   1.006  0.00  0.00    +0.018 C 
ATOM     35  C   LIG    1       -6.241  -0.733   1.980  0.00  0.00    +0.006 C 
ATOM     36  C   LIG    1       -6.528  -1.953   2.802  0.00  0.00    +0.000 C 
ATOM     37  C   LIG    1       -6.903  -3.107   1.904  0.00  0.00    +0.000 C 
ATOM     38  C   LIG    1       -5.880  -3.278   0.812  0.00  0.00    +0.000 C 
ATOM     39  C   LIG    1       -5.622  -2.010   0.030  0.00  0.00    +0.006 C 
ENDBRANCH  33  34
BRANCH  33  40
ATOM     40  N   LIG    1       -5.933   0.908  -0.265  0.00  0.00    -0.298 N 
ATOM     41  C   LIG    1       -6.222   2.296  -0.010  0.00  0.00    +0.264 C 
ATOM     42  O   LIG    1       -5.452   2.943   0.738  0.00  0.00    -0.268 OA
ATOM     43  H   LIG    1       -6.574   0.382  -0.870  0.00  0.00    +0.150 HD
BRANCH  41  44
ATOM     44  C   LIG    1       -7.352   2.986  -0.575  0.00  0.00    +0.143 A 
ATOM     45  N   LIG    1       -7.573   4.306  -0.355  0.00  0.00    -0.247 NA
ATOM     46  C   LIG    1       -8.606   4.963  -0.887  0.00  0.00    +0.131 A 
ATOM     47  C   LIG    1       -9.506   4.303  -1.699  0.00  0.00    +0.130 A 
ATOM     48  N   LIG    1       -9.295   2.997  -1.919  0.00  0.00    -0.259 NA
ATOM     49  C   LIG    1       -8.256   2.347  -1.382  0.00  0.00    +0.143 A 
ENDBRANCH  41  44
ENDBRANCH  33  40
ENDBRANCH  31  33
ENDBRANCH  28  29
BRANCH  28  50
ATOM     50  C   LIG    1       -0.841   1.820  -1.474  0.00  0.00    -0.011 C 
ATOM     51  C   LIG    1       -0.500   2.637  -0.233  0.00  0.00    +0.013 C 
ATOM     52  C   LIG    1       -2.008   2.457  -2.197  0.00  0.00    +0.013 C 
ATOM     53  C   LIG    1        0.359   1.904  -2.367  0.00  0.00    +0.013 C 
ENDBRANCH  28  50
ENDBRANCH   9  28
TORSDOF 14
