REMARK  Name = molecules/BBIMHFSPNXQFAH-UHFFFAOYSA-N.pdb
REMARK                            x       y       z     vdW  Elec       q    Type
REMARK                         _______ _______ _______ _____ _____    ______ ____
ROOT
ATOM      1  C   LIG    1       -0.781   0.265  -1.135  0.00  0.00    +0.117 C 
ATOM      2  C   LIG    1       -1.426   0.581  -2.479  0.00  0.00    +0.052 C 
ENDROOT
BRANCH   1   3
ATOM      3  C   LIG    1       -1.467   1.116  -0.103  0.00  0.00    -0.012 A 
ATOM      4  C   LIG    1       -2.695   0.743   0.394  0.00  0.00    +0.007 A 
ATOM      5  C   LIG    1       -3.354   1.526   1.345  0.00  0.00    +0.000 A 
ATOM      6  C   LIG    1       -2.770   2.691   1.799  0.00  0.00    +0.000 A 
ATOM      7  C   LIG    1       -1.556   3.069   1.314  0.00  0.00    +0.000 A 
ATOM      8  C   LIG    1       -0.916   2.279   0.368  0.00  0.00    +0.007 A 
ENDBRANCH   1   3
BRANCH   1   9
ATOM      9  C   LIG    1       -1.066  -1.172  -0.850  0.00  0.00    -0.012 A 
ATOM     10  C   LIG    1       -0.883  -1.671   0.445  0.00  0.00    +0.007 A 
ATOM     11  C   LIG    1       -1.136  -2.987   0.710  0.00  0.00    +0.000 A 
ATOM     12  C   LIG    1       -1.576  -3.885  -0.250  0.00  0.00    +0.000 A 
ATOM     13  C   LIG    1       -1.754  -3.397  -1.515  0.00  0.00    +0.000 A 
ATOM     14  C   LIG    1       -1.502  -2.074  -1.793  0.00  0.00    +0.007 A 
ENDBRANCH   1   9
BRANCH   1  15
ATOM     15  O   LIG    1        0.547   0.528  -1.279  0.00  0.00    -0.363 OA
BRANCH  15  16
ATOM     16  C   LIG    1        1.375   0.282  -0.227  0.00  0.00    +0.177 C 
BRANCH  16  17
ATOM     17  C   LIG    1        2.785   0.688  -0.664  0.00  0.00    +0.112 C 
BRANCH  17  18
ATOM     18  N   LIG    1        3.701   0.456   0.408  0.00  0.00    -0.306 NA
ATOM     19  C   LIG    1        3.528   1.355   1.485  0.00  0.00    +0.104 C 
ATOM     20  C   LIG    1        3.889  -0.914   0.704  0.00  0.00    +0.104 C 
ENDBRANCH  17  18
ENDBRANCH  16  17
ENDBRANCH  15  16
ENDBRANCH   1  15
TORSDOF 6
