REMARK  Name = molecules/BCEHBSKCWLPMDN-MGPLVRAMSA-N.pdb
REMARK                            x       y       z     vdW  Elec       q    Type
REMARK                         _______ _______ _______ _____ _____    ______ ____
ROOT
ATOM      1  C   LIG    1        0.643   0.232  -0.109  0.00  0.00    +0.121 C 
ENDROOT
BRANCH   1   2
ATOM      2  C   LIG    1       -0.163   1.364   0.274  0.00  0.00    +0.022 A 
ATOM      3  C   LIG    1       -0.111   1.868   1.578  0.00  0.00    +0.012 A 
ATOM      4  C   LIG    1       -0.952   2.893   1.943  0.00  0.00    +0.039 A 
ATOM      5  C   LIG    1       -1.866   3.458   1.052  0.00  0.00    +0.126 A 
ATOM      6  F   LIG    1       -2.701   4.470   1.411  0.00  0.00    -0.205 F 
ATOM      7  C   LIG    1       -1.888   2.933  -0.235  0.00  0.00    +0.077 A 
ATOM      8  C   LIG    1       -1.062   1.916  -0.622  0.00  0.00    +0.132 A 
ATOM      9  F   LIG    1       -1.126   1.530  -1.952  0.00  0.00    -0.205 F 
ENDBRANCH   1   2
BRANCH   1  10
ATOM     10  C   LIG    1        0.114  -1.054  -0.543  0.00  0.00    +0.076 C 
ATOM     11  C   LIG    1       -0.001  -2.005   0.739  0.00  0.00    +0.017 C 
BRANCH  10  12
ATOM     12  C   LIG    1       -1.349  -1.106  -0.905  0.00  0.00    +0.085 A 
ATOM     13  N   LIG    1       -2.294  -0.397  -0.281  0.00  0.00    -0.237 NA
ATOM     14  C   LIG    1       -3.612  -0.575  -0.510  0.00  0.00    +0.221 A 
ATOM     15  N   LIG    1       -4.077  -1.476  -1.381  0.00  0.00    -0.241 NA
ATOM     16  C   LIG    1       -3.163  -2.225  -2.045  0.00  0.00    +0.152 A 
ATOM     17  C   LIG    1       -1.801  -2.041  -1.809  0.00  0.00    +0.163 A 
ATOM     18  F   LIG    1       -0.946  -2.812  -2.512  0.00  0.00    -0.202 F 
ENDBRANCH  10  12
ENDBRANCH   1  10
BRANCH   1  19
ATOM     19  O   LIG    1        1.254   0.789  -1.377  0.00  0.00    -0.381 OA
ATOM     20  H   LIG    1        1.662   1.623  -1.033  0.00  0.00    +0.211 HD
ENDBRANCH   1  19
BRANCH   1  21
ATOM     21  C   LIG    1        1.991   0.133   0.645  0.00  0.00    +0.185 C 
BRANCH  21  22
ATOM     22  N   LIG    1        3.032  -0.425  -0.178  0.00  0.00    -0.249 N 
ATOM     23  C   LIG    1        3.401  -1.695  -0.250  0.00  0.00    +0.219 A 
ATOM     24  N   LIG    1        4.401  -1.758  -1.170  0.00  0.00    -0.223 NA
ATOM     25  C   LIG    1        4.642  -0.539  -1.658  0.00  0.00    +0.244 A 
ATOM     26  N   LIG    1        3.788   0.281  -1.036  0.00  0.00    -0.158 NA
ENDBRANCH  21  22
ENDBRANCH   1  21
TORSDOF 6
