REMARK  Name = molecules/BCFGMOOMADDAQU-UHFFFAOYSA-N.pdb
REMARK                            x       y       z     vdW  Elec       q    Type
REMARK                         _______ _______ _______ _____ _____    ______ ____
ROOT
ATOM      1  C   LIG    1       -1.336   0.277  -0.797  0.00  0.00    +0.134 A 
ATOM      2  C   LIG    1       -0.013   0.171  -1.093  0.00  0.00    +0.041 A 
ATOM      3  C   LIG    1        0.895  -0.151  -0.111  0.00  0.00    +0.025 A 
ATOM      4  C   LIG    1        2.222  -0.285  -0.418  0.00  0.00    +0.018 A 
ATOM      5  C   LIG    1        2.578  -0.067  -1.766  0.00  0.00    +0.013 A 
ATOM      6  C   LIG    1        1.688   0.253  -2.740  0.00  0.00    +0.029 A 
ATOM      7  C   LIG    1        0.362   0.373  -2.395  0.00  0.00    +0.076 A 
ATOM      8  N   LIG    1       -0.537   0.654  -3.317  0.00  0.00    -0.235 NA
ATOM      9  C   LIG    1       -1.869   0.771  -3.089  0.00  0.00    +0.223 A 
ATOM     10  N   LIG    1       -2.217   0.573  -1.800  0.00  0.00    -0.220 NA
ENDROOT
BRANCH   4  11
ATOM     11  C   LIG    1        3.286  -0.658   0.502  0.00  0.00    +0.135 A 
ATOM     12  C   LIG    1        3.371  -1.233   1.750  0.00  0.00    +0.050 A 
ATOM     13  C   LIG    1        4.717  -1.316   2.075  0.00  0.00    +0.046 A 
ATOM     14  C   LIG    1        5.443  -0.744   0.942  0.00  0.00    +0.119 A 
ATOM     15  O   LIG    1        4.505  -0.445   0.183  0.00  0.00    -0.458 OA
BRANCH  14  16
ATOM     16  C   LIG    1        6.855  -0.541   0.722  0.00  0.00    +0.156 C 
BRANCH  16  17
ATOM     17  N   LIG    1        7.225  -0.832  -0.660  0.00  0.00    -0.308 NA
ATOM     18  H   LIG    1        7.226  -1.863  -0.868  0.00  0.00    +0.122 HD
BRANCH  17  19
ATOM     19  C   LIG    1        8.131  -0.093  -1.353  0.00  0.00    +0.104 C 
BRANCH  19  20
ATOM     20  C   LIG    1        9.543   0.051  -1.124  0.00  0.00    +0.180 C 
BRANCH  20  21
ATOM     21  S   LIG    1       10.040   0.761   0.401  0.00  0.00    -0.033 S 
ATOM     22  O   LIG    1        9.825  -0.200   1.536  0.00  0.00    -0.175 OA
ATOM     23  O   LIG    1        9.297   2.053   0.653  0.00  0.00    -0.175 OA
ATOM     24  C   LIG    1       11.817   1.030   0.391  0.00  0.00    +0.194 C 
ENDBRANCH  20  21
ENDBRANCH  19  20
ENDBRANCH  17  19
ENDBRANCH  16  17
ENDBRANCH  14  16
ENDBRANCH   4  11
BRANCH   1  25
ATOM     25  N   LIG    1       -1.875   0.191   0.551  0.00  0.00    -0.299 N 
ATOM     26  H   LIG    1       -1.369   0.092   1.397  0.00  0.00    +0.154 HD
BRANCH  25  27
ATOM     27  C   LIG    1       -3.326   0.245   0.555  0.00  0.00    +0.034 A 
ATOM     28  C   LIG    1       -4.112   1.282   0.921  0.00  0.00    +0.027 A 
ATOM     29  C   LIG    1       -5.522   1.239   0.675  0.00  0.00    +0.049 A 
ATOM     30  C   LIG    1       -6.133   0.186   0.074  0.00  0.00    +0.139 A 
ATOM     31  C   LIG    1       -5.250  -0.913  -0.288  0.00  0.00    +0.084 A 
ATOM     32 CL   LIG    1       -6.048  -2.291  -1.033  0.00  0.00    -0.080 Cl
ATOM     33  C   LIG    1       -3.932  -0.858  -0.050  0.00  0.00    +0.047 A 
BRANCH  30  34
ATOM     34  O   LIG    1       -7.402  -0.033  -0.259  0.00  0.00    -0.486 OA
BRANCH  34  35
ATOM     35  C   LIG    1       -8.599  -0.224  -0.564  0.00  0.00    +0.264 C 
BRANCH  35  36
ATOM     36  C   LIG    1       -9.603  -0.501   0.544  0.00  0.00    -0.008 A 
ATOM     37  C   LIG    1       -9.233  -0.166   1.812  0.00  0.00    +0.007 A 
ATOM     38  C   LIG    1      -10.162  -0.522   2.837  0.00  0.00    +0.003 A 
ATOM     39  C   LIG    1      -11.301  -1.151   2.424  0.00  0.00    +0.038 A 
ATOM     40  C   LIG    1      -11.682  -1.496   1.177  0.00  0.00    +0.124 A 
ATOM     41  F   LIG    1      -12.827  -2.137   0.866  0.00  0.00    -0.205 F 
ATOM     42  C   LIG    1      -10.760  -1.139   0.172  0.00  0.00    +0.045 A 
ENDBRANCH  35  36
ENDBRANCH  34  35
ENDBRANCH  30  34
ENDBRANCH  25  27
ENDBRANCH   1  25
TORSDOF 11
