REMARK  Name = molecules/BCQZXOMGPXTTIC-PVQJCKRUSA-N.pdb
REMARK                            x       y       z     vdW  Elec       q    Type
REMARK                         _______ _______ _______ _____ _____    ______ ____
ROOT
ATOM      1  F   LIG    1       -0.924  -0.141   1.509  0.00  0.00    -0.168 F 
ATOM      2  C   LIG    1       -0.777  -0.071   0.141  0.00  0.00    +0.415 C 
ATOM      3  F   LIG    1       -1.388   1.087  -0.362  0.00  0.00    -0.168 F 
ATOM      4  F   LIG    1       -1.336  -1.172  -0.432  0.00  0.00    -0.168 F 
ENDROOT
BRANCH   2   5
ATOM      5  C   LIG    1        0.681   0.056  -0.272  0.00  0.00    +0.251 C 
ATOM      6 CL   LIG    1        1.310   1.559   0.472  0.00  0.00    -0.100 Cl
ATOM      7 BR   LIG    1        1.730  -1.448   0.315  0.00  0.00    -0.061 Br
ENDBRANCH   2   5
TORSDOF 1
