REMARK  Name = molecules/BDJRBEYXGGNYIS-UHFFFAOYSA-N.pdb
REMARK                            x       y       z     vdW  Elec       q    Type
REMARK                         _______ _______ _______ _____ _____    ______ ____
ROOT
ATOM      1  C   LIG    1       -0.247  -0.799  -0.112  0.00  0.00    +0.000 C 
ENDROOT
BRANCH   1   2
ATOM      2  C   LIG    1        1.057  -0.807  -0.871  0.00  0.00    +0.001 C 
BRANCH   2   3
ATOM      3  C   LIG    1        2.158  -0.078  -0.133  0.00  0.00    +0.011 C 
BRANCH   3   4
ATOM      4  C   LIG    1        3.403  -0.175  -1.002  0.00  0.00    +0.120 C 
BRANCH   4   5
ATOM      5  C   LIG    1        4.536   0.516  -0.351  0.00  0.00    +0.305 C 
ATOM      6  O   LIG    1        5.642   0.509  -0.976  0.00  0.00    -0.251 OA
BRANCH   5   7
ATOM      7  O   LIG    1        4.436   1.150   0.876  0.00  0.00    -0.481 OA
ATOM      8  H   LIG    1        3.745   0.897   1.556  0.00  0.00    +0.295 HD
ENDBRANCH   5   7
ENDBRANCH   4   5
ENDBRANCH   3   4
ENDBRANCH   2   3
ENDBRANCH   1   2
BRANCH   1   9
ATOM      9  C   LIG    1       -0.680   0.607   0.091  0.00  0.00    +0.001 C 
BRANCH   9  10
ATOM     10  C   LIG    1       -1.979   0.752   0.831  0.00  0.00    +0.011 C 
BRANCH  10  11
ATOM     11  C   LIG    1       -3.138   0.106   0.167  0.00  0.00    +0.120 C 
BRANCH  11  12
ATOM     12  C   LIG    1       -4.346   0.317   0.985  0.00  0.00    +0.305 C 
ATOM     13  O   LIG    1       -4.270   0.958   2.053  0.00  0.00    -0.251 OA
BRANCH  12  14
ATOM     14  O   LIG    1       -5.575  -0.180   0.603  0.00  0.00    -0.481 OA
ATOM     15  H   LIG    1       -6.008  -0.035  -0.288  0.00  0.00    +0.295 HD
ENDBRANCH  12  14
ENDBRANCH  11  12
ENDBRANCH  10  11
ENDBRANCH   9  10
ENDBRANCH   1   9
TORSDOF 10
