REMARK  Name = molecules/BEJNERDRQOWKJM-UHFFFAOYSA-N.pdb
REMARK                            x       y       z     vdW  Elec       q    Type
REMARK                         _______ _______ _______ _____ _____    ______ ____
ROOT
ATOM      1  C   LIG    1        0.860  -0.065  -0.235  0.00  0.00    +0.134 A 
ATOM      2  C   LIG    1        0.202  -0.974   0.570  0.00  0.00    +0.098 A 
ATOM      3  C   LIG    1       -1.178  -0.951   0.710  0.00  0.00    +0.226 A 
ATOM      4  O   LIG    1       -1.788  -1.775   1.441  0.00  0.00    -0.284 OA
ATOM      5  C   LIG    1       -1.907   0.002   0.029  0.00  0.00    +0.199 A 
ATOM      6  C   LIG    1       -1.188   0.879  -0.758  0.00  0.00    +0.244 A 
ATOM      7  O   LIG    1        0.115   0.817  -0.857  0.00  0.00    -0.462 OA
ENDROOT
BRANCH   5   8
ATOM      8  O   LIG    1       -3.299   0.066   0.136  0.00  0.00    -0.501 OA
ATOM      9  H   LIG    1       -3.809   0.773  -0.372  0.00  0.00    +0.292 HD
ENDBRANCH   5   8
BRANCH   1  10
ATOM     10  C   LIG    1        2.350  -0.079  -0.394  0.00  0.00    +0.230 C 
BRANCH  10  11
ATOM     11  O   LIG    1        2.946   0.744   0.585  0.00  0.00    -0.387 OA
ATOM     12  H   LIG    1        2.319   1.456   0.889  0.00  0.00    +0.210 HD
ENDBRANCH  10  11
ENDBRANCH   1  10
TORSDOF 3
