REMARK  Name = molecules/BELBBZDIHDAJOR-UHFFFAOYSA-N.pdb
REMARK                            x       y       z     vdW  Elec       q    Type
REMARK                         _______ _______ _______ _____ _____    ______ ____
ROOT
ATOM      1  O   LIG    1        1.668  -2.465   1.249  0.00  0.00    -0.142 OA
ATOM      2  S   LIG    1        0.338  -2.165   1.816  0.00  0.00    +0.114 S 
ATOM      3  O   LIG    1        0.031  -2.864   3.091  0.00  0.00    -0.142 OA
ATOM      4  O   LIG    1        0.056  -0.479   1.948  0.00  0.00    -0.213 OA
ATOM      5  C   LIG    1       -0.126  -0.191   0.589  0.00  0.00    +0.175 C 
ATOM      6  C   LIG    1       -1.027  -1.209   0.008  0.00  0.00    +0.023 A 
ATOM      7  C   LIG    1       -1.971  -1.101  -1.028  0.00  0.00    +0.009 A 
ATOM      8  C   LIG    1       -2.724  -2.161  -1.462  0.00  0.00    +0.000 A 
ATOM      9  C   LIG    1       -2.558  -3.384  -0.867  0.00  0.00    +0.002 A 
ATOM     10  C   LIG    1       -1.622  -3.518   0.171  0.00  0.00    +0.030 A 
ATOM     11  C   LIG    1       -0.879  -2.451   0.592  0.00  0.00    +0.124 A 
ENDROOT
BRANCH   5  12
ATOM     12  C   LIG    1       -0.695   1.163   0.404  0.00  0.00    -0.004 A 
ATOM     13  C   LIG    1       -1.324   1.851   1.420  0.00  0.00    +0.011 A 
ATOM     14  C   LIG    1       -1.828   3.108   1.173  0.00  0.00    +0.046 A 
ATOM     15  C   LIG    1       -1.743   3.738  -0.052  0.00  0.00    +0.117 A 
ATOM     16  C   LIG    1       -1.109   3.024  -1.047  0.00  0.00    +0.046 A 
ATOM     17  C   LIG    1       -0.592   1.758  -0.826  0.00  0.00    +0.011 A 
BRANCH  15  18
ATOM     18  O   LIG    1       -2.254   5.008  -0.297  0.00  0.00    -0.507 OA
ATOM     19  H   LIG    1       -3.210   5.104  -0.621  0.00  0.00    +0.292 HD
ENDBRANCH  15  18
ENDBRANCH   5  12
BRANCH   5  20
ATOM     20  C   LIG    1        1.234  -0.220  -0.020  0.00  0.00    -0.004 A 
ATOM     21  C   LIG    1        2.290   0.180   0.796  0.00  0.00    +0.011 A 
ATOM     22  C   LIG    1        3.594   0.227   0.379  0.00  0.00    +0.046 A 
ATOM     23  C   LIG    1        3.852  -0.143  -0.919  0.00  0.00    +0.117 A 
ATOM     24  C   LIG    1        2.823  -0.541  -1.739  0.00  0.00    +0.046 A 
ATOM     25  C   LIG    1        1.499  -0.587  -1.308  0.00  0.00    +0.011 A 
BRANCH  23  26
ATOM     26  O   LIG    1        5.179  -0.109  -1.389  0.00  0.00    -0.507 OA
ATOM     27  H   LIG    1        5.924   0.186  -0.776  0.00  0.00    +0.292 HD
ENDBRANCH  23  26
ENDBRANCH   5  20
TORSDOF 4
