REMARK  Name = molecules/BENFXAYNYRLAIU-QSVFAHTRSA-N.pdb
REMARK                            x       y       z     vdW  Elec       q    Type
REMARK                         _______ _______ _______ _____ _____    ______ ____
ROOT
ATOM      1  C   LIG    1       -1.961   2.097  -0.906  0.00  0.00    +0.169 C 
ATOM      2  C   LIG    1       -2.210   0.986   0.043  0.00  0.00    +0.235 C 
ATOM      3  N   LIG    1       -3.338   0.860   0.843  0.00  0.00    -0.302 N 
ATOM      4  H   LIG    1       -3.203   1.028   1.907  0.00  0.00    +0.150 HD
ATOM      5  C   LIG    1       -4.701   0.520   0.507  0.00  0.00    +0.163 C 
ATOM      6  C   LIG    1       -5.304  -0.493   1.403  0.00  0.00    +0.234 C 
ATOM      7  O   LIG    1       -5.957   0.098   2.397  0.00  0.00    -0.274 OA
ATOM      8  N   LIG    1       -5.345  -1.861   1.440  0.00  0.00    -0.302 N 
ATOM      9  C   LIG    1       -4.504  -2.950   1.825  0.00  0.00    +0.163 C 
ATOM     10  C   LIG    1       -3.166  -2.695   2.319  0.00  0.00    +0.234 C 
ATOM     11  O   LIG    1       -3.096  -1.474   2.819  0.00  0.00    -0.274 OA
ATOM     12  N   LIG    1       -1.972  -3.395   2.407  0.00  0.00    -0.302 N 
ATOM     13  H   LIG    1       -1.691  -3.779   3.412  0.00  0.00    +0.150 HD
ATOM     14  C   LIG    1       -0.901  -3.769   1.511  0.00  0.00    +0.159 C 
ATOM     15  C   LIG    1       -0.952  -3.342   0.147  0.00  0.00    +0.234 C 
ATOM     16  O   LIG    1       -2.084  -3.383  -0.462  0.00  0.00    -0.274 OA
ATOM     17  N   LIG    1        0.088  -2.861  -0.667  0.00  0.00    -0.302 N 
ATOM     18  C   LIG    1        1.385  -3.384  -0.933  0.00  0.00    +0.168 C 
ATOM     19  C   LIG    1        2.530  -2.713  -0.317  0.00  0.00    +0.234 C 
ATOM     20  N   LIG    1        2.651  -1.547   0.402  0.00  0.00    -0.302 N 
ATOM     21  H   LIG    1        3.013  -1.627   1.418  0.00  0.00    +0.150 HD
ATOM     22  C   LIG    1        2.374  -0.158   0.032  0.00  0.00    +0.170 C 
ATOM     23  C   LIG    1        2.066   0.682   1.214  0.00  0.00    +0.112 C 
ATOM     24  S   LIG    1        0.657   1.805   0.922  0.00  0.00    -0.091 S 
ATOM     25  S   LIG    1        0.691   2.308  -1.165  0.00  0.00    -0.091 S 
ATOM     26  O   LIG    1        3.648  -3.369  -0.496  0.00  0.00    -0.274 OA
ATOM     27  H   LIG    1       -0.130  -1.947  -1.217  0.00  0.00    +0.150 HD
ATOM     28  H   LIG    1       -6.328  -2.262   1.090  0.00  0.00    +0.150 HD
ATOM     29  O   LIG    1       -1.303   0.080   0.120  0.00  0.00    -0.274 OA
ATOM     30  C   LIG    1       -0.868   1.760  -1.879  0.00  0.00    +0.112 C 
ENDROOT
BRANCH  22  31
ATOM     31  C   LIG    1        3.334   0.396  -0.932  0.00  0.00    +0.237 C 
ATOM     32  N   LIG    1        3.915   1.651  -1.056  0.00  0.00    -0.288 N 
ATOM     33  C   LIG    1        3.921   2.872  -0.314  0.00  0.00    +0.109 C 
ATOM     34  C   LIG    1        3.789   3.954  -1.389  0.00  0.00    +0.021 C 
ATOM     35  C   LIG    1        4.079   3.269  -2.695  0.00  0.00    +0.033 C 
ATOM     36  C   LIG    1        4.757   2.012  -2.233  0.00  0.00    +0.162 C 
ATOM     37  O   LIG    1        3.702  -0.499  -1.856  0.00  0.00    -0.274 OA
BRANCH  36  38
ATOM     38  C   LIG    1        6.166   2.149  -1.901  0.00  0.00    +0.234 C 
ATOM     39  N   LIG    1        6.825   1.603  -0.784  0.00  0.00    -0.302 N 
ATOM     40  H   LIG    1        6.327   1.034  -0.100  0.00  0.00    +0.150 HD
ATOM     41  O   LIG    1        6.876   2.835  -2.718  0.00  0.00    -0.274 OA
BRANCH  39  42
ATOM     42  C   LIG    1        8.271   1.833  -0.571  0.00  0.00    +0.159 C 
BRANCH  42  43
ATOM     43  C   LIG    1        9.009   0.675  -1.204  0.00  0.00    +0.234 C 
ATOM     44  N   LIG    1       10.408   0.683  -1.424  0.00  0.00    -0.305 N 
ATOM     45  H   LIG    1       10.952   1.530  -1.153  0.00  0.00    +0.149 HD
ATOM     46  O   LIG    1        8.368  -0.351  -1.565  0.00  0.00    -0.274 OA
BRANCH  44  47
ATOM     47  C   LIG    1       11.100  -0.421  -2.027  0.00  0.00    +0.199 C 
BRANCH  47  48
ATOM     48  C   LIG    1       12.562  -0.162  -2.179  0.00  0.00    +0.228 C 
ATOM     49  O   LIG    1       13.005   0.937  -1.776  0.00  0.00    -0.274 OA
ATOM     50  N   LIG    1       13.411  -1.132  -2.760  0.00  0.00    -0.328 N 
ATOM     51  H   LIG    1       14.211  -1.477  -2.218  0.00  0.00    +0.145 HD
ATOM     52  H   LIG    1       13.248  -1.507  -3.725  0.00  0.00    +0.145 HD
ENDBRANCH  47  48
ENDBRANCH  44  47
ENDBRANCH  42  43
BRANCH  42  53
ATOM     53  C   LIG    1        8.476   1.871   0.907  0.00  0.00    +0.032 C 
BRANCH  53  54
ATOM     54  C   LIG    1        9.867   2.087   1.376  0.00  0.00    +0.003 C 
BRANCH  54  55
ATOM     55  C   LIG    1        9.964   2.140   2.904  0.00  0.00    +0.015 C 
BRANCH  55  56
ATOM     56  C   LIG    1        9.486   0.870   3.542  0.00  0.00    +0.077 C 
BRANCH  56  57
ATOM     57  N   LIG    1       10.267  -0.265   3.066  0.00  0.00    -0.330 NA
ATOM     58  H   LIG    1       11.268  -0.077   3.192  0.00  0.00    +0.118 HD
ATOM     59  H   LIG    1       10.004  -0.473   2.072  0.00  0.00    +0.118 HD
ENDBRANCH  56  57
ENDBRANCH  55  56
ENDBRANCH  54  55
ENDBRANCH  53  54
ENDBRANCH  42  53
ENDBRANCH  39  42
ENDBRANCH  36  38
ENDBRANCH  22  31
BRANCH   1  62
ATOM     60  C   LIG    1       -2.631   4.192   0.242  0.00  0.00    +0.231 C 
ATOM     61  O   LIG    1       -3.814   3.824   0.084  0.00  0.00    -0.274 OA
ATOM     62  N   LIG    1       -1.587   3.340  -0.245  0.00  0.00    -0.302 N 
ATOM     63  H   LIG    1       -0.608   3.638  -0.128  0.00  0.00    +0.150 HD
BRANCH  60  64
ATOM     64  C   LIG    1       -2.316   5.481   0.919  0.00  0.00    +0.200 C 
BRANCH  64  66
ATOM     65  C   LIG    1       -4.645   6.405   0.513  0.00  0.00    +0.231 C 
ATOM     66  N   LIG    1       -3.557   6.071   1.369  0.00  0.00    -0.305 N 
ATOM     67  H   LIG    1       -3.627   6.255   2.419  0.00  0.00    +0.149 HD
ATOM     68  O   LIG    1       -4.571   6.194  -0.723  0.00  0.00    -0.274 OA
BRANCH  65  69
ATOM     69  C   LIG    1       -5.847   7.005   1.162  0.00  0.00    +0.200 C 
BRANCH  69  72
ATOM     70  C   LIG    1       -8.069   7.840   0.534  0.00  0.00    +0.227 C 
ATOM     71  O   LIG    1       -8.263   8.120   1.762  0.00  0.00    -0.274 OA
ATOM     72  N   LIG    1       -6.842   7.267   0.160  0.00  0.00    -0.306 N 
ATOM     73  H   LIG    1       -6.654   7.029  -0.823  0.00  0.00    +0.149 HD
BRANCH  70  74
ATOM     74  C   LIG    1       -9.183   8.161  -0.380  0.00  0.00    +0.174 C 
BRANCH  74  75
ATOM     75  N   LIG    1       -8.888   7.819  -1.752  0.00  0.00    -0.322 NA
ATOM     76  H   LIG    1       -7.934   8.095  -2.019  0.00  0.00    +0.119 HD
ATOM     77  H   LIG    1       -9.645   8.146  -2.395  0.00  0.00    +0.119 HD
ENDBRANCH  74  75
ENDBRANCH  70  74
ENDBRANCH  69  72
ENDBRANCH  65  69
ENDBRANCH  64  66
ENDBRANCH  60  64
ENDBRANCH   1  62
BRANCH   9  78
ATOM     78  C   LIG    1       -4.751  -4.226   1.042  0.00  0.00    +0.067 C 
BRANCH  78  79
ATOM     79  C   LIG    1       -6.141  -4.708   1.245  0.00  0.00    -0.045 A 
ATOM     80  C   LIG    1       -6.485  -5.394   2.389  0.00  0.00    +0.004 A 
ATOM     81  C   LIG    1       -7.803  -5.806   2.612  0.00  0.00    +0.000 A 
ATOM     82  C   LIG    1       -8.782  -5.515   1.656  0.00  0.00    +0.000 A 
ATOM     83  C   LIG    1       -8.436  -4.833   0.518  0.00  0.00    +0.000 A 
ATOM     84  C   LIG    1       -7.121  -4.448   0.346  0.00  0.00    +0.004 A 
ENDBRANCH  78  79
ENDBRANCH   9  78
BRANCH   5  85
ATOM     85  C   LIG    1       -4.941   0.383  -0.944  0.00  0.00    +0.067 C 
BRANCH  85  86
ATOM     86  C   LIG    1       -6.324   0.019  -1.305  0.00  0.00    -0.045 A 
ATOM     87  C   LIG    1       -7.282   1.007  -1.395  0.00  0.00    +0.007 A 
ATOM     88  C   LIG    1       -8.559   0.668  -1.792  0.00  0.00    +0.045 A 
ATOM     89  C   LIG    1       -8.870  -0.666  -2.097  0.00  0.00    +0.117 A 
ATOM     90  C   LIG    1       -7.921  -1.650  -2.007  0.00  0.00    +0.045 A 
ATOM     91  C   LIG    1       -6.653  -1.299  -1.611  0.00  0.00    +0.007 A 
BRANCH  89  92
ATOM     92  O   LIG    1      -10.166  -0.930  -2.487  0.00  0.00    -0.507 OA
ATOM     93  H   LIG    1      -10.421  -1.892  -2.711  0.00  0.00    +0.292 HD
ENDBRANCH  89  92
ENDBRANCH  85  86
ENDBRANCH   5  85
BRANCH  18  94
ATOM     94  C   LIG    1        1.621  -3.492  -2.452  0.00  0.00    +0.127 C 
BRANCH  94  95
ATOM     95  C   LIG    1        2.959  -4.041  -2.755  0.00  0.00    +0.213 C 
ATOM     96  N   LIG    1        3.220  -5.431  -2.689  0.00  0.00    -0.329 N 
ATOM     97  H   LIG    1        4.149  -5.782  -2.414  0.00  0.00    +0.145 HD
ATOM     98  H   LIG    1        2.466  -6.100  -2.919  0.00  0.00    +0.145 HD
ATOM     99  O   LIG    1        3.911  -3.299  -3.079  0.00  0.00    -0.276 OA
ENDBRANCH  94  95
ENDBRANCH  18  94
BRANCH  14 100
ATOM    100  C   LIG    1       -0.451  -5.203   1.775  0.00  0.00    +0.041 C 
BRANCH 100 101
ATOM    101  C   LIG    1       -1.532  -6.237   1.616  0.00  0.00    +0.098 C 
BRANCH 101 102
ATOM    102  C   LIG    1       -0.914  -7.578   1.878  0.00  0.00    +0.211 C 
ATOM    103  O   LIG    1        0.282  -7.661   2.210  0.00  0.00    -0.276 OA
ATOM    104  N   LIG    1       -1.671  -8.787   1.755  0.00  0.00    -0.329 N 
ATOM    105  H   LIG    1       -1.816  -9.469   2.527  0.00  0.00    +0.145 HD
ATOM    106  H   LIG    1       -2.134  -9.047   0.835  0.00  0.00    +0.145 HD
ENDBRANCH 101 102
ENDBRANCH 100 101
ENDBRANCH  14 100
TORSDOF 28
