REMARK  Name = molecules/BFCDFTHTSVTWOG-XLIONFOSSA-N.pdb
REMARK                            x       y       z     vdW  Elec       q    Type
REMARK                         _______ _______ _______ _____ _____    ______ ____
ROOT
ATOM      1  C   LIG    1       -1.487  -0.730   1.227  0.00  0.00    +0.161 C 
ENDROOT
BRANCH   1   2
ATOM      2  C   LIG    1       -2.664  -0.139   0.621  0.00  0.00    -0.018 A 
ATOM      3  C   LIG    1       -3.354   0.859   1.269  0.00  0.00    +0.007 A 
ATOM      4  C   LIG    1       -4.483   1.419   0.723  0.00  0.00    +0.015 A 
ATOM      5  C   LIG    1       -4.957   0.995  -0.493  0.00  0.00    +0.008 A 
ATOM      6  C   LIG    1       -4.287  -0.004  -1.167  0.00  0.00    +0.015 A 
ATOM      7  C   LIG    1       -3.135  -0.565  -0.596  0.00  0.00    +0.007 A 
BRANCH   5   8
ATOM      8  S   LIG    1       -6.444   1.747  -1.187  0.00  0.00    -0.122 S 
BRANCH   8   9
ATOM      9  C   LIG    1       -7.861   0.793  -0.563  0.00  0.00    +0.045 C 
ATOM     10  C   LIG    1       -7.686   0.691   0.943  0.00  0.00    +0.019 C 
ATOM     11  C   LIG    1       -7.796  -0.594  -1.140  0.00  0.00    +0.019 C 
ENDBRANCH   8   9
ENDBRANCH   5   8
ENDBRANCH   1   2
BRANCH   1  12
ATOM     12  O   LIG    1       -1.373  -2.110   1.091  0.00  0.00    -0.386 OA
ATOM     13  H   LIG    1       -0.987  -2.287   0.189  0.00  0.00    +0.210 HD
ENDBRANCH   1  12
BRANCH   1  14
ATOM     14  C   LIG    1       -0.159  -0.120   0.806  0.00  0.00    +0.084 C 
ATOM     15  C   LIG    1       -0.249   1.393   0.866  0.00  0.00    +0.027 C 
BRANCH  14  16
ATOM     16  N   LIG    1        0.805  -0.666   1.683  0.00  0.00    -0.311 NA
ATOM     17  H   LIG    1        0.879  -1.685   1.567  0.00  0.00    +0.122 HD
BRANCH  16  18
ATOM     18  C   LIG    1        2.016  -0.026   1.916  0.00  0.00    +0.081 C 
BRANCH  18  19
ATOM     19  C   LIG    1        2.975  -0.008   0.704  0.00  0.00    +0.015 C 
BRANCH  19  20
ATOM     20  C   LIG    1        3.285  -1.413   0.300  0.00  0.00    +0.001 C 
BRANCH  20  21
ATOM     21  C   LIG    1        4.147  -1.643  -0.861  0.00  0.00    +0.000 C 
BRANCH  21  22
ATOM     22  C   LIG    1        5.540  -1.219  -0.933  0.00  0.00    -0.000 C 
BRANCH  22  23
ATOM     23  C   LIG    1        5.938   0.199  -0.868  0.00  0.00    -0.000 C 
BRANCH  23  24
ATOM     24  C   LIG    1        7.493   0.210  -1.029  0.00  0.00    -0.003 C 
ATOM     25  C   LIG    1        8.024   1.604  -0.968  0.00  0.00    +0.004 C 
ENDBRANCH  23  24
ENDBRANCH  22  23
ENDBRANCH  21  22
ENDBRANCH  20  21
ENDBRANCH  19  20
ENDBRANCH  18  19
ENDBRANCH  16  18
ENDBRANCH  14  16
ENDBRANCH   1  14
TORSDOF 13
