REMARK  Name = molecules/BFMBKRQFMIILCH-QGZVFWFLSA-N.pdb
REMARK                            x       y       z     vdW  Elec       q    Type
REMARK                         _______ _______ _______ _____ _____    ______ ____
ROOT
ATOM      1  C   LIG    1        1.370   0.569   0.062  0.00  0.00    +0.074 C 
ATOM      2  C   LIG    1        1.656   1.260   1.314  0.00  0.00    +0.230 C 
ATOM      3  O   LIG    1        1.368   0.719   2.420  0.00  0.00    -0.274 OA
ATOM      4  N   LIG    1        2.265   2.548   1.309  0.00  0.00    -0.256 N 
ATOM      5  H   LIG    1        2.910   2.854   2.074  0.00  0.00    +0.157 HD
ATOM      6  C   LIG    1        1.980   3.417   0.237  0.00  0.00    +0.219 C 
ATOM      7  O   LIG    1        2.053   4.670   0.311  0.00  0.00    -0.275 OA
ATOM      8  C   LIG    1        1.575   2.813  -1.050  0.00  0.00    +0.097 C 
ATOM      9  C   LIG    1        1.897   1.357  -1.140  0.00  0.00    +0.030 C 
ENDROOT
BRANCH   1  10
ATOM     10  C   LIG    1        2.033  -0.750  -0.016  0.00  0.00    -0.032 A 
ATOM     11  C   LIG    1        2.046  -1.633   1.032  0.00  0.00    +0.004 A 
ATOM     12  C   LIG    1        2.669  -2.885   0.959  0.00  0.00    +0.000 A 
ATOM     13  C   LIG    1        3.300  -3.267  -0.207  0.00  0.00    +0.000 A 
ATOM     14  C   LIG    1        3.308  -2.412  -1.278  0.00  0.00    +0.000 A 
ATOM     15  C   LIG    1        2.683  -1.179  -1.175  0.00  0.00    +0.004 A 
ENDBRANCH   1  10
BRANCH   1  16
ATOM     16  C   LIG    1       -0.134   0.443  -0.102  0.00  0.00    +0.036 C 
BRANCH  16  17
ATOM     17  C   LIG    1       -0.837  -0.308   0.942  0.00  0.00    +0.085 C 
BRANCH  17  18
ATOM     18  N   LIG    1       -2.312  -0.410   0.719  0.00  0.00    -0.303 NA
BRANCH  18  19
ATOM     19  C   LIG    1       -2.805   0.934   0.484  0.00  0.00    +0.081 C 
ATOM     20  C   LIG    1       -4.295   0.940   0.478  0.00  0.00    +0.020 C 
ENDBRANCH  18  19
BRANCH  18  21
ATOM     21  C   LIG    1       -2.513  -1.270  -0.426  0.00  0.00    +0.081 C 
ATOM     22  C   LIG    1       -3.894  -1.723  -0.697  0.00  0.00    +0.020 C 
ENDBRANCH  18  21
ENDBRANCH  17  18
ENDBRANCH  16  17
ENDBRANCH   1  16
TORSDOF 6
