REMARK  Name = molecules/BFPYWIDHMRZLRN-SLHNCBLASA-N.pdb
REMARK                            x       y       z     vdW  Elec       q    Type
REMARK                         _______ _______ _______ _____ _____    ______ ____
ROOT
ATOM      1  C   LIG    1       -2.015  -0.464  -1.688  0.00  0.00    +0.015 C 
ATOM      2  C   LIG    1       -1.996   0.356  -0.425  0.00  0.00    +0.011 C 
ATOM      3  C   LIG    1       -1.315  -0.377   0.723  0.00  0.00    +0.002 C 
ATOM      4  C   LIG    1       -2.229  -1.510   0.965  0.00  0.00    +0.008 C 
ATOM      5  C   LIG    1       -3.608  -0.862   0.855  0.00  0.00    +0.049 C 
ATOM      6  C   LIG    1        0.067  -0.678   0.335  0.00  0.00    +0.000 C 
ATOM      7  C   LIG    1        0.831  -1.563   1.264  0.00  0.00    +0.009 C 
ATOM      8  C   LIG    1        2.029  -2.076   0.459  0.00  0.00    +0.036 C 
ATOM      9  C   LIG    1        2.808  -0.859   0.065  0.00  0.00    -0.040 A 
ATOM     10  C   LIG    1        2.228   0.390  -0.032  0.00  0.00    -0.041 A 
ATOM     11  C   LIG    1        3.051   1.433  -0.404  0.00  0.00    +0.008 A 
ATOM     12  C   LIG    1        4.390   1.273  -0.674  0.00  0.00    +0.046 A 
ATOM     13  C   LIG    1        4.957   0.004  -0.571  0.00  0.00    +0.117 A 
ATOM     14  C   LIG    1        4.144  -1.048  -0.199  0.00  0.00    +0.049 A 
ATOM     15  C   LIG    1        0.818   0.658   0.234  0.00  0.00    +0.023 C 
ATOM     16  C   LIG    1        0.148   1.426  -0.896  0.00  0.00    +0.009 C 
ATOM     17  C   LIG    1       -3.394   0.443   0.094  0.00  0.00    +0.132 C 
ATOM     18  C   LIG    1       -1.298   1.653  -0.609  0.00  0.00    +0.011 C 
ENDROOT
BRANCH  13  19
ATOM     19  O   LIG    1        6.313  -0.155  -0.844  0.00  0.00    -0.507 OA
ATOM     20  H   LIG    1        6.717  -1.079  -0.767  0.00  0.00    +0.292 HD
ENDBRANCH  13  19
BRANCH  17  21
ATOM     21  C   LIG    1       -3.479   1.587   1.005  0.00  0.00    -0.070 C 
ATOM     22  C   LIG    1       -3.531   2.525   1.766  0.00  0.00    +0.007 C 
ENDBRANCH  17  21
BRANCH  17  23
ATOM     23  O   LIG    1       -4.359   0.485  -0.900  0.00  0.00    -0.376 OA
ATOM     24  H   LIG    1       -4.286   1.289  -1.466  0.00  0.00    +0.211 HD
ENDBRANCH  17  23
TORSDOF 3
