REMARK  Name = molecules/BFSMGDJOXZAERB-UHFFFAOYSA-N.pdb
REMARK                            x       y       z     vdW  Elec       q    Type
REMARK                         _______ _______ _______ _____ _____    ______ ____
ROOT
ATOM      1  F   LIG    1        0.280  -1.387  -0.518  0.00  0.00    -0.203 F 
ATOM      2  C   LIG    1        0.570  -0.327   0.273  0.00  0.00    +0.155 A 
ATOM      3  C   LIG    1        1.881  -0.179   0.722  0.00  0.00    +0.084 A 
ATOM      4  C   LIG    1        2.153   0.898   1.517  0.00  0.00    +0.027 A 
ATOM      5  C   LIG    1        1.153   1.801   1.860  0.00  0.00    +0.003 A 
ATOM      6  C   LIG    1       -0.149   1.618   1.391  0.00  0.00    +0.013 A 
ATOM      7  C   LIG    1       -0.457   0.562   0.600  0.00  0.00    +0.039 A 
ENDROOT
BRANCH   7   8
ATOM      8  C   LIG    1       -1.837   0.342   0.072  0.00  0.00    +0.090 A 
ATOM      9  C   LIG    1       -2.765   1.325  -0.130  0.00  0.00    +0.065 A 
ATOM     10  S   LIG    1       -4.097   0.404  -0.788  0.00  0.00    -0.069 S 
ATOM     11  C   LIG    1       -3.363  -1.134  -0.747  0.00  0.00    +0.085 A 
ATOM     12  N   LIG    1       -2.193  -0.877  -0.257  0.00  0.00    -0.243 NA
BRANCH   9  13
ATOM     13  C   LIG    1       -2.789   2.757   0.139  0.00  0.00    +0.085 A 
ATOM     14  N   LIG    1       -3.659   3.162   1.111  0.00  0.00    -0.214 NA
ATOM     15  C   LIG    1       -3.821   4.444   1.462  0.00  0.00    +0.213 A 
ATOM     16  N   LIG    1       -3.087   5.367   0.825  0.00  0.00    -0.223 NA
ATOM     17  C   LIG    1       -2.205   5.031  -0.149  0.00  0.00    +0.116 A 
ATOM     18  C   LIG    1       -2.041   3.693  -0.511  0.00  0.00    +0.049 A 
BRANCH  15  19
ATOM     19  N   LIG    1       -4.732   4.849   2.478  0.00  0.00    -0.327 N 
ATOM     20  H   LIG    1       -4.514   5.561   3.202  0.00  0.00    +0.145 HD
ATOM     21  H   LIG    1       -5.680   4.361   2.438  0.00  0.00    +0.145 HD
ENDBRANCH  15  19
ENDBRANCH   9  13
BRANCH  11  22
ATOM     22  C   LIG    1       -4.010  -2.428  -1.207  0.00  0.00    +0.011 C 
ATOM     23  C   LIG    1       -5.166  -2.801  -0.320  0.00  0.00    +0.017 C 
ATOM     24  C   LIG    1       -2.980  -3.486  -1.385  0.00  0.00    +0.017 C 
ATOM     25  C   LIG    1       -4.610  -2.059  -2.575  0.00  0.00    +0.017 C 
ENDBRANCH  11  22
ENDBRANCH   7   8
BRANCH   3  26
ATOM     26  N   LIG    1        2.852  -1.189   0.408  0.00  0.00    -0.213 N 
ATOM     27  H   LIG    1        2.663  -1.815  -0.415  0.00  0.00    +0.174 HD
BRANCH  26  28
ATOM     28  S   LIG    1        4.297  -1.449   1.274  0.00  0.00    +0.078 S 
ATOM     29  O   LIG    1        4.453  -0.623   2.506  0.00  0.00    -0.150 OA
ATOM     30  O   LIG    1        4.285  -2.905   1.790  0.00  0.00    -0.150 OA
BRANCH  28  31
ATOM     31  C   LIG    1        5.750  -1.269   0.342  0.00  0.00    +0.178 A 
ATOM     32  C   LIG    1        6.191  -0.021  -0.003  0.00  0.00    +0.153 A 
ATOM     33  F   LIG    1        5.590   1.136   0.355  0.00  0.00    -0.203 F 
ATOM     34  C   LIG    1        7.349   0.045  -0.771  0.00  0.00    +0.040 A 
ATOM     35  C   LIG    1        8.041  -1.085  -1.177  0.00  0.00    +0.006 A 
ATOM     36  C   LIG    1        7.593  -2.345  -0.827  0.00  0.00    +0.040 A 
ATOM     37  C   LIG    1        6.444  -2.413  -0.068  0.00  0.00    +0.153 A 
ATOM     38  F   LIG    1        5.989  -3.663   0.285  0.00  0.00    -0.203 F 
ENDBRANCH  28  31
ENDBRANCH  26  28
ENDBRANCH   3  26
TORSDOF 7
