REMARK  Name = molecules/BGLHAKAJGYLSOX-QFIPXVFZSA-N.pdb
REMARK                            x       y       z     vdW  Elec       q    Type
REMARK                         _______ _______ _______ _____ _____    ______ ____
ROOT
ATOM      1  N   LIG    1       -0.567   0.382   0.612  0.00  0.00    -0.317 N 
ATOM      2  H   LIG    1       -0.938  -0.413   1.174  0.00  0.00    +0.148 HD
ENDROOT
BRANCH   1   3
ATOM      3  C   LIG    1        0.710   0.894   0.950  0.00  0.00    +0.029 A 
ATOM      4  C   LIG    1        1.548   0.184   1.791  0.00  0.00    +0.025 A 
ATOM      5  C   LIG    1        2.807   0.633   2.138  0.00  0.00    +0.030 A 
ATOM      6  C   LIG    1        3.303   1.819   1.663  0.00  0.00    +0.109 A 
ATOM      7  C   LIG    1        2.466   2.550   0.811  0.00  0.00    +0.030 A 
ATOM      8  C   LIG    1        1.210   2.089   0.474  0.00  0.00    +0.025 A 
BRANCH   6   9
ATOM      9  S   LIG    1        4.878   2.441   2.109  0.00  0.00    +0.074 S 
ATOM     10  O   LIG    1        5.317   1.784   3.397  0.00  0.00    -0.150 OA
ATOM     11  O   LIG    1        4.698   3.916   2.459  0.00  0.00    -0.150 OA
BRANCH   9  12
ATOM     12  N   LIG    1        6.013   2.297   0.875  0.00  0.00    -0.198 N 
ATOM     13  H   LIG    1        6.433   3.201   0.485  0.00  0.00    +0.175 HD
BRANCH  12  14
ATOM     14  C   LIG    1        6.471   1.087   0.297  0.00  0.00    +0.160 A 
ATOM     15  C   LIG    1        6.084  -0.168   0.696  0.00  0.00    +0.052 A 
ATOM     16  C   LIG    1        6.620  -1.273   0.064  0.00  0.00    +0.072 A 
ATOM     17  C   LIG    1        7.535  -1.169  -0.958  0.00  0.00    +0.234 A 
ATOM     18  N   LIG    1        7.884   0.072  -1.315  0.00  0.00    -0.110 NA
ATOM     19  N   LIG    1        7.384   1.128  -0.725  0.00  0.00    -0.129 NA
BRANCH  17  20
ATOM     20  O   LIG    1        8.054  -2.320  -1.573  0.00  0.00    -0.479 OA
ATOM     21  C   LIG    1        8.994  -2.220  -2.624  0.00  0.00    +0.279 C 
ENDBRANCH  17  20
ENDBRANCH  12  14
ENDBRANCH   9  12
ENDBRANCH   6   9
ENDBRANCH   1   3
BRANCH   1  22
ATOM     22  C   LIG    1       -1.411   0.869  -0.454  0.00  0.00    +0.281 C 
BRANCH  22  23
ATOM     23  C   LIG    1       -2.815   0.484  -0.295  0.00  0.00    +0.083 A 
ATOM     24  C   LIG    1       -3.334  -0.769   0.054  0.00  0.00    +0.279 A 
ATOM     25  O   LIG    1       -2.637  -1.792   0.293  0.00  0.00    -0.265 OA
ATOM     26  N   LIG    1       -4.677  -0.713   0.096  0.00  0.00    -0.217 N 
ATOM     27  N   LIG    1       -5.031   0.520  -0.212  0.00  0.00    -0.284 N 
ATOM     28  C   LIG    1       -6.424   0.974  -0.273  0.00  0.00    +0.171 C 
ATOM     29  C   LIG    1       -3.939   1.278  -0.456  0.00  0.00    +0.045 A 
ATOM     30  C   LIG    1       -3.936   2.734  -0.837  0.00  0.00    +0.066 C 
BRANCH  26  31
ATOM     31  C   LIG    1       -5.566  -1.788   0.415  0.00  0.00    +0.067 A 
ATOM     32  C   LIG    1       -5.613  -2.276   1.702  0.00  0.00    +0.028 A 
ATOM     33  C   LIG    1       -6.470  -3.313   2.010  0.00  0.00    +0.002 A 
ATOM     34  C   LIG    1       -7.298  -3.901   1.080  0.00  0.00    +0.000 A 
ATOM     35  C   LIG    1       -7.237  -3.399  -0.206  0.00  0.00    +0.002 A 
ATOM     36  C   LIG    1       -6.386  -2.364  -0.526  0.00  0.00    +0.028 A 
ENDBRANCH  26  31
ENDBRANCH  22  23
BRANCH  22  37
ATOM     37  S   LIG    1       -0.783   0.528  -2.069  0.00  0.00    +0.104 S 
ATOM     38  O   LIG    1        0.619   0.996  -2.288  0.00  0.00    -0.145 OA
ATOM     39  O   LIG    1       -0.823  -0.953  -2.363  0.00  0.00    -0.145 OA
BRANCH  37  40
ATOM     40  O   LIG    1       -1.767   1.331  -3.183  0.00  0.00    -0.252 OA
ATOM     41  H   LIG    1       -1.459   1.017  -4.080  0.00  0.00    +0.245 HD
ENDBRANCH  37  40
ENDBRANCH  22  37
ENDBRANCH   1  22
TORSDOF 10
