REMARK  Name = molecules/BGRJTUBHPOOWDU-NSHDSACASA-N.pdb
REMARK                            x       y       z     vdW  Elec       q    Type
REMARK                         _______ _______ _______ _____ _____    ______ ____
ROOT
ATOM      1  C   LIG    1        2.306   0.301   0.151  0.00  0.00    +0.080 A 
ATOM      2  C   LIG    1        3.457   1.039   0.368  0.00  0.00    +0.045 A 
ATOM      3  C   LIG    1        4.710   0.685  -0.029  0.00  0.00    +0.106 A 
ATOM      4  C   LIG    1        4.855  -0.511  -0.707  0.00  0.00    +0.032 A 
ATOM      5  C   LIG    1        3.747  -1.297  -0.957  0.00  0.00    +0.048 A 
ATOM      6  C   LIG    1        2.484  -0.884  -0.526  0.00  0.00    +0.132 A 
ENDROOT
BRANCH   1   7
ATOM      7  C   LIG    1        1.019   0.790   0.614  0.00  0.00    +0.248 C 
ATOM      8  O   LIG    1        1.054   1.923   1.237  0.00  0.00    -0.270 OA
ATOM      9  N   LIG    1       -0.216   0.146   0.439  0.00  0.00    -0.310 N 
ATOM     10  H   LIG    1       -0.353  -0.748  -0.037  0.00  0.00    +0.149 HD
BRANCH   9  11
ATOM     11  C   LIG    1       -1.421   0.775   0.966  0.00  0.00    +0.123 C 
BRANCH  11  12
ATOM     12  C   LIG    1       -2.655  -0.067   0.668  0.00  0.00    +0.074 C 
ATOM     13  N   LIG    1       -3.786   0.601   1.203  0.00  0.00    -0.298 NA
ATOM     14  C   LIG    1       -4.588   1.147   0.153  0.00  0.00    +0.085 C 
ATOM     15  C   LIG    1       -4.029   0.737  -1.167  0.00  0.00    +0.017 C 
ATOM     16  C   LIG    1       -2.796  -0.053  -0.857  0.00  0.00    +0.022 C 
BRANCH  13  17
ATOM     17  C   LIG    1       -4.541  -0.152   2.169  0.00  0.00    +0.081 C 
ATOM     18  C   LIG    1       -5.266  -1.330   1.623  0.00  0.00    +0.020 C 
ENDBRANCH  13  17
ENDBRANCH  11  12
ENDBRANCH   9  11
ENDBRANCH   1   7
BRANCH   3  19
ATOM     19  S   LIG    1        6.099   1.714   0.299  0.00  0.00    +0.056 S 
ATOM     20  O   LIG    1        5.701   3.163   0.304  0.00  0.00    -0.153 OA
ATOM     21  O   LIG    1        7.056   1.524  -0.852  0.00  0.00    -0.153 OA
BRANCH  19  22
ATOM     22  N   LIG    1        6.849   1.352   1.794  0.00  0.00    -0.204 NA
ATOM     23  H   LIG    1        6.416   1.982   2.527  0.00  0.00    +0.144 HD
ATOM     24  H   LIG    1        7.847   1.689   1.732  0.00  0.00    +0.144 HD
ENDBRANCH  19  22
ENDBRANCH   3  19
BRANCH   6  25
ATOM     25  O   LIG    1        1.423  -1.711  -0.804  0.00  0.00    -0.494 OA
ATOM     26  C   LIG    1        1.549  -2.931  -1.490  0.00  0.00    +0.277 C 
ENDBRANCH   6  25
TORSDOF 7
