REMARK  Name = molecules/BGSOJVFOEQLVMH-VWUMJDOOSA-N.pdb
REMARK                            x       y       z     vdW  Elec       q    Type
REMARK                         _______ _______ _______ _____ _____    ______ ____
ROOT
ATOM      1  C   LIG    1       -3.795   0.978  -1.512  0.00  0.00    +0.019 C 
ATOM      2  C   LIG    1       -3.098   0.640  -0.213  0.00  0.00    -0.005 C 
ATOM      3  C   LIG    1       -3.025   1.926   0.590  0.00  0.00    +0.016 C 
ATOM      4  C   LIG    1       -3.986  -0.345   0.480  0.00  0.00    -0.060 C 
ATOM      5  C   LIG    1       -3.342  -1.530   1.094  0.00  0.00    +0.032 C 
ATOM      6  C   LIG    1       -2.004  -1.213   1.638  0.00  0.00    +0.008 C 
ATOM      7  C   LIG    1       -1.062  -0.506   0.715  0.00  0.00    -0.001 C 
ATOM      8  C   LIG    1        0.051  -1.310   0.195  0.00  0.00    +0.002 C 
ATOM      9  C   LIG    1        0.842  -2.155   1.111  0.00  0.00    +0.008 C 
ATOM     10  C   LIG    1        2.157  -2.370   0.341  0.00  0.00    +0.043 C 
ATOM     11  C   LIG    1        2.029  -1.472  -0.889  0.00  0.00    +0.132 C 
ATOM     12  C   LIG    1        1.156  -0.363  -0.324  0.00  0.00    +0.009 C 
ATOM     13  C   LIG    1        1.862   0.301   0.795  0.00  0.00    +0.015 C 
ATOM     14  C   LIG    1        0.553   0.491  -1.365  0.00  0.00    +0.041 C 
ATOM     15  C   LIG    1       -0.784   1.071  -1.081  0.00  0.00    +0.119 C 
ATOM     16  C   LIG    1       -5.277  -0.094   0.490  0.00  0.00    +0.046 C 
ATOM     17  C   LIG    1       -5.861   1.093  -0.143  0.00  0.00    +0.156 C 
ATOM     18  O   LIG    1       -6.913   1.591   0.255  0.00  0.00    -0.293 OA
ATOM     19  C   LIG    1       -1.757   0.071  -0.509  0.00  0.00    +0.031 C 
ATOM     20  C   LIG    1       -5.122   1.663  -1.284  0.00  0.00    +0.080 C 
ENDROOT
BRANCH  11  21
ATOM     21  C   LIG    1        3.277  -1.004  -1.455  0.00  0.00    +0.191 C 
ATOM     22  O   LIG    1        3.461  -1.269  -2.669  0.00  0.00    -0.292 OA
BRANCH  21  23
ATOM     23  C   LIG    1        4.373  -0.259  -0.816  0.00  0.00    +0.249 C 
BRANCH  23  24
ATOM     24  O   LIG    1        5.447  -0.066  -1.719  0.00  0.00    -0.279 OA
BRANCH  24  25
ATOM     25  P   LIG    1        6.685   0.786  -0.969  0.00  0.00    +0.473 P 
ATOM     26  O   LIG    1        7.958   0.543  -1.777  0.00  0.00    -0.228 OA
BRANCH  25  27
ATOM     27  O   LIG    1        6.897   0.281   0.639  0.00  0.00    -0.303 OA
ATOM     28  H   LIG    1        7.869   0.141   0.770  0.00  0.00    +0.222 HD
ENDBRANCH  25  27
BRANCH  25  29
ATOM     29  O   LIG    1        6.408   2.447  -0.951  0.00  0.00    -0.303 OA
ATOM     30  H   LIG    1        7.111   2.861  -0.414  0.00  0.00    +0.222 HD
ENDBRANCH  25  29
ENDBRANCH  24  25
ENDBRANCH  23  24
ENDBRANCH  21  23
ENDBRANCH  11  21
BRANCH  11  31
ATOM     31  O   LIG    1        1.299  -2.165  -1.886  0.00  0.00    -0.380 OA
ATOM     32  H   LIG    1        1.812  -2.265  -2.713  0.00  0.00    +0.211 HD
ENDBRANCH  11  31
BRANCH  15  33
ATOM     33  O   LIG    1       -0.614   2.179  -0.255  0.00  0.00    -0.391 OA
ATOM     34  H   LIG    1       -0.358   2.958  -0.788  0.00  0.00    +0.210 HD
ENDBRANCH  15  33
TORSDOF 8
