REMARK  Name = molecules/BHELIUBJHYAEDK-OAIUPTLZSA-N.pdb
REMARK                            x       y       z     vdW  Elec       q    Type
REMARK                         _______ _______ _______ _____ _____    ______ ____
ROOT
ATOM      1  CA  LIG    1       -1.489  -0.769  -0.564  0.00  0.00    +0.190 C 
ENDROOT
BRANCH   1   2
ATOM      2  C   LIG    1       -0.987  -2.174  -0.684  0.00  0.00    -0.018 A 
ATOM      3  C   LIG    1        0.196  -2.620  -0.154  0.00  0.00    +0.009 A 
ATOM      4  C   LIG    1        0.587  -3.960  -0.296  0.00  0.00    +0.046 A 
ATOM      5  C   LIG    1       -0.186  -4.880  -0.965  0.00  0.00    +0.117 A 
ATOM      6  C   LIG    1       -1.373  -4.431  -1.496  0.00  0.00    +0.046 A 
ATOM      7  C   LIG    1       -1.766  -3.123  -1.364  0.00  0.00    +0.009 A 
BRANCH   5   8
ATOM      8  O   LIG    1        0.234  -6.201  -1.086  0.00  0.00    -0.507 OA
ATOM      9  H   LIG    1       -0.008  -6.912  -0.396  0.00  0.00    +0.292 HD
ENDBRANCH   5   8
ENDBRANCH   1   2
BRANCH   1  11
ATOM     10  N   LIG    1        0.770   0.323  -0.002  0.00  0.00    -0.300 N 
ATOM     11  C   LIG    1       -0.598  -0.013   0.315  0.00  0.00    +0.239 C 
ATOM     12  O   LIG    1       -1.067   0.380   1.436  0.00  0.00    -0.273 OA
ATOM     13  H   LIG    1        1.127  -0.004  -0.926  0.00  0.00    +0.150 HD
BRANCH  10  14
ATOM     14  CA  LIG    1        1.548   1.069   0.934  0.00  0.00    +0.190 C 
ATOM     15  C   LIG    1        2.978   0.736   1.127  0.00  0.00    +0.165 C 
ATOM     16  S   LIG    1        3.588  -0.775   0.302  0.00  0.00    -0.127 S 
ATOM     17  C   LIG    1        4.989   0.082  -0.462  0.00  0.00    +0.042 C 
ATOM     18  C   LIG    1        6.152  -0.051   0.528  0.00  0.00    +0.025 C 
ATOM     19  CA  LIG    1        4.562   1.488  -0.524  0.00  0.00    +0.201 C 
ATOM     20  C   LIG    1        5.355  -0.518  -1.798  0.00  0.00    +0.025 C 
ATOM     21  N   LIG    1        3.328   1.712   0.118  0.00  0.00    -0.271 N 
ATOM     22  C   LIG    1        2.114   2.345   0.414  0.00  0.00    +0.240 C 
ATOM     23  O   LIG    1        1.603   3.503   0.322  0.00  0.00    -0.273 OA
BRANCH  19  24
ATOM     24  C   LIG    1        5.650   2.344   0.002  0.00  0.00    +0.327 C 
ATOM     25  OXT LIG    1        5.425   3.150   0.918  0.00  0.00    -0.249 OA
BRANCH  24  26
ATOM     26  O   LIG    1        6.907   2.233  -0.537  0.00  0.00    -0.479 OA
ATOM     27  H   LIG    1        7.539   3.008  -0.691  0.00  0.00    +0.295 HD
ENDBRANCH  24  26
ENDBRANCH  19  24
ENDBRANCH  10  14
ENDBRANCH   1  11
BRANCH   1  28
ATOM     28  N   LIG    1       -2.825  -0.775   0.015  0.00  0.00    -0.299 N 
ATOM     29  H   LIG    1       -2.919  -1.157   0.972  0.00  0.00    +0.150 HD
ATOM     30  C   LIG    1       -3.961  -0.297  -0.651  0.00  0.00    +0.231 C 
ATOM     31  O   LIG    1       -3.838   0.165  -1.814  0.00  0.00    -0.274 OA
BRANCH  30  32
ATOM     32  CA  LIG    1       -5.325  -0.301  -0.060  0.00  0.00    +0.146 C 
BRANCH  32  33
ATOM     33  N   LIG    1       -6.308   0.233  -0.966  0.00  0.00    -0.320 NA
ATOM     34  H1  LIG    1       -7.266  -0.148  -0.797  0.00  0.00    +0.119 HD
ATOM     35  H2  LIG    1       -6.029   0.176  -1.970  0.00  0.00    +0.119 HD
ENDBRANCH  32  33
BRANCH  32  36
ATOM     36  C   LIG    1       -5.327   0.628   1.162  0.00  0.00    +0.123 C 
BRANCH  36  37
ATOM     37  C   LIG    1       -4.963   2.005   0.753  0.00  0.00    +0.215 C 
ATOM     38  N   LIG    1       -4.898   3.031   1.718  0.00  0.00    -0.318 N 
ATOM     39  H   LIG    1       -5.107   2.810   2.714  0.00  0.00    +0.148 HD
ATOM     40  C   LIG    1       -4.543   4.396   1.346  0.00  0.00    +0.128 C 
ATOM     41  O   LIG    1       -4.710   2.275  -0.444  0.00  0.00    -0.276 OA
ENDBRANCH  36  37
ENDBRANCH  32  36
ENDBRANCH  30  32
ENDBRANCH   1  28
TORSDOF 11
