REMARK  Name = molecules/BHIAIPWSVYSKJS-SECBINFHSA-N.pdb
REMARK                            x       y       z     vdW  Elec       q    Type
REMARK                         _______ _______ _______ _____ _____    ______ ____
ROOT
ATOM      1  C   LIG    1        2.956  -1.296   0.219  0.00  0.00    +0.086 A 
ATOM      2  N   LIG    1        2.224  -0.854   1.201  0.00  0.00    -0.232 NA
ATOM      3  C   LIG    1        1.061  -1.366   1.466  0.00  0.00    +0.135 A 
ATOM      4  S   LIG    1        0.920  -2.592   0.259  0.00  0.00    -0.069 S 
ATOM      5  C   LIG    1        2.439  -2.320  -0.522  0.00  0.00    +0.076 A 
ENDROOT
BRANCH   1   8
ATOM      6  C   LIG    1        6.719   0.310   0.117  0.00  0.00    +0.074 A 
ATOM      7  S   LIG    1        5.186   0.346   0.931  0.00  0.00    -0.082 S 
ATOM      8  C   LIG    1        4.348  -0.794  -0.020  0.00  0.00    +0.039 A 
ATOM      9  C   LIG    1        5.261  -1.166  -0.938  0.00  0.00    +0.018 A 
ATOM     10  C   LIG    1        6.484  -0.599  -0.868  0.00  0.00    +0.021 A 
BRANCH   6  11
ATOM     11  C   LIG    1        7.902   1.063   0.472  0.00  0.00    +0.248 C 
ATOM     12  O   LIG    1        7.817   2.011   1.318  0.00  0.00    -0.270 OA
ATOM     13  N   LIG    1        9.184   0.819  -0.053  0.00  0.00    -0.325 N 
ATOM     14  H   LIG    1        9.989   1.501   0.030  0.00  0.00    +0.145 HD
ATOM     15  H   LIG    1        9.419  -0.076  -0.550  0.00  0.00    +0.145 HD
ENDBRANCH   6  11
ENDBRANCH   1   8
BRANCH   3  16
ATOM     16  S   LIG    1       -0.142  -0.780   2.694  0.00  0.00    -0.096 S 
BRANCH  16  17
ATOM     17  C   LIG    1       -1.572  -0.108   1.889  0.00  0.00    +0.109 C 
BRANCH  17  18
ATOM     18  C   LIG    1       -1.406   0.763   0.724  0.00  0.00    +0.138 C 
BRANCH  18  19
ATOM     19  O   LIG    1       -0.654   1.871   0.857  0.00  0.00    -0.390 OA
ATOM     20  H   LIG    1       -0.521   2.254  -0.071  0.00  0.00    +0.210 HD
ENDBRANCH  18  19
BRANCH  18  21
ATOM     21  C   LIG    1       -2.832   1.175   0.250  0.00  0.00    +0.113 C 
BRANCH  21  22
ATOM     22  N   LIG    1       -3.640  -0.027   0.191  0.00  0.00    -0.309 NA
ATOM     23  H   LIG    1       -3.903  -0.206   1.222  0.00  0.00    +0.123 HD
BRANCH  22  24
ATOM     24  C   LIG    1       -4.921   0.145  -0.449  0.00  0.00    +0.011 C 
ATOM     25  C   LIG    1       -6.013  -0.543   0.349  0.00  0.00    +0.027 C 
ATOM     26  C   LIG    1       -5.305   1.587  -0.609  0.00  0.00    +0.027 C 
ATOM     27  C   LIG    1       -4.931  -0.486  -1.833  0.00  0.00    +0.027 C 
ENDBRANCH  22  24
ENDBRANCH  21  22
ENDBRANCH  18  21
ENDBRANCH  17  18
ENDBRANCH  16  17
ENDBRANCH   3  16
TORSDOF 9
