REMARK  Name = molecules/BHQCQFFYRZLCQQ-OELDTZBJSA-N.pdb
REMARK                            x       y       z     vdW  Elec       q    Type
REMARK                         _______ _______ _______ _____ _____    ______ ____
ROOT
ATOM      1  C   LIG    1       -1.356   2.224   0.688  0.00  0.00    +0.118 C 
ATOM      2  C   LIG    1       -2.757   2.377   0.209  0.00  0.00    +0.035 C 
ATOM      3  C   LIG    1       -3.493   1.171  -0.194  0.00  0.00    +0.000 C 
ATOM      4  C   LIG    1       -4.765   1.089   0.669  0.00  0.00    +0.035 C 
ATOM      5  C   LIG    1       -5.667  -0.013   0.152  0.00  0.00    +0.115 C 
ATOM      6  C   LIG    1       -4.941  -1.312   0.339  0.00  0.00    +0.032 C 
ATOM      7  C   LIG    1       -3.497  -1.081   0.750  0.00  0.00    +0.010 C 
ATOM      8  C   LIG    1       -2.794  -0.131  -0.199  0.00  0.00    -0.026 C 
ATOM      9  C   LIG    1       -1.348  -0.100   0.178  0.00  0.00    +0.003 C 
ATOM     10  C   LIG    1       -0.574  -1.289  -0.317  0.00  0.00    +0.036 C 
ATOM     11  C   LIG    1        0.868  -1.190   0.207  0.00  0.00    +0.121 C 
ATOM     12  C   LIG    1        1.518  -0.021  -0.470  0.00  0.00    +0.000 C 
ATOM     13  C   LIG    1        0.733   1.168   0.119  0.00  0.00    +0.003 C 
ATOM     14  C   LIG    1        1.514   2.363  -0.232  0.00  0.00    +0.005 C 
ATOM     15  C   LIG    1        2.911   1.868  -0.354  0.00  0.00    +0.005 C 
ATOM     16  C   LIG    1        2.872   0.345  -0.083  0.00  0.00    +0.001 C 
ATOM     17  C   LIG    1        1.256  -0.067  -1.957  0.00  0.00    +0.014 C 
ATOM     18  C   LIG    1       -2.858  -0.808  -1.579  0.00  0.00    +0.012 C 
ATOM     19  C   LIG    1       -0.698   1.179  -0.230  0.00  0.00    +0.025 C 
ENDROOT
BRANCH   1  20
ATOM     20  O   LIG    1       -1.249   1.832   2.020  0.00  0.00    -0.391 OA
ATOM     21  H   LIG    1       -2.057   2.098   2.542  0.00  0.00    +0.210 HD
ENDBRANCH   1  20
BRANCH   5  22
ATOM     22  O   LIG    1       -6.866   0.053   0.837  0.00  0.00    -0.392 OA
ATOM     23  H   LIG    1       -7.190  -0.831   1.142  0.00  0.00    +0.210 HD
ENDBRANCH   5  22
BRANCH  11  24
ATOM     24  O   LIG    1        0.747  -0.938   1.588  0.00  0.00    -0.391 OA
ATOM     25  H   LIG    1        0.629  -1.819   2.055  0.00  0.00    +0.210 HD
ENDBRANCH  11  24
BRANCH  16  26
ATOM     26  C   LIG    1        4.078  -0.256  -0.589  0.00  0.00    -0.010 C 
ATOM     27  C   LIG    1        4.447  -0.059  -2.032  0.00  0.00    +0.008 C 
BRANCH  26  28
ATOM     28  C   LIG    1        4.214  -1.733  -0.325  0.00  0.00    +0.014 C 
BRANCH  28  29
ATOM     29  C   LIG    1        4.225  -2.112   1.124  0.00  0.00    +0.121 C 
BRANCH  29  30
ATOM     30  C   LIG    1        5.373  -1.479   1.857  0.00  0.00    +0.305 C 
ATOM     31  O   LIG    1        5.402  -0.272   2.190  0.00  0.00    -0.251 OA
BRANCH  30  32
ATOM     32  O   LIG    1        6.464  -2.260   2.189  0.00  0.00    -0.481 OA
ATOM     33  H   LIG    1        7.428  -1.964   2.116  0.00  0.00    +0.295 HD
ENDBRANCH  30  32
ENDBRANCH  29  30
ENDBRANCH  28  29
ENDBRANCH  26  28
ENDBRANCH  16  26
TORSDOF 8
