REMARK  Name = molecules/BICRTLVBTLFLRD-PTWUADNWSA-N.pdb
REMARK                            x       y       z     vdW  Elec       q    Type
REMARK                         _______ _______ _______ _____ _____    ______ ____
ROOT
ATOM      1  C   LIG    1        3.599   2.841   0.075  0.00  0.00    +0.190 C 
ATOM      2  N   LIG    1        3.595   1.511   0.766  0.00  0.00    -0.289 N 
ATOM      3  C   LIG    1        2.315   1.317   1.505  0.00  0.00    +0.133 C 
ATOM      4  C   LIG    1        4.557   0.546   0.888  0.00  0.00    +0.237 C 
ATOM      5  O   LIG    1        4.744   0.381   2.267  0.00  0.00    -0.274 OA
ATOM      6  C   LIG    1        5.465  -0.366   0.242  0.00  0.00    +0.164 C 
ATOM      7  N   LIG    1        4.802  -1.125  -0.871  0.00  0.00    -0.291 N 
ATOM      8  C   LIG    1        5.067  -2.484  -1.085  0.00  0.00    +0.236 C 
ATOM      9  C   LIG    1        5.522  -3.514  -0.139  0.00  0.00    +0.162 C 
ATOM     10  N   LIG    1        4.589  -3.840   0.900  0.00  0.00    -0.291 N 
ATOM     11  C   LIG    1        5.293  -3.744   2.274  0.00  0.00    +0.133 C 
ATOM     12  C   LIG    1        3.265  -4.156   1.058  0.00  0.00    +0.236 C 
ATOM     13  O   LIG    1        2.652  -3.035   1.676  0.00  0.00    -0.274 OA
ATOM     14  C   LIG    1        2.170  -5.082   0.902  0.00  0.00    +0.162 C 
ATOM     15  N   LIG    1        1.014  -4.318   0.250  0.00  0.00    -0.291 N 
ATOM     16  C   LIG    1       -0.324  -4.550   0.524  0.00  0.00    +0.236 C 
ATOM     17  O   LIG    1       -1.075  -3.474   0.691  0.00  0.00    -0.274 OA
ATOM     18  C   LIG    1       -1.083  -5.803   0.683  0.00  0.00    +0.156 C 
ATOM     19  C   LIG    1       -1.017  -6.344   2.100  0.00  0.00    +0.038 C 
ATOM     20  N   LIG    1       -2.436  -5.753   0.133  0.00  0.00    -0.303 N 
ATOM     21  C   LIG    1       -3.675  -5.705   0.711  0.00  0.00    +0.234 C 
ATOM     22  C   LIG    1       -4.380  -4.633   1.466  0.00  0.00    +0.156 C 
ATOM     23  C   LIG    1       -4.172  -4.875   2.978  0.00  0.00    +0.038 C 
ATOM     24  N   LIG    1       -5.801  -4.702   1.240  0.00  0.00    -0.303 N 
ATOM     25  H   LIG    1       -6.102  -5.753   1.200  0.00  0.00    +0.149 HD
ATOM     26  C   LIG    1       -6.791  -3.748   1.101  0.00  0.00    +0.234 C 
ATOM     27  O   LIG    1       -7.664  -3.742   2.063  0.00  0.00    -0.274 OA
ATOM     28  C   LIG    1       -7.052  -2.725   0.066  0.00  0.00    +0.162 C 
ATOM     29  N   LIG    1       -7.565  -1.548   0.746  0.00  0.00    -0.291 N 
ATOM     30  C   LIG    1       -8.903  -1.834   1.398  0.00  0.00    +0.133 C 
ATOM     31  C   LIG    1       -7.142  -0.269   0.860  0.00  0.00    +0.237 C 
ATOM     32  O   LIG    1       -8.128   0.638   0.999  0.00  0.00    -0.274 OA
ATOM     33  C   LIG    1       -5.842   0.452   0.880  0.00  0.00    +0.162 C 
ATOM     34  N   LIG    1       -5.748   1.141  -0.376  0.00  0.00    -0.302 N 
ATOM     35  C   LIG    1       -5.223   2.374  -0.780  0.00  0.00    +0.234 C 
ATOM     36  C   LIG    1       -5.633   3.743  -0.499  0.00  0.00    +0.162 C 
ATOM     37  N   LIG    1       -4.773   4.626   0.212  0.00  0.00    -0.292 N 
ATOM     38  C   LIG    1       -5.365   5.408   1.333  0.00  0.00    +0.133 C 
ATOM     39  C   LIG    1       -3.409   4.891  -0.005  0.00  0.00    +0.233 C 
ATOM     40  C   LIG    1       -2.269   3.933  -0.126  0.00  0.00    +0.203 C 
ATOM     41  N   LIG    1       -1.200   4.457   0.759  0.00  0.00    -0.294 N 
ATOM     42  C   LIG    1       -1.730   4.876   2.082  0.00  0.00    +0.132 C 
ATOM     43  C   LIG    1        0.140   4.575   0.541  0.00  0.00    +0.236 C 
ATOM     44  O   LIG    1        0.897   4.164   1.503  0.00  0.00    -0.274 OA
ATOM     45  C   LIG    1        0.909   5.112  -0.602  0.00  0.00    +0.159 C 
ATOM     46  N   LIG    1        1.677   4.087  -1.235  0.00  0.00    -0.302 N 
ATOM     47  H   LIG    1        1.606   4.138  -2.329  0.00  0.00    +0.150 HD
ATOM     48  O   LIG    1       -3.007   6.122  -0.130  0.00  0.00    -0.274 OA
ATOM     49  O   LIG    1       -4.178   2.308  -1.555  0.00  0.00    -0.274 OA
ATOM     50  H   LIG    1       -6.158   0.499  -1.183  0.00  0.00    +0.150 HD
ATOM     51  O   LIG    1       -4.389  -6.798   0.605  0.00  0.00    -0.274 OA
ATOM     52  H   LIG    1       -2.419  -5.783  -0.953  0.00  0.00    +0.149 HD
ATOM     53  C   LIG    1        1.394  -3.314  -0.711  0.00  0.00    +0.133 C 
ATOM     54  O   LIG    1        4.902  -2.950  -2.320  0.00  0.00    -0.274 OA
ATOM     55  C   LIG    1        3.904  -0.504  -1.822  0.00  0.00    +0.133 C 
ATOM     56  C   LIG    1        2.443   3.086  -0.739  0.00  0.00    +0.237 C 
ATOM     57  O   LIG    1        1.942   1.846  -1.148  0.00  0.00    -0.274 OA
ENDROOT
BRANCH   6  58
ATOM     58  C   LIG    1        6.844  -0.088  -0.177  0.00  0.00    +0.012 C 
ATOM     59  C   LIG    1        7.543   0.510   1.091  0.00  0.00    +0.009 C 
ATOM     60  C   LIG    1        7.253   0.810  -1.248  0.00  0.00    +0.009 C 
ENDBRANCH   6  58
BRANCH  33  61
ATOM     61  C   LIG    1       -5.679   1.264   2.119  0.00  0.00    +0.012 C 
ATOM     62  C   LIG    1       -5.690   0.239   3.279  0.00  0.00    +0.009 C 
ATOM     63  C   LIG    1       -6.787   2.204   2.486  0.00  0.00    +0.009 C 
ENDBRANCH  33  61
BRANCH  45  64
ATOM     64  C   LIG    1        0.135   5.986  -1.550  0.00  0.00    +0.028 C 
ATOM     65  C   LIG    1        1.162   6.702  -2.460  0.00  0.00    +0.006 C 
ENDBRANCH  45  64
BRANCH  28  66
ATOM     66  C   LIG    1       -6.045  -2.475  -0.978  0.00  0.00    +0.035 C 
BRANCH  66  67
ATOM     67  C   LIG    1       -5.642  -3.727  -1.736  0.00  0.00    -0.015 C 
ATOM     68  C   LIG    1       -6.884  -4.047  -2.609  0.00  0.00    +0.007 C 
ATOM     69  C   LIG    1       -4.602  -3.285  -2.777  0.00  0.00    +0.007 C 
ENDBRANCH  66  67
ENDBRANCH  28  66
BRANCH  14  70
ATOM     70  C   LIG    1        2.178  -6.388   0.245  0.00  0.00    +0.035 C 
BRANCH  70  71
ATOM     71  C   LIG    1        2.254  -6.534  -1.220  0.00  0.00    -0.015 C 
ATOM     72  C   LIG    1        2.294  -8.007  -1.643  0.00  0.00    +0.007 C 
ATOM     73  C   LIG    1        3.463  -5.933  -1.859  0.00  0.00    +0.007 C 
ENDBRANCH  70  71
ENDBRANCH  14  70
BRANCH  36  74
ATOM     74  C   LIG    1       -6.123   4.341  -1.851  0.00  0.00    +0.035 C 
BRANCH  74  75
ATOM     75  C   LIG    1       -7.000   5.527  -1.737  0.00  0.00    -0.015 C 
ATOM     76  C   LIG    1       -8.264   5.236  -0.925  0.00  0.00    +0.007 C 
ATOM     77  C   LIG    1       -6.416   6.804  -1.307  0.00  0.00    +0.007 C 
ENDBRANCH  74  75
ENDBRANCH  36  74
BRANCH   9  78
ATOM     78  C   LIG    1        6.251  -4.552  -0.874  0.00  0.00    +0.035 C 
BRANCH  78  79
ATOM     79  C   LIG    1        6.885  -5.686  -0.168  0.00  0.00    -0.015 C 
ATOM     80  C   LIG    1        7.958  -5.141   0.779  0.00  0.00    +0.007 C 
ATOM     81  C   LIG    1        5.968  -6.598   0.602  0.00  0.00    +0.007 C 
ENDBRANCH  78  79
ENDBRANCH   9  78
BRANCH   1  82
ATOM     82  C   LIG    1        4.990   3.133  -0.372  0.00  0.00    +0.147 C 
BRANCH  82  83
ATOM     83  C   LIG    1        5.265   4.391  -1.025  0.00  0.00    +0.017 C 
ATOM     84  C   LIG    1        6.798   4.558  -1.130  0.00  0.00    +0.010 C 
BRANCH  83  85
ATOM     85  C   LIG    1        4.766   5.686  -0.364  0.00  0.00    +0.010 C 
BRANCH  85  86
ATOM     86  C   LIG    1        5.215   6.854  -1.165  0.00  0.00    +0.000 C 
BRANCH  86  87
ATOM     87  C   LIG    1        5.721   7.956  -0.695  0.00  0.00    +0.022 C 
BRANCH  87  88
ATOM     88  C   LIG    1        6.254   9.113  -0.193  0.00  0.00    -0.030 C 
ATOM     89  C   LIG    1        6.534  10.177  -0.997  0.00  0.00    +0.004 C 
ENDBRANCH  87  88
ENDBRANCH  86  87
ENDBRANCH  85  86
ENDBRANCH  83  85
ENDBRANCH  82  83
BRANCH  82  90
ATOM     90  O   LIG    1        5.715   3.163   0.883  0.00  0.00    -0.389 OA
ATOM     91  H   LIG    1        5.123   2.983   1.641  0.00  0.00    +0.210 HD
ENDBRANCH  82  90
ENDBRANCH   1  82
TORSDOF 18
