REMARK  Name = molecules/BIDUPMYXGFNAEJ-APGVDKLISA-N.pdb
REMARK                            x       y       z     vdW  Elec       q    Type
REMARK                         _______ _______ _______ _____ _____    ______ ____
ROOT
ATOM      1  C   LIG    1       -2.645  -0.041  -0.263  0.00  0.00    +0.138 C 
ATOM      2  C   LIG    1       -2.893   1.446  -0.102  0.00  0.00    +0.171 C 
ATOM      3  C   LIG    1       -1.935   1.926   0.997  0.00  0.00    +0.164 C 
ATOM      4  C   LIG    1       -0.790   0.976   1.199  0.00  0.00    +0.114 C 
ATOM      5  C   LIG    1       -0.265   0.480  -0.109  0.00  0.00    +0.171 C 
ATOM      6  C   LIG    1       -1.306  -0.188  -0.967  0.00  0.00    +0.168 C 
ENDROOT
BRANCH   1   7
ATOM      7  N   LIG    1       -3.699  -0.724  -0.938  0.00  0.00    -0.295 N 
ATOM      8  C   LIG    1       -4.506  -1.756  -0.462  0.00  0.00    +0.229 C 
ATOM      9  O   LIG    1       -5.399  -2.228  -1.279  0.00  0.00    -0.274 OA
ATOM     10  C   LIG    1       -4.014  -0.322  -2.352  0.00  0.00    +0.132 C 
BRANCH   8  11
ATOM     11  C   LIG    1       -4.489  -2.398   0.856  0.00  0.00    +0.174 C 
BRANCH  11  12
ATOM     12  N   LIG    1       -3.557  -1.957   1.817  0.00  0.00    -0.322 NA
ATOM     13  H   LIG    1       -3.953  -1.281   2.487  0.00  0.00    +0.119 HD
ATOM     14  H   LIG    1       -2.961  -2.684   2.249  0.00  0.00    +0.119 HD
ENDBRANCH  11  12
ENDBRANCH   8  11
ENDBRANCH   1   7
BRANCH   4  15
ATOM     15  N   LIG    1        0.312   1.751   1.801  0.00  0.00    -0.323 NA
ATOM     16  H   LIG    1       -0.078   2.397   2.541  0.00  0.00    +0.119 HD
ATOM     17  H   LIG    1        0.929   1.076   2.301  0.00  0.00    +0.119 HD
ENDBRANCH   4  15
BRANCH   3  18
ATOM     18  O   LIG    1       -2.725   2.034   2.155  0.00  0.00    -0.388 OA
ATOM     19  H   LIG    1       -3.228   1.186   2.210  0.00  0.00    +0.210 HD
ENDBRANCH   3  18
BRANCH   2  20
ATOM     20  O   LIG    1       -4.202   1.755   0.235  0.00  0.00    -0.375 OA
ATOM     21  C   LIG    1       -4.764   2.688  -0.622  0.00  0.00    +0.194 C 
ENDBRANCH   2  20
BRANCH   6  22
ATOM     22  O   LIG    1       -1.296   0.425  -2.213  0.00  0.00    -0.387 OA
ATOM     23  H   LIG    1       -0.815  -0.099  -2.892  0.00  0.00    +0.210 HD
ENDBRANCH   6  22
BRANCH   5  24
ATOM     24  O   LIG    1        0.803  -0.394   0.058  0.00  0.00    -0.342 OA
BRANCH  24  25
ATOM     25  C   LIG    1        2.002   0.091  -0.460  0.00  0.00    +0.268 C 
ATOM     26  O   LIG    1        2.886   0.249   0.564  0.00  0.00    -0.345 OA
ATOM     27  C   LIG    1        4.110  -0.354   0.399  0.00  0.00    +0.138 C 
ATOM     28  C   LIG    1        4.672   0.087  -0.938  0.00  0.00    +0.035 C 
ATOM     29  C   LIG    1        3.858  -0.643  -1.987  0.00  0.00    +0.026 C 
ATOM     30  C   LIG    1        2.425  -0.823  -1.561  0.00  0.00    +0.107 C 
BRANCH  30  31
ATOM     31  N   LIG    1        2.158  -2.208  -1.216  0.00  0.00    -0.323 NA
ATOM     32  H   LIG    1        1.159  -2.473  -1.379  0.00  0.00    +0.119 HD
ATOM     33  H   LIG    1        2.720  -2.791  -1.884  0.00  0.00    +0.119 HD
ENDBRANCH  30  31
BRANCH  27  34
ATOM     34  C   LIG    1        5.045   0.237   1.462  0.00  0.00    +0.077 C 
ATOM     35  C   LIG    1        6.410  -0.410   1.386  0.00  0.00    +0.026 C 
BRANCH  34  36
ATOM     36  N   LIG    1        4.484  -0.054   2.764  0.00  0.00    -0.325 NA
ATOM     37  H   LIG    1        4.530   0.830   3.340  0.00  0.00    +0.119 HD
ATOM     38  H   LIG    1        5.059  -0.770   3.271  0.00  0.00    +0.119 HD
ENDBRANCH  34  36
ENDBRANCH  27  34
ENDBRANCH  24  25
ENDBRANCH   5  24
TORSDOF 12
