REMARK  Name = molecules/BJDCWCLMFKKGEE-ISOSDAIHSA-N.pdb
REMARK                            x       y       z     vdW  Elec       q    Type
REMARK                         _______ _______ _______ _____ _____    ______ ____
ROOT
ATOM      1  C   LIG    1        3.306  -0.886   0.761  0.00  0.00    +0.013 C 
ATOM      2  C   LIG    1        2.238  -0.930  -0.329  0.00  0.00    +0.048 C 
ATOM      3  C   LIG    1        1.471  -2.187  -0.190  0.00  0.00    +0.253 C 
ATOM      4  O   LIG    1        0.351  -2.159   0.563  0.00  0.00    -0.320 OA
ATOM      5  C   LIG    1       -0.260  -0.958   0.801  0.00  0.00    +0.292 C 
ATOM      6  O   LIG    1       -1.636  -1.265   0.931  0.00  0.00    -0.314 OA
ATOM      7  C   LIG    1       -2.160  -1.454  -0.323  0.00  0.00    +0.203 C 
ATOM      8  C   LIG    1       -3.122  -2.632  -0.243  0.00  0.00    +0.077 C 
ATOM      9  C   LIG    1       -2.978  -0.213  -0.689  0.00  0.00    +0.068 C 
ATOM     10  C   LIG    1       -2.342   0.937   0.032  0.00  0.00    +0.012 C 
ATOM     11  C   LIG    1       -0.927   1.146  -0.433  0.00  0.00    +0.032 C 
ATOM     12  C   LIG    1       -0.397   2.374   0.247  0.00  0.00    -0.008 C 
ATOM     13  C   LIG    1        0.701   2.122   1.218  0.00  0.00    +0.004 C 
ATOM     14  C   LIG    1        1.781   1.225   0.737  0.00  0.00    +0.007 C 
ATOM     15  C   LIG    1        0.117   3.414  -0.756  0.00  0.00    +0.008 C 
ATOM     16  O   LIG    1       -1.279  -1.693  -1.325  0.00  0.00    -0.199 OA
ATOM     17  O   LIG    1       -0.336  -0.833  -1.504  0.00  0.00    -0.220 OA
ATOM     18  C   LIG    1       -0.071  -0.054  -0.357  0.00  0.00    +0.161 C 
ATOM     19  C   LIG    1        1.411   0.317  -0.376  0.00  0.00    +0.037 C 
ENDROOT
BRANCH   3  20
ATOM     20  O   LIG    1        2.336  -3.144   0.405  0.00  0.00    -0.367 OA
ATOM     21  H   LIG    1        2.942  -3.536  -0.279  0.00  0.00    +0.212 HD
ENDBRANCH   3  20
TORSDOF 1
