REMARK  Name = molecules/BJFIDCADFRDPIO-DZCXQCEKSA-N.pdb
REMARK                            x       y       z     vdW  Elec       q    Type
REMARK                         _______ _______ _______ _____ _____    ______ ____
ROOT
ATOM      1  C   LIG    1       -2.269   2.590   2.862  0.00  0.00    +0.148 C 
ATOM      2  C   LIG    1       -3.534   2.265   3.564  0.00  0.00    +0.231 C 
ATOM      3  O   LIG    1       -3.760   3.068   4.572  0.00  0.00    -0.274 OA
ATOM      4  N   LIG    1       -4.484   1.300   3.359  0.00  0.00    -0.302 N 
ATOM      5  H   LIG    1       -4.519   0.542   4.167  0.00  0.00    +0.150 HD
ATOM      6  C   LIG    1       -5.474   0.983   2.356  0.00  0.00    +0.163 C 
ATOM      7  C   LIG    1       -4.972  -0.049   1.429  0.00  0.00    +0.234 C 
ATOM      8  O   LIG    1       -3.741  -0.399   1.676  0.00  0.00    -0.274 OA
ATOM      9  N   LIG    1       -5.519  -0.730   0.363  0.00  0.00    -0.302 N 
ATOM     10  H   LIG    1       -5.777  -1.808   0.536  0.00  0.00    +0.150 HD
ATOM     11  C   LIG    1       -5.848  -0.439  -1.006  0.00  0.00    +0.163 C 
ATOM     12  C   LIG    1       -5.229   0.777  -1.572  0.00  0.00    +0.234 C 
ATOM     13  O   LIG    1       -5.885   1.853  -1.498  0.00  0.00    -0.274 OA
ATOM     14  N   LIG    1       -3.963   0.805  -2.180  0.00  0.00    -0.302 N 
ATOM     15  H   LIG    1       -3.478   1.720  -2.235  0.00  0.00    +0.150 HD
ATOM     16  C   LIG    1       -3.302  -0.414  -2.742  0.00  0.00    +0.159 C 
ATOM     17  C   LIG    1       -1.901   0.011  -2.997  0.00  0.00    +0.234 C 
ATOM     18  N   LIG    1       -0.690  -0.651  -2.863  0.00  0.00    -0.302 N 
ATOM     19  C   LIG    1       -0.414  -1.981  -2.419  0.00  0.00    +0.168 C 
ATOM     20  C   LIG    1        0.565  -2.115  -1.310  0.00  0.00    +0.234 C 
ATOM     21  N   LIG    1        1.012  -1.170  -0.389  0.00  0.00    -0.302 N 
ATOM     22  H   LIG    1        0.660  -1.335   0.658  0.00  0.00    +0.150 HD
ATOM     23  C   LIG    1        1.839  -0.007  -0.440  0.00  0.00    +0.170 C 
ATOM     24  C   LIG    1        1.564   0.937   0.719  0.00  0.00    +0.112 C 
ATOM     25  S   LIG    1       -0.109   0.482   1.327  0.00  0.00    -0.091 S 
ATOM     26  S   LIG    1       -1.576   1.649   0.339  0.00  0.00    -0.091 S 
ATOM     27  O   LIG    1        1.082  -3.286  -1.169  0.00  0.00    -0.274 OA
ATOM     28  H   LIG    1        0.209  -0.122  -3.157  0.00  0.00    +0.150 HD
ATOM     29  O   LIG    1       -1.782   1.240  -3.420  0.00  0.00    -0.274 OA
ATOM     30  C   LIG    1       -2.347   2.868   1.411  0.00  0.00    +0.109 C 
ENDROOT
BRANCH  23  31
ATOM     31  C   LIG    1        3.258  -0.163  -0.789  0.00  0.00    +0.237 C 
ATOM     32  N   LIG    1        4.309   0.706  -0.679  0.00  0.00    -0.288 N 
ATOM     33  C   LIG    1        4.386   1.962   0.025  0.00  0.00    +0.109 C 
ATOM     34  C   LIG    1        5.214   2.876  -0.868  0.00  0.00    +0.021 C 
ATOM     35  C   LIG    1        5.723   1.988  -1.978  0.00  0.00    +0.033 C 
ATOM     36  C   LIG    1        5.617   0.602  -1.319  0.00  0.00    +0.162 C 
ATOM     37  O   LIG    1        3.569  -1.327  -1.296  0.00  0.00    -0.274 OA
BRANCH  36  38
ATOM     38  C   LIG    1        6.710   0.537  -0.334  0.00  0.00    +0.234 C 
ATOM     39  N   LIG    1        6.787  -0.047   0.907  0.00  0.00    -0.302 N 
ATOM     40  H   LIG    1        6.033  -0.623   1.306  0.00  0.00    +0.150 HD
ATOM     41  O   LIG    1        7.778   1.167  -0.748  0.00  0.00    -0.274 OA
BRANCH  39  42
ATOM     42  C   LIG    1        7.992   0.121   1.765  0.00  0.00    +0.159 C 
BRANCH  42  43
ATOM     43  C   LIG    1        8.997   0.959   1.146  0.00  0.00    +0.234 C 
ATOM     44  N   LIG    1        8.816   2.418   1.321  0.00  0.00    -0.305 N 
ATOM     45  H   LIG    1        8.001   2.788   1.837  0.00  0.00    +0.149 HD
ATOM     46  O   LIG    1        9.943   0.596   0.478  0.00  0.00    -0.274 OA
BRANCH  44  47
ATOM     47  C   LIG    1        9.757   3.327   0.751  0.00  0.00    +0.199 C 
BRANCH  47  48
ATOM     48  C   LIG    1       11.002   3.378   1.579  0.00  0.00    +0.228 C 
ATOM     49  N   LIG    1       10.957   2.552   2.775  0.00  0.00    -0.328 N 
ATOM     50  H   LIG    1       10.237   2.752   3.508  0.00  0.00    +0.145 HD
ATOM     51  H   LIG    1       11.645   1.785   2.867  0.00  0.00    +0.145 HD
ATOM     52  O   LIG    1       11.983   4.053   1.300  0.00  0.00    -0.274 OA
ENDBRANCH  47  48
ENDBRANCH  44  47
ENDBRANCH  42  43
BRANCH  42  53
ATOM     53  C   LIG    1        8.390  -1.069   2.484  0.00  0.00    +0.032 C 
BRANCH  53  54
ATOM     54  C   LIG    1        8.677  -2.337   1.794  0.00  0.00    +0.003 C 
BRANCH  54  55
ATOM     55  C   LIG    1        9.764  -2.475   0.812  0.00  0.00    +0.015 C 
BRANCH  55  56
ATOM     56  C   LIG    1        9.799  -3.959   0.341  0.00  0.00    +0.077 C 
BRANCH  56  57
ATOM     57  N   LIG    1        8.599  -4.366  -0.294  0.00  0.00    -0.330 NA
ATOM     58  H   LIG    1        8.492  -5.407  -0.352  0.00  0.00    +0.118 HD
ATOM     59  H   LIG    1        8.302  -3.854  -1.134  0.00  0.00    +0.118 HD
ENDBRANCH  56  57
ENDBRANCH  55  56
ENDBRANCH  54  55
ENDBRANCH  53  54
ENDBRANCH  42  53
ENDBRANCH  39  42
ENDBRANCH  36  38
ENDBRANCH  23  31
BRANCH   1  60
ATOM     60  N   LIG    1       -1.216   1.600   3.100  0.00  0.00    -0.319 NA
ATOM     61  H   LIG    1       -0.701   1.841   3.982  0.00  0.00    +0.119 HD
ATOM     62  H   LIG    1       -1.673   0.685   3.313  0.00  0.00    +0.119 HD
ENDBRANCH   1  60
BRANCH  11  63
ATOM     63  C   LIG    1       -7.367  -0.435  -1.256  0.00  0.00    +0.067 C 
BRANCH  63  64
ATOM     64  C   LIG    1       -7.842  -1.782  -0.817  0.00  0.00    -0.045 A 
ATOM     65  C   LIG    1       -8.335  -1.927   0.491  0.00  0.00    +0.004 A 
ATOM     66  C   LIG    1       -8.760  -3.143   0.960  0.00  0.00    +0.000 A 
ATOM     67  C   LIG    1       -8.710  -4.248   0.153  0.00  0.00    +0.000 A 
ATOM     68  C   LIG    1       -8.230  -4.159  -1.162  0.00  0.00    +0.000 A 
ATOM     69  C   LIG    1       -7.809  -2.911  -1.601  0.00  0.00    +0.004 A 
ENDBRANCH  63  64
ENDBRANCH  11  63
BRANCH  19  70
ATOM     70  C   LIG    1        0.303  -2.636  -3.635  0.00  0.00    +0.127 C 
BRANCH  70  71
ATOM     71  C   LIG    1        0.633  -4.036  -3.395  0.00  0.00    +0.213 C 
ATOM     72  N   LIG    1       -0.423  -4.921  -3.078  0.00  0.00    -0.329 N 
ATOM     73  H   LIG    1       -0.732  -5.005  -2.081  0.00  0.00    +0.145 HD
ATOM     74  H   LIG    1       -0.894  -5.462  -3.822  0.00  0.00    +0.145 HD
ATOM     75  O   LIG    1        1.798  -4.451  -3.467  0.00  0.00    -0.276 OA
ENDBRANCH  70  71
ENDBRANCH  19  70
BRANCH   6  76
ATOM     76  C   LIG    1       -6.232   2.121   1.756  0.00  0.00    +0.067 C 
BRANCH  76  77
ATOM     77  C   LIG    1       -6.953   2.817   2.895  0.00  0.00    -0.045 A 
ATOM     78  C   LIG    1       -6.546   3.995   3.405  0.00  0.00    +0.007 A 
ATOM     79  C   LIG    1       -7.269   4.599   4.409  0.00  0.00    +0.045 A 
ATOM     80  C   LIG    1       -8.447   3.987   4.906  0.00  0.00    +0.117 A 
ATOM     81  C   LIG    1       -8.863   2.784   4.382  0.00  0.00    +0.045 A 
ATOM     82  C   LIG    1       -8.087   2.215   3.369  0.00  0.00    +0.007 A 
BRANCH  80  83
ATOM     83  O   LIG    1       -9.187   4.585   5.909  0.00  0.00    -0.507 OA
ATOM     84  H   LIG    1       -8.989   4.384   6.876  0.00  0.00    +0.292 HD
ENDBRANCH  80  83
ENDBRANCH  76  77
ENDBRANCH   6  76
BRANCH  16  85
ATOM     85  C   LIG    1       -4.000  -0.697  -4.084  0.00  0.00    +0.041 C 
BRANCH  85  86
ATOM     86  C   LIG    1       -3.528  -1.942  -4.749  0.00  0.00    +0.098 C 
BRANCH  86  87
ATOM     87  C   LIG    1       -4.194  -2.139  -6.045  0.00  0.00    +0.211 C 
ATOM     88  O   LIG    1       -4.207  -3.293  -6.619  0.00  0.00    -0.276 OA
ATOM     89  N   LIG    1       -4.851  -1.073  -6.706  0.00  0.00    -0.329 N 
ATOM     90  H   LIG    1       -5.906  -0.962  -6.620  0.00  0.00    +0.145 HD
ATOM     91  H   LIG    1       -4.350  -0.382  -7.295  0.00  0.00    +0.145 HD
ENDBRANCH  86  87
ENDBRANCH  85  86
ENDBRANCH  16  85
TORSDOF 22
