REMARK  Name = molecules/BJJXHLWLUDYTGC-ANULTFPQSA-N.pdb
REMARK                            x       y       z     vdW  Elec       q    Type
REMARK                         _______ _______ _______ _____ _____    ______ ____
ROOT
ATOM      1  C   LIG    1       -1.812  -0.036   0.452  0.00  0.00    +0.032 C 
ATOM      2  C   LIG    1       -0.992  -0.823   1.365  0.00  0.00    -0.016 C 
ATOM      3  C   LIG    1        0.354  -0.829   1.331  0.00  0.00    +0.000 C 
ATOM      4  C   LIG    1        1.081  -0.021   0.346  0.00  0.00    -0.041 C 
ATOM      5  C   LIG    1        2.368  -0.208   0.197  0.00  0.00    -0.040 C 
ATOM      6  C   LIG    1        3.116  -1.230   1.016  0.00  0.00    +0.043 C 
ATOM      7  C   LIG    1        4.582  -1.078   0.869  0.00  0.00    +0.083 C 
ATOM      8  C   LIG    1        5.044   0.257   0.424  0.00  0.00    +0.157 C 
ATOM      9  O   LIG    1        5.989   0.882   0.973  0.00  0.00    -0.293 OA
ATOM     10  C   LIG    1        4.358   0.865  -0.712  0.00  0.00    +0.050 C 
ATOM     11  C   LIG    1        3.050   0.621  -0.799  0.00  0.00    -0.041 C 
ATOM     12  C   LIG    1        2.258   1.174  -1.895  0.00  0.00    +0.036 C 
ATOM     13  C   LIG    1        0.930   1.687  -1.491  0.00  0.00    +0.013 C 
ATOM     14  C   LIG    1        0.240   0.953  -0.397  0.00  0.00    +0.024 C 
ATOM     15  C   LIG    1       -2.936  -0.818  -0.196  0.00  0.00    +0.135 C 
ATOM     16  C   LIG    1       -3.121  -0.127  -1.555  0.00  0.00    +0.049 C 
ATOM     17  C   LIG    1       -1.962   0.861  -1.678  0.00  0.00    +0.009 C 
ATOM     18  C   LIG    1       -0.976   0.232  -0.779  0.00  0.00    +0.010 C 
ENDROOT
BRANCH   1  19
ATOM     19  C   LIG    1       -2.430   1.179   1.064  0.00  0.00    +0.012 C 
ATOM     20  C   LIG    1       -3.246   0.816   2.291  0.00  0.00    +0.005 C 
ENDBRANCH   1  19
BRANCH  15  21
ATOM     21  O   LIG    1       -4.092  -0.697   0.567  0.00  0.00    -0.376 OA
ATOM     22  H   LIG    1       -4.248  -1.570   1.003  0.00  0.00    +0.211 HD
ENDBRANCH  15  21
BRANCH  15  23
ATOM     23  C   LIG    1       -2.584  -2.204  -0.381  0.00  0.00    -0.070 C 
ATOM     24  C   LIG    1       -2.270  -3.361  -0.544  0.00  0.00    +0.007 C 
ENDBRANCH  15  23
TORSDOF 3
