REMARK  Name = molecules/BKCXTZWLBPOGRU-XQHKEYJVSA-N.pdb
REMARK                            x       y       z     vdW  Elec       q    Type
REMARK                         _______ _______ _______ _____ _____    ______ ____
ROOT
ATOM      1  C   LIG    1        1.300  -0.373   0.689  0.00  0.00    +0.272 C 
ATOM      2  O   LIG    1        0.434  -1.414   0.951  0.00  0.00    -0.311 OA
ATOM      3  C   LIG    1       -0.826  -0.891   0.829  0.00  0.00    +0.357 C 
ATOM      4  C   LIG    1       -0.705  -0.127  -0.479  0.00  0.00    +0.289 C 
ATOM      5  C   LIG    1        0.565   0.653  -0.127  0.00  0.00    +0.273 C 
ENDROOT
BRANCH   1   9
ATOM      6  N   LIG    1        4.824  -0.397  -0.346  0.00  0.00    -0.275 N 
ATOM      7  C   LIG    1        3.635  -0.053   0.215  0.00  0.00    +0.331 A 
ATOM      8  O   LIG    1        3.638   1.021   0.891  0.00  0.00    -0.246 OA
ATOM      9  N   LIG    1        2.528  -0.803   0.063  0.00  0.00    -0.270 N 
ATOM     10  C   LIG    1        2.635  -1.922  -0.674  0.00  0.00    +0.098 A 
ATOM     11  C   LIG    1        3.845  -2.295  -1.259  0.00  0.00    +0.088 A 
ATOM     12  H   LIG    1        5.668   0.201  -0.213  0.00  0.00    +0.173 HD
ATOM     13  C   LIG    1        4.962  -1.499  -1.081  0.00  0.00    +0.254 A 
ATOM     14  O   LIG    1        6.085  -1.794  -1.591  0.00  0.00    -0.268 OA
ENDBRANCH   1   9
BRANCH   3  15
ATOM     15  O   LIG    1       -1.874  -1.781   0.869  0.00  0.00    -0.431 OA
BRANCH  15  16
ATOM     16  C   LIG    1       -2.928  -1.793   1.736  0.00  0.00    +0.306 C 
ATOM     17  O   LIG    1       -2.971  -0.893   2.612  0.00  0.00    -0.251 OA
ATOM     18  C   LIG    1       -3.949  -2.861   1.586  0.00  0.00    +0.136 C 
ENDBRANCH  15  16
ENDBRANCH   3  15
BRANCH   4  19
ATOM     19  O   LIG    1       -1.786   0.711  -0.730  0.00  0.00    -0.451 OA
BRANCH  19  20
ATOM     20  C   LIG    1       -2.484   0.552  -1.922  0.00  0.00    +0.305 C 
ATOM     21  C   LIG    1       -3.649   1.393  -2.285  0.00  0.00    +0.136 C 
ATOM     22  O   LIG    1       -2.125  -0.335  -2.739  0.00  0.00    -0.251 OA
ENDBRANCH  19  20
ENDBRANCH   4  19
BRANCH   5  23
ATOM     23  O   LIG    1        0.159   1.691   0.717  0.00  0.00    -0.453 OA
BRANCH  23  24
ATOM     24  C   LIG    1        0.399   3.035   0.476  0.00  0.00    +0.304 C 
ATOM     25  C   LIG    1       -0.089   4.016   1.454  0.00  0.00    +0.136 C 
ATOM     26  O   LIG    1        1.015   3.325  -0.559  0.00  0.00    -0.251 OA
ENDBRANCH  23  24
ENDBRANCH   5  23
TORSDOF 7
