REMARK  Name = molecules/BKPLVPRTTWIDNL-ZIAGYGMSSA-N.pdb
REMARK                            x       y       z     vdW  Elec       q    Type
REMARK                         _______ _______ _______ _____ _____    ______ ____
ROOT
ATOM      1  C   LIG    1        0.321   0.421   0.038  0.00  0.00    +0.223 C 
ENDROOT
BRANCH   1   3
ATOM      2  N   LIG    1       -1.858   0.771  -0.874  0.00  0.00    -0.310 NA
ATOM      3  C   LIG    1       -0.819  -0.226  -0.747  0.00  0.00    +0.099 C 
ATOM      4  C   LIG    1       -1.276  -1.428   0.047  0.00  0.00    +0.023 C 
ATOM      5  C   LIG    1       -2.272  -0.897   1.087  0.00  0.00    +0.003 C 
ATOM      6  C   LIG    1       -3.545  -0.599   0.283  0.00  0.00    +0.015 C 
ATOM      7  C   LIG    1       -3.183   0.202  -0.921  0.00  0.00    +0.081 C 
ATOM      8  H   LIG    1       -1.702   1.246  -1.796  0.00  0.00    +0.122 HD
ENDBRANCH   1   3
BRANCH   1   9
ATOM      9  C   LIG    1        1.461  -0.544   0.226  0.00  0.00    -0.006 A 
ATOM     10  C   LIG    1        1.713  -1.156   1.434  0.00  0.00    +0.007 A 
ATOM     11  C   LIG    1        2.744  -2.023   1.607  0.00  0.00    +0.000 A 
ATOM     12  C   LIG    1        3.576  -2.312   0.548  0.00  0.00    +0.000 A 
ATOM     13  C   LIG    1        3.352  -1.714  -0.687  0.00  0.00    +0.000 A 
ATOM     14  C   LIG    1        2.299  -0.840  -0.828  0.00  0.00    +0.007 A 
ENDBRANCH   1   9
BRANCH   1  15
ATOM     15  O   LIG    1        0.809   1.558  -0.642  0.00  0.00    -0.455 OA
BRANCH  15  16
ATOM     16  C   LIG    1        0.781   2.779  -0.026  0.00  0.00    +0.305 C 
ATOM     17  O   LIG    1        0.316   2.883   1.159  0.00  0.00    -0.251 OA
ATOM     18  C   LIG    1        1.265   4.045  -0.637  0.00  0.00    +0.136 C 
ENDBRANCH  15  16
ENDBRANCH   1  15
TORSDOF 4
