REMARK  Name = molecules/BKRGVLQUQGGVSM-KBXCAEBGSA-N.pdb
REMARK                            x       y       z     vdW  Elec       q    Type
REMARK                         _______ _______ _______ _____ _____    ______ ____
ROOT
ATOM      1  C   LIG    1        2.176  -0.375   2.481  0.00  0.00    +0.105 C 
ATOM      2  N   LIG    1        1.355  -1.204   1.640  0.00  0.00    -0.296 NA
ATOM      3  C   LIG    1       -0.024  -0.846   1.618  0.00  0.00    +0.111 C 
ATOM      4  C   LIG    1       -0.596  -0.711   0.253  0.00  0.00    +0.112 C 
ATOM      5  C   LIG    1        0.369   0.118  -0.563  0.00  0.00    +0.002 C 
ATOM      6  C   LIG    1        1.624  -0.269  -0.502  0.00  0.00    -0.024 C 
ATOM      7  C   LIG    1        2.630   0.465  -1.255  0.00  0.00    -0.011 A 
ATOM      8  C   LIG    1        3.921   0.031  -1.121  0.00  0.00    +0.010 A 
ATOM      9  C   LIG    1        4.301  -1.022  -0.344  0.00  0.00    -0.020 A 
ATOM     10  C   LIG    1        3.354  -1.828   0.455  0.00  0.00    +0.061 C 
ATOM     11  C   LIG    1        5.665  -1.107  -0.502  0.00  0.00    +0.087 A 
ATOM     12  N   LIG    1        6.065  -0.115  -1.359  0.00  0.00    -0.360 N 
ATOM     13  H   LIG    1        7.032   0.064  -1.662  0.00  0.00    +0.165 HD
ATOM     14  C   LIG    1        4.987   0.595  -1.748  0.00  0.00    +0.047 A 
ATOM     15  C   LIG    1        4.723   1.683  -2.573  0.00  0.00    +0.026 A 
ATOM     16  C   LIG    1        3.409   2.131  -2.715  0.00  0.00    +0.003 A 
ATOM     17  C   LIG    1        2.334   1.556  -2.078  0.00  0.00    +0.009 A 
ATOM     18  C   LIG    1        1.939  -1.440   0.336  0.00  0.00    +0.091 C 
ENDROOT
BRANCH   4  19
ATOM     19  N   LIG    1       -1.861  -0.064   0.189  0.00  0.00    -0.292 N 
ATOM     20  H   LIG    1       -1.906   0.918   0.592  0.00  0.00    +0.151 HD
ATOM     21  C   LIG    1       -3.038  -0.613  -0.357  0.00  0.00    +0.303 C 
ATOM     22  N   LIG    1       -4.252   0.082  -0.387  0.00  0.00    -0.286 N 
ATOM     23  O   LIG    1       -3.002  -1.792  -0.845  0.00  0.00    -0.253 OA
BRANCH  22  24
ATOM     24  C   LIG    1       -4.371   1.426   0.146  0.00  0.00    +0.106 C 
ATOM     25  C   LIG    1       -4.750   1.408   1.612  0.00  0.00    +0.024 C 
ENDBRANCH  22  24
BRANCH  22  26
ATOM     26  C   LIG    1       -5.459  -0.502  -0.954  0.00  0.00    +0.106 C 
ATOM     27  C   LIG    1       -5.563  -0.184  -2.421  0.00  0.00    +0.024 C 
ENDBRANCH  22  26
ENDBRANCH   4  19
TORSDOF 3
