REMARK  Name = molecules/BLGXFZZNTVWLAY-SCYLSFHTSA-N.pdb
REMARK                            x       y       z     vdW  Elec       q    Type
REMARK                         _______ _______ _______ _____ _____    ______ ____
ROOT
ATOM      1  C   LIG    1       -2.794  -0.042   0.939  0.00  0.00    +0.130 C 
ATOM      2  C   LIG    1       -3.339  -1.401   1.315  0.00  0.00    +0.129 C 
ATOM      3  C   LIG    1       -3.790  -2.190   0.107  0.00  0.00    +0.032 C 
ATOM      4  C   LIG    1       -2.746  -2.193  -0.987  0.00  0.00    +0.007 C 
ATOM      5  C   LIG    1       -1.482  -1.562  -0.485  0.00  0.00    +0.007 C 
ATOM      6  C   LIG    1       -0.445  -1.565  -1.589  0.00  0.00    +0.089 C 
ATOM      7  N   LIG    1        0.783  -1.056  -1.020  0.00  0.00    -0.293 NA
ATOM      8  C   LIG    1        0.686   0.295  -0.577  0.00  0.00    +0.104 C 
ATOM      9  C   LIG    1       -0.378   0.365   0.511  0.00  0.00    +0.030 C 
ATOM     10  C   LIG    1        1.976   0.659   0.070  0.00  0.00    +0.038 A 
ATOM     11  N   LIG    1        2.371   1.254   1.200  0.00  0.00    -0.356 N 
ATOM     12  H   LIG    1        1.725   1.620   1.935  0.00  0.00    +0.166 HD
ATOM     13  C   LIG    1        3.720   1.311   1.253  0.00  0.00    +0.047 A 
ATOM     14  C   LIG    1        4.651   1.798   2.152  0.00  0.00    +0.026 A 
ATOM     15  C   LIG    1        5.989   1.697   1.899  0.00  0.00    +0.002 A 
ATOM     16  C   LIG    1        6.459   1.116   0.758  0.00  0.00    +0.001 A 
ATOM     17  C   LIG    1        5.566   0.620  -0.162  0.00  0.00    +0.010 A 
ATOM     18  C   LIG    1        4.218   0.729   0.108  0.00  0.00    +0.003 A 
ATOM     19  C   LIG    1        3.126   0.327  -0.622  0.00  0.00    -0.016 A 
ATOM     20  C   LIG    1        2.968  -0.348  -1.918  0.00  0.00    +0.053 C 
ATOM     21  C   LIG    1        1.864  -1.349  -1.895  0.00  0.00    +0.090 C 
ATOM     22  C   LIG    1       -1.687  -0.119  -0.074  0.00  0.00    +0.011 C 
ENDROOT
BRANCH   1  23
ATOM     23  C   LIG    1       -3.889   0.833   0.474  0.00  0.00    +0.313 C 
ATOM     24  O   LIG    1       -5.049   0.385   0.330  0.00  0.00    -0.250 OA
BRANCH  23  25
ATOM     25  O   LIG    1       -3.650   2.164   0.190  0.00  0.00    -0.468 OA
ATOM     26  C   LIG    1       -4.735   2.970  -0.256  0.00  0.00    +0.280 C 
ENDBRANCH  23  25
ENDBRANCH   1  23
BRANCH   2  27
ATOM     27  O   LIG    1       -4.467  -1.182   2.111  0.00  0.00    -0.391 OA
ATOM     28  H   LIG    1       -4.279  -1.298   3.072  0.00  0.00    +0.210 HD
ENDBRANCH   2  27
TORSDOF 3
