REMARK  Name = molecules/BLJRIMJGRPQVNF-JTQLQIEISA-N.pdb
REMARK                            x       y       z     vdW  Elec       q    Type
REMARK                         _______ _______ _______ _____ _____    ______ ____
ROOT
ATOM      1  O   LIG    1       -1.317  -0.914  -0.254  0.00  0.00    -0.471 OA
ENDROOT
BRANCH   1   2
ATOM      2  C   LIG    1       -1.940  -1.077   0.999  0.00  0.00    +0.265 A 
ATOM      3  N   LIG    1       -1.254  -1.412   2.095  0.00  0.00    -0.153 NA
ATOM      4  S   LIG    1       -2.405  -1.489   3.301  0.00  0.00    +0.121 S 
ATOM      5  N   LIG    1       -3.749  -1.091   2.394  0.00  0.00    -0.172 NA
ATOM      6  C   LIG    1       -3.281  -0.903   1.155  0.00  0.00    +0.194 A 
BRANCH   6   7
ATOM      7  N   LIG    1       -4.228  -0.516   0.119  0.00  0.00    -0.306 N 
ATOM      8  C   LIG    1       -5.675  -0.577   0.390  0.00  0.00    +0.135 C 
ATOM      9  C   LIG    1       -6.413   0.619  -0.108  0.00  0.00    +0.178 C 
ATOM     10  O   LIG    1       -6.101   0.767  -1.479  0.00  0.00    -0.377 OA
ATOM     11  C   LIG    1       -4.772   1.138  -1.568  0.00  0.00    +0.178 C 
ATOM     12  C   LIG    1       -3.865  -0.052  -1.186  0.00  0.00    +0.135 C 
ENDBRANCH   6   7
ENDBRANCH   1   2
BRANCH   1  13
ATOM     13  C   LIG    1        0.033  -1.056  -0.530  0.00  0.00    +0.263 C 
BRANCH  13  14
ATOM     14  C   LIG    1        0.978  -0.131   0.141  0.00  0.00    +0.166 C 
BRANCH  14  15
ATOM     15  O   LIG    1        0.943  -0.231   1.505  0.00  0.00    -0.387 OA
ATOM     16  H   LIG    1        1.368   0.539   1.964  0.00  0.00    +0.210 HD
ENDBRANCH  14  15
BRANCH  14  17
ATOM     17  C   LIG    1        2.432  -0.395  -0.281  0.00  0.00    +0.116 C 
BRANCH  17  18
ATOM     18  N   LIG    1        3.238   0.596   0.340  0.00  0.00    -0.309 NA
ATOM     19  H   LIG    1        2.852   1.541   0.091  0.00  0.00    +0.123 HD
BRANCH  18  20
ATOM     20  C   LIG    1        4.636   0.513   0.060  0.00  0.00    +0.011 C 
ATOM     21  C   LIG    1        5.431   1.550   0.832  0.00  0.00    +0.027 C 
ATOM     22  C   LIG    1        5.144  -0.843   0.494  0.00  0.00    +0.027 C 
ATOM     23  C   LIG    1        4.981   0.695  -1.395  0.00  0.00    +0.027 C 
ENDBRANCH  18  20
ENDBRANCH  17  18
ENDBRANCH  14  17
ENDBRANCH  13  14
ENDBRANCH   1  13
TORSDOF 8
