REMARK  Name = molecules/BLSQLHNBWJLIBQ-OZXSUGGESA-N.pdb
REMARK                            x       y       z     vdW  Elec       q    Type
REMARK                         _______ _______ _______ _____ _____    ______ ____
ROOT
ATOM      1  C   LIG    1       -3.461  -0.498  -2.088  0.00  0.00    +0.185 C 
ATOM      2  O   LIG    1       -4.161   0.293  -1.195  0.00  0.00    -0.334 OA
ATOM      3  C   LIG    1       -4.584  -0.545  -0.149  0.00  0.00    +0.219 C 
ATOM      4  O   LIG    1       -3.744  -1.637  -0.165  0.00  0.00    -0.341 OA
ATOM      5  C   LIG    1       -3.654  -1.889  -1.532  0.00  0.00    +0.198 C 
ENDROOT
BRANCH   3   6
ATOM      6  C   LIG    1       -5.969  -1.002  -0.368  0.00  0.00    +0.031 A 
ATOM      7  C   LIG    1       -6.639  -1.844   0.482  0.00  0.00    +0.051 A 
ATOM      8 CL   LIG    1       -5.806  -2.471   1.908  0.00  0.00    -0.083 Cl
ATOM      9  C   LIG    1       -7.939  -2.241   0.265  0.00  0.00    +0.040 A 
ATOM     10  C   LIG    1       -8.602  -1.788  -0.836  0.00  0.00    +0.042 A 
ATOM     11 CL   LIG    1      -10.248  -2.290  -1.112  0.00  0.00    -0.083 Cl
ATOM     12  C   LIG    1       -7.946  -0.940  -1.704  0.00  0.00    +0.020 A 
ATOM     13  C   LIG    1       -6.644  -0.541  -1.489  0.00  0.00    +0.012 A 
ENDBRANCH   3   6
BRANCH   1  14
ATOM     14  C   LIG    1       -1.971  -0.191  -2.030  0.00  0.00    +0.263 C 
BRANCH  14  15
ATOM     15  O   LIG    1       -1.449  -0.432  -0.743  0.00  0.00    -0.489 OA
BRANCH  15  19
ATOM     16  C   LIG    1        2.585   0.235   0.021  0.00  0.00    +0.030 A 
ATOM     17  C   LIG    1        1.775  -0.229   1.063  0.00  0.00    +0.027 A 
ATOM     18  C   LIG    1        0.446  -0.437   0.771  0.00  0.00    +0.047 A 
ATOM     19  C   LIG    1       -0.098  -0.214  -0.467  0.00  0.00    +0.121 A 
ATOM     20  C   LIG    1        0.737   0.238  -1.450  0.00  0.00    +0.047 A 
ATOM     21  C   LIG    1        2.094   0.475  -1.239  0.00  0.00    +0.027 A 
BRANCH  16  23
ATOM     22  C   LIG    1        4.698   1.457  -0.436  0.00  0.00    +0.120 C 
ATOM     23  N   LIG    1        3.949   0.482   0.281  0.00  0.00    -0.327 N 
ATOM     24  C   LIG    1        4.599  -0.276   1.341  0.00  0.00    +0.120 C 
ATOM     25  C   LIG    1        5.915  -0.798   0.750  0.00  0.00    +0.103 C 
ATOM     26  N   LIG    1        6.677   0.338   0.331  0.00  0.00    -0.297 NA
ATOM     27  C   LIG    1        6.082   0.986  -0.826  0.00  0.00    +0.103 C 
BRANCH  26  28
ATOM     28  C   LIG    1        8.073   0.044   0.083  0.00  0.00    +0.051 C 
ATOM     29  C   LIG    1        8.643  -0.571   1.353  0.00  0.00    +0.024 C 
ATOM     30  C   LIG    1        8.816   1.345  -0.134  0.00  0.00    +0.024 C 
ENDBRANCH  26  28
ENDBRANCH  16  23
ENDBRANCH  15  19
ENDBRANCH  14  15
ENDBRANCH   1  14
BRANCH   3  31
ATOM     31  C   LIG    1       -4.393   0.257   1.114  0.00  0.00    +0.215 C 
BRANCH  31  32
ATOM     32  N   LIG    1       -5.174   1.468   1.091  0.00  0.00    -0.246 N 
ATOM     33  C   LIG    1       -6.425   1.625   1.527  0.00  0.00    +0.219 A 
ATOM     34  N   LIG    1       -6.777   2.902   1.321  0.00  0.00    -0.223 NA
ATOM     35  C   LIG    1       -5.753   3.549   0.757  0.00  0.00    +0.244 A 
ATOM     36  N   LIG    1       -4.778   2.636   0.627  0.00  0.00    -0.158 NA
ENDBRANCH  31  32
ENDBRANCH   3  31
TORSDOF 8
