REMARK  Name = molecules/BLXXJMDCKKHMKV-UHFFFAOYSA-N.pdb
REMARK                            x       y       z     vdW  Elec       q    Type
REMARK                         _______ _______ _______ _____ _____    ______ ____
ROOT
ATOM      1  C   LIG    1       -1.210  -0.558  -0.953  0.00  0.00    -0.046 A 
ATOM      2  C   LIG    1       -0.343  -1.308  -0.142  0.00  0.00    +0.012 A 
ATOM      3  C   LIG    1        0.967  -0.942   0.069  0.00  0.00    -0.017 A 
ATOM      4  C   LIG    1        1.820  -1.692   0.875  0.00  0.00    +0.012 A 
ATOM      5  C   LIG    1        3.129  -1.312   1.077  0.00  0.00    +0.046 A 
ATOM      6  C   LIG    1        3.629  -0.173   0.483  0.00  0.00    +0.121 A 
ATOM      7  C   LIG    1        2.796   0.569  -0.309  0.00  0.00    +0.054 A 
ATOM      8  C   LIG    1        1.479   0.194  -0.519  0.00  0.00    -0.014 A 
ATOM      9  C   LIG    1        0.640   0.941  -1.317  0.00  0.00    +0.009 A 
ATOM     10  C   LIG    1       -0.673   0.555  -1.517  0.00  0.00    +0.004 A 
ENDROOT
BRANCH   6  11
ATOM     11  O   LIG    1        4.943   0.234   0.669  0.00  0.00    -0.495 OA
ATOM     12  C   LIG    1        5.490   1.379   0.088  0.00  0.00    +0.277 C 
ENDBRANCH   6  11
BRANCH   1  13
ATOM     13  C   LIG    1       -2.557  -1.080  -1.094  0.00  0.00    +0.042 C 
BRANCH  13  14
ATOM     14  C   LIG    1       -3.560  -0.738  -0.074  0.00  0.00    +0.078 C 
BRANCH  14  15
ATOM     15  C   LIG    1       -3.888   0.669   0.134  0.00  0.00    +0.131 C 
ATOM     16  C   LIG    1       -4.888   1.037   1.167  0.00  0.00    +0.086 C 
ATOM     17  O   LIG    1       -3.370   1.541  -0.511  0.00  0.00    -0.298 OA
ENDBRANCH  14  15
ENDBRANCH  13  14
ENDBRANCH   1  13
TORSDOF 4
