REMARK  Name = molecules/BMIJYAZXNZEMLI-NSHDSACASA-N.pdb
REMARK                            x       y       z     vdW  Elec       q    Type
REMARK                         _______ _______ _______ _____ _____    ______ ____
ROOT
ATOM      1  C   LIG    1       -2.038   0.241   0.345  0.00  0.00    +0.341 C 
ATOM      2  O   LIG    1       -1.611   1.412   0.498  0.00  0.00    -0.245 OA
ENDROOT
BRANCH   1   3
ATOM      3  C   LIG    1       -3.419   0.020  -0.112  0.00  0.00    +0.080 A 
ATOM      4  C   LIG    1       -3.926  -1.247  -0.292  0.00  0.00    +0.017 A 
ATOM      5  C   LIG    1       -5.217  -1.470  -0.720  0.00  0.00    +0.001 A 
ATOM      6  C   LIG    1       -5.995  -0.352  -0.964  0.00  0.00    +0.002 A 
ATOM      7  C   LIG    1       -5.539   0.929  -0.801  0.00  0.00    +0.023 A 
ATOM      8  C   LIG    1       -4.223   1.082  -0.366  0.00  0.00    +0.039 A 
BRANCH   8   9
ATOM      9  N   LIG    1       -3.753   2.398  -0.197  0.00  0.00    -0.357 N 
ATOM     10  H   LIG    1       -3.813   2.843   0.728  0.00  0.00    +0.142 HD
ATOM     11  H   LIG    1       -3.355   2.908  -0.997  0.00  0.00    +0.142 HD
ENDBRANCH   8   9
ENDBRANCH   1   3
BRANCH   1  12
ATOM     12  O   LIG    1       -1.177  -0.801   0.618  0.00  0.00    -0.461 OA
BRANCH  12  13
ATOM     13  C   LIG    1        0.153  -0.653   1.058  0.00  0.00    +0.234 C 
BRANCH  13  14
ATOM     14  C   LIG    1        1.015   0.113   0.079  0.00  0.00    +0.060 C 
BRANCH  14  15
ATOM     15  C   LIG    1        2.401   0.212   0.643  0.00  0.00    +0.057 C 
ATOM     16  N   LIG    1        2.945  -1.095   0.834  0.00  0.00    -0.313 NA
ATOM     17  H   LIG    1        2.528  -1.509   1.705  0.00  0.00    +0.122 HD
ATOM     18  C   LIG    1        4.387  -1.057   1.084  0.00  0.00    +0.081 C 
ATOM     19  C   LIG    1        5.138  -0.566  -0.120  0.00  0.00    +0.015 C 
ATOM     20  C   LIG    1        4.113  -0.021  -1.114  0.00  0.00    +0.003 C 
ATOM     21  C   LIG    1        3.269   0.988  -0.351  0.00  0.00    +0.019 C 
ENDBRANCH  14  15
ENDBRANCH  13  14
ENDBRANCH  12  13
ENDBRANCH   1  12
TORSDOF 6
