REMARK  Name = molecules/BMKDZUISNHGIBY-SSDOTTSWSA-N.pdb
REMARK                            x       y       z     vdW  Elec       q    Type
REMARK                         _______ _______ _______ _____ _____    ______ ____
ROOT
ATOM      1  C   LIG    1       -0.507  -0.338  -0.440  0.00  0.00    +0.069 C 
ATOM      2  C   LIG    1       -0.536  -1.770  -0.926  0.00  0.00    +0.025 C 
ENDROOT
BRANCH   1   3
ATOM      3  N   LIG    1       -1.787   0.099   0.029  0.00  0.00    -0.282 NA
ATOM      4  C   LIG    1       -1.845   1.444   0.313  0.00  0.00    +0.181 C 
ATOM      5  C   LIG    1       -3.183   2.042   0.559  0.00  0.00    +0.233 C 
ATOM      6  O   LIG    1       -3.228   3.223   0.982  0.00  0.00    -0.274 OA
ATOM      7  N   LIG    1       -4.328   1.263   0.312  0.00  0.00    -0.254 N 
ATOM      8  H   LIG    1       -5.270   1.735   0.225  0.00  0.00    +0.158 HD
ATOM      9  C   LIG    1       -4.161  -0.131   0.192  0.00  0.00    +0.233 C 
ATOM     10  O   LIG    1       -5.144  -0.877   0.520  0.00  0.00    -0.274 OA
ATOM     11  C   LIG    1       -2.891  -0.687  -0.290  0.00  0.00    +0.181 C 
ENDBRANCH   1   3
BRANCH   1  12
ATOM     12  C   LIG    1        0.482  -0.131   0.665  0.00  0.00    +0.104 C 
BRANCH  12  13
ATOM     13  N   LIG    1        1.810  -0.452   0.434  0.00  0.00    -0.284 NA
ATOM     14  C   LIG    1        2.663  -0.075   1.507  0.00  0.00    +0.181 C 
ATOM     15  C   LIG    1        3.716   0.894   1.057  0.00  0.00    +0.233 C 
ATOM     16  O   LIG    1        3.969   1.972   1.657  0.00  0.00    -0.274 OA
ATOM     17  N   LIG    1        4.430   0.513  -0.114  0.00  0.00    -0.254 N 
ATOM     18  H   LIG    1        5.366   0.954  -0.350  0.00  0.00    +0.158 HD
ATOM     19  C   LIG    1        3.813  -0.469  -0.937  0.00  0.00    +0.233 C 
ATOM     20  O   LIG    1        4.481  -1.083  -1.784  0.00  0.00    -0.274 OA
ATOM     21  C   LIG    1        2.356  -0.767  -0.789  0.00  0.00    +0.181 C 
ENDBRANCH  12  13
ENDBRANCH   1  12
TORSDOF 3
