REMARK  Name = molecules/BMKDZUISNHGIBY-ZETCQYMHSA-N.pdb
REMARK                            x       y       z     vdW  Elec       q    Type
REMARK                         _______ _______ _______ _____ _____    ______ ____
ROOT
ATOM      1  C   LIG    1        0.428   1.046  -0.373  0.00  0.00    +0.069 C 
ATOM      2  C   LIG    1        0.175   1.380  -1.788  0.00  0.00    +0.025 C 
ENDROOT
BRANCH   1   3
ATOM      3  N   LIG    1        1.561   0.129  -0.176  0.00  0.00    -0.282 NA
ATOM      4  C   LIG    1        1.810  -0.050   1.218  0.00  0.00    +0.181 C 
ATOM      5  C   LIG    1        3.214  -0.308   1.592  0.00  0.00    +0.233 C 
ATOM      6  O   LIG    1        3.624  -0.068   2.742  0.00  0.00    -0.274 OA
ATOM      7  N   LIG    1        4.092  -0.836   0.614  0.00  0.00    -0.254 N 
ATOM      8  H   LIG    1        4.951  -1.381   0.853  0.00  0.00    +0.158 HD
ATOM      9  C   LIG    1        3.741  -0.579  -0.738  0.00  0.00    +0.233 C 
ATOM     10  O   LIG    1        4.247  -1.199  -1.685  0.00  0.00    -0.274 OA
ATOM     11  C   LIG    1        2.709   0.507  -0.924  0.00  0.00    +0.181 C 
ENDBRANCH   1   3
BRANCH   1  12
ATOM     12  C   LIG    1       -0.744   0.592   0.421  0.00  0.00    +0.104 C 
BRANCH  12  13
ATOM     13  N   LIG    1       -1.423  -0.583   0.017  0.00  0.00    -0.284 NA
ATOM     14  C   LIG    1       -1.994  -1.280   1.137  0.00  0.00    +0.181 C 
ATOM     15  C   LIG    1       -3.275  -0.580   1.511  0.00  0.00    +0.233 C 
ATOM     16  O   LIG    1       -3.562  -0.230   2.655  0.00  0.00    -0.274 OA
ATOM     17  N   LIG    1       -4.152  -0.350   0.404  0.00  0.00    -0.254 N 
ATOM     18  H   LIG    1       -5.096   0.079   0.523  0.00  0.00    +0.158 HD
ATOM     19  C   LIG    1       -3.662  -0.745  -0.882  0.00  0.00    +0.233 C 
ATOM     20  O   LIG    1       -4.408  -1.247  -1.720  0.00  0.00    -0.274 OA
ATOM     21  C   LIG    1       -2.200  -0.510  -1.147  0.00  0.00    +0.181 C 
ENDBRANCH  12  13
ENDBRANCH   1  12
TORSDOF 3
