REMARK  Name = molecules/BMOVQUBVGICXQN-MKPDMIMOSA-N.pdb
REMARK                            x       y       z     vdW  Elec       q    Type
REMARK                         _______ _______ _______ _____ _____    ______ ____
ROOT
ATOM      1  C   LIG    1       -0.679  -5.030   0.883  0.00  0.00    +0.000 C 
ATOM      2  C   LIG    1        0.508  -4.200   1.378  0.00  0.00    +0.001 C 
ATOM      3  C   LIG    1        0.082  -2.740   1.528  0.00  0.00    +0.016 C 
ATOM      4  C   LIG    1       -0.090  -2.093   0.169  0.00  0.00    +0.021 C 
ATOM      5  C   LIG    1       -0.524  -3.203  -0.761  0.00  0.00    +0.016 C 
ATOM      6  C   LIG    1       -1.498  -4.082  -0.005  0.00  0.00    +0.001 C 
ENDROOT
BRANCH   4   7
ATOM      7  C   LIG    1       -1.180  -1.078   0.320  0.00  0.00    -0.037 A 
ATOM      8  C   LIG    1       -1.440  -0.524   1.553  0.00  0.00    +0.008 A 
ATOM      9  C   LIG    1       -2.435   0.404   1.674  0.00  0.00    +0.046 A 
ATOM     10  C   LIG    1       -3.225   0.835   0.592  0.00  0.00    +0.122 A 
ATOM     11  C   LIG    1       -2.963   0.281  -0.637  0.00  0.00    +0.046 A 
ATOM     12  C   LIG    1       -1.944  -0.664  -0.743  0.00  0.00    +0.008 A 
BRANCH  10  13
ATOM     13  O   LIG    1       -4.204   1.767   0.805  0.00  0.00    -0.475 OA
BRANCH  13  14
ATOM     14  C   LIG    1       -5.143   2.280  -0.080  0.00  0.00    +0.203 C 
ATOM     15  C   LIG    1       -4.597   2.906  -1.325  0.00  0.00    +0.068 C 
BRANCH  14  16
ATOM     16  C   LIG    1       -5.949   3.373   0.629  0.00  0.00    +0.349 C 
ATOM     17  O   LIG    1       -5.718   3.680   1.822  0.00  0.00    -0.246 OA
BRANCH  16  18
ATOM     18  O   LIG    1       -6.955   4.048  -0.040  0.00  0.00    -0.478 OA
ATOM     19  H   LIG    1       -6.870   4.962  -0.424  0.00  0.00    +0.295 HD
ENDBRANCH  16  18
ENDBRANCH  14  16
BRANCH  14  20
ATOM     20  C   LIG    1       -6.145   1.185  -0.445  0.00  0.00    +0.056 C 
ATOM     21  C   LIG    1       -6.856   0.695   0.808  0.00  0.00    +0.008 C 
ENDBRANCH  14  20
ENDBRANCH  13  14
ENDBRANCH  10  13
ENDBRANCH   4   7
BRANCH   4  22
ATOM     22  C   LIG    1        1.179  -1.484  -0.224  0.00  0.00    -0.037 A 
ATOM     23  C   LIG    1        1.819  -0.623   0.634  0.00  0.00    +0.008 A 
ATOM     24  C   LIG    1        3.038  -0.023   0.285  0.00  0.00    +0.046 A 
ATOM     25  C   LIG    1        3.626  -0.279  -0.923  0.00  0.00    +0.122 A 
ATOM     26  C   LIG    1        2.980  -1.157  -1.803  0.00  0.00    +0.046 A 
ATOM     27  C   LIG    1        1.776  -1.734  -1.430  0.00  0.00    +0.008 A 
BRANCH  25  28
ATOM     28  O   LIG    1        4.789   0.261  -1.323  0.00  0.00    -0.475 OA
BRANCH  28  29
ATOM     29  C   LIG    1        5.653   1.170  -0.748  0.00  0.00    +0.203 C 
ATOM     30  C   LIG    1        6.175   0.827   0.607  0.00  0.00    +0.068 C 
BRANCH  29  31
ATOM     31  C   LIG    1        4.994   2.554  -0.757  0.00  0.00    +0.056 C 
ATOM     32  C   LIG    1        5.887   3.598  -0.138  0.00  0.00    +0.008 C 
ENDBRANCH  29  31
BRANCH  29  33
ATOM     33  C   LIG    1        6.830   1.323  -1.690  0.00  0.00    +0.349 C 
ATOM     34  O   LIG    1        6.883   0.680  -2.768  0.00  0.00    -0.246 OA
BRANCH  33  35
ATOM     35  O   LIG    1        7.880   2.179  -1.385  0.00  0.00    -0.478 OA
ATOM     36  H   LIG    1        8.679   1.887  -0.840  0.00  0.00    +0.295 HD
ENDBRANCH  33  35
ENDBRANCH  29  33
ENDBRANCH  28  29
ENDBRANCH  25  28
ENDBRANCH   4  22
TORSDOF 12
