REMARK  Name = molecules/BMUKKTUHUDJSNZ-HBUWYVDXSA-N.pdb
REMARK                            x       y       z     vdW  Elec       q    Type
REMARK                         _______ _______ _______ _____ _____    ______ ____
ROOT
ATOM      1  C   LIG    1       -1.113   0.896   0.530  0.00  0.00    +0.084 C 
ATOM      2  C   LIG    1       -1.420  -0.217   1.512  0.00  0.00    +0.027 C 
ENDROOT
BRANCH   1   3
ATOM      3  N   LIG    1        0.192   1.306   0.392  0.00  0.00    -0.305 NA
ATOM      4  H   LIG    1        0.378   2.337   0.516  0.00  0.00    +0.123 HD
BRANCH   3   6
ATOM      5  C   LIG    1        1.398   0.092  -1.416  0.00  0.00    +0.027 C 
ATOM      6  C   LIG    1        1.304   0.645  -0.025  0.00  0.00    +0.088 C 
BRANCH   6   7
ATOM      7  C   LIG    1        1.655  -0.511   0.892  0.00  0.00    +0.247 C 
BRANCH   7   8
ATOM      8  O   LIG    1        2.780  -1.151   0.463  0.00  0.00    -0.490 OA
BRANCH   8   9
ATOM      9  C   LIG    1        4.090  -0.908   0.297  0.00  0.00    +0.121 A 
ATOM     10  C   LIG    1        4.669   0.292   0.630  0.00  0.00    +0.045 A 
ATOM     11  C   LIG    1        6.035   0.481   0.428  0.00  0.00    +0.004 A 
ATOM     12  C   LIG    1        6.797  -0.536  -0.104  0.00  0.00    +0.000 A 
ATOM     13  C   LIG    1        6.231  -1.753  -0.446  0.00  0.00    +0.004 A 
ATOM     14  C   LIG    1        4.899  -1.938  -0.249  0.00  0.00    +0.045 A 
ENDBRANCH   8   9
ENDBRANCH   7   8
ENDBRANCH   6   7
ENDBRANCH   3   6
ENDBRANCH   1   3
BRANCH   1  15
ATOM     15  C   LIG    1       -1.983   0.844  -0.712  0.00  0.00    +0.161 C 
BRANCH  15  16
ATOM     16  C   LIG    1       -3.401   0.509  -0.423  0.00  0.00    -0.017 A 
ATOM     17  C   LIG    1       -4.328   1.534  -0.176  0.00  0.00    +0.010 A 
ATOM     18  C   LIG    1       -5.649   1.278   0.110  0.00  0.00    +0.046 A 
ATOM     19  C   LIG    1       -6.104  -0.013   0.163  0.00  0.00    +0.117 A 
ATOM     20  C   LIG    1       -5.192  -1.029  -0.081  0.00  0.00    +0.046 A 
ATOM     21  C   LIG    1       -3.873  -0.795  -0.367  0.00  0.00    +0.010 A 
BRANCH  19  22
ATOM     22  O   LIG    1       -7.438  -0.296   0.451  0.00  0.00    -0.507 OA
ATOM     23  H   LIG    1       -8.095  -0.360  -0.324  0.00  0.00    +0.292 HD
ENDBRANCH  19  22
ENDBRANCH  15  16
BRANCH  15  24
ATOM     24  O   LIG    1       -1.496  -0.023  -1.655  0.00  0.00    -0.386 OA
ATOM     25  H   LIG    1       -2.188  -0.562  -2.109  0.00  0.00    +0.210 HD
ENDBRANCH  15  24
ENDBRANCH   1  15
TORSDOF 9
