REMARK  Name = molecules/BNFRJXLZYUTIII-UHFFFAOYSA-N.pdb
REMARK                            x       y       z     vdW  Elec       q    Type
REMARK                         _______ _______ _______ _____ _____    ______ ____
ROOT
ATOM      1  C   LIG    1       -3.398   0.400  -0.784  0.00  0.00    +0.122 A 
ATOM      2  C   LIG    1       -2.921   0.557   0.499  0.00  0.00    +0.046 A 
ATOM      3  C   LIG    1       -1.666   1.145   0.709  0.00  0.00    +0.007 A 
ATOM      4  C   LIG    1       -0.878   1.578  -0.326  0.00  0.00    -0.038 A 
ATOM      5  C   LIG    1       -1.360   1.418  -1.606  0.00  0.00    +0.007 A 
ATOM      6  C   LIG    1       -2.597   0.839  -1.820  0.00  0.00    +0.046 A 
ENDROOT
BRANCH   1   7
ATOM      7  O   LIG    1       -4.606  -0.161  -1.079  0.00  0.00    -0.475 OA
BRANCH   7   8
ATOM      8  C   LIG    1       -5.571  -0.669  -0.221  0.00  0.00    +0.200 C 
ATOM      9  C   LIG    1       -5.036  -1.734   0.712  0.00  0.00    +0.067 C 
ATOM     10  C   LIG    1       -6.065   0.486   0.633  0.00  0.00    +0.067 C 
BRANCH   8  11
ATOM     11  C   LIG    1       -6.718  -1.171  -1.020  0.00  0.00    +0.348 C 
ATOM     12  O   LIG    1       -7.744  -1.689  -0.502  0.00  0.00    -0.247 OA
BRANCH  11  13
ATOM     13  O   LIG    1       -6.660  -1.065  -2.398  0.00  0.00    -0.478 OA
ATOM     14  H   LIG    1       -7.407  -0.576  -2.901  0.00  0.00    +0.295 HD
ENDBRANCH  11  13
ENDBRANCH   8  11
ENDBRANCH   7   8
ENDBRANCH   1   7
BRANCH   4  15
ATOM     15  C   LIG    1        0.450   2.199  -0.096  0.00  0.00    +0.131 C 
BRANCH  15  16
ATOM     16  C   LIG    1        1.471   1.090  -0.098  0.00  0.00    +0.222 C 
ATOM     17  N   LIG    1        2.797   1.440   0.101  0.00  0.00    -0.285 N 
ATOM     18  H   LIG    1        2.998   2.489   0.239  0.00  0.00    +0.155 HD
ATOM     19  O   LIG    1        1.114  -0.089  -0.274  0.00  0.00    -0.275 OA
BRANCH  17  20
ATOM     20  C   LIG    1        3.883   0.539   0.138  0.00  0.00    +0.034 A 
ATOM     21  C   LIG    1        3.697  -0.796   0.304  0.00  0.00    +0.026 A 
ATOM     22  C   LIG    1        4.825  -1.630   0.311  0.00  0.00    -0.048 A 
ATOM     23  C   LIG    1        4.587  -3.083   0.494  0.00  0.00    +0.044 C 
ATOM     24  C   LIG    1        6.081  -1.123   0.156  0.00  0.00    +0.006 A 
ATOM     25  C   LIG    1        6.283   0.228  -0.013  0.00  0.00    -0.048 A 
ATOM     26  C   LIG    1        7.644   0.814  -0.185  0.00  0.00    +0.044 C 
ATOM     27  C   LIG    1        5.192   1.040  -0.020  0.00  0.00    +0.026 A 
ENDBRANCH  17  20
ENDBRANCH  15  16
ENDBRANCH   4  15
TORSDOF 7
