REMARK  Name = molecules/BNQDCRGUHNALGH-LURJTMIESA-N.pdb
REMARK                            x       y       z     vdW  Elec       q    Type
REMARK                         _______ _______ _______ _____ _____    ______ ____
ROOT
ATOM      1  C   LIG    1       -0.606   0.308   0.348  0.00  0.00    +0.140 C 
ENDROOT
BRANCH   1   2
ATOM      2  C   LIG    1       -1.998   0.167  -0.075  0.00  0.00    +0.013 A 
ATOM      3  C   LIG    1       -2.869  -0.533   0.765  0.00  0.00    +0.166 A 
ATOM      4  C   LIG    1       -4.210  -0.717   0.430  0.00  0.00    +0.201 A 
ATOM      5  C   LIG    1       -4.681  -0.194  -0.757  0.00  0.00    +0.162 A 
ATOM      6  C   LIG    1       -3.840   0.498  -1.598  0.00  0.00    +0.050 A 
ATOM      7  C   LIG    1       -2.509   0.673  -1.251  0.00  0.00    +0.012 A 
BRANCH   3   8
ATOM      8  O   LIG    1       -2.348  -1.034   1.936  0.00  0.00    -0.503 OA
ATOM      9  H   LIG    1       -2.855  -1.549   2.620  0.00  0.00    +0.292 HD
ENDBRANCH   3   8
BRANCH   4  10
ATOM     10  O   LIG    1       -5.086  -1.404   1.246  0.00  0.00    -0.501 OA
ATOM     11  H   LIG    1       -4.779  -1.801   2.118  0.00  0.00    +0.292 HD
ENDBRANCH   4  10
BRANCH   5  12
ATOM     12  O   LIG    1       -6.003  -0.362  -1.113  0.00  0.00    -0.503 OA
ATOM     13  H   LIG    1       -6.692  -0.850  -0.568  0.00  0.00    +0.292 HD
ENDBRANCH   5  12
ENDBRANCH   1   2
BRANCH   1  14
ATOM     14  N   LIG    1        0.221   1.036  -0.553  0.00  0.00    -0.236 NA
ATOM     15  H   LIG    1        0.129   0.832  -1.551  0.00  0.00    +0.145 HD
BRANCH  14  16
ATOM     16  N   LIG    1        1.522   1.097  -0.069  0.00  0.00    -0.249 N 
ATOM     17  H   LIG    1        1.695   1.522   0.859  0.00  0.00    +0.169 HD
ATOM     18  C   LIG    1        2.607   0.595  -0.815  0.00  0.00    +0.246 C 
ATOM     19  O   LIG    1        2.355   0.081  -1.957  0.00  0.00    -0.273 OA
BRANCH  18  20
ATOM     20  CA  LIG    1        4.012   0.603  -0.405  0.00  0.00    +0.165 C 
BRANCH  20  21
ATOM     21  N   LIG    1        4.248   1.154   0.907  0.00  0.00    -0.318 NA
ATOM     22  H1  LIG    1        3.940   0.516   1.675  0.00  0.00    +0.119 HD
ATOM     23  H2  LIG    1        5.226   1.486   1.037  0.00  0.00    +0.119 HD
ENDBRANCH  20  21
BRANCH  20  24
ATOM     24  C   LIG    1        4.517  -0.829  -0.397  0.00  0.00    +0.183 C 
BRANCH  24  25
ATOM     25  O   LIG    1        5.881  -0.851  -0.103  0.00  0.00    -0.393 OA
ATOM     26  H   LIG    1        6.001  -1.208   0.809  0.00  0.00    +0.209 HD
ENDBRANCH  24  25
ENDBRANCH  20  24
ENDBRANCH  18  20
ENDBRANCH  14  16
ENDBRANCH   1  14
TORSDOF 10
