REMARK  Name = molecules/BNRMWKUVWLKDQJ-YJBOKZPZSA-N.pdb
REMARK                            x       y       z     vdW  Elec       q    Type
REMARK                         _______ _______ _______ _____ _____    ______ ____
ROOT
ATOM      1  N   LIG    1        3.452   0.311  -0.019  0.00  0.00    -0.327 N 
ATOM      2  C   LIG    1        2.861   0.955   1.169  0.00  0.00    +0.120 C 
ATOM      3  C   LIG    1        1.399   0.641   1.128  0.00  0.00    +0.103 C 
ATOM      4  N   LIG    1        0.893   1.124  -0.178  0.00  0.00    -0.299 NA
ATOM      5  C   LIG    1        1.231   0.132  -1.128  0.00  0.00    +0.103 C 
ATOM      6  C   LIG    1        2.669  -0.373  -0.979  0.00  0.00    +0.120 C 
ENDROOT
BRANCH   1   8
ATOM      7  C   LIG    1        5.339   1.774  -0.139  0.00  0.00    +0.023 A 
ATOM      8  C   LIG    1        4.860   0.460  -0.088  0.00  0.00    +0.030 A 
ATOM      9  C   LIG    1        5.758  -0.561  -0.075  0.00  0.00    +0.035 A 
ATOM     10  C   LIG    1        7.116  -0.272  -0.111  0.00  0.00    +0.057 A 
ATOM     11  C   LIG    1        7.595   1.013  -0.165  0.00  0.00    +0.012 A 
ATOM     12  C   LIG    1        6.684   2.039  -0.180  0.00  0.00    +0.002 A 
BRANCH  10  13
ATOM     13  C   LIG    1        8.086  -1.389  -0.071  0.00  0.00    +0.417 C 
ATOM     14  F   LIG    1        7.777  -2.310   0.898  0.00  0.00    -0.166 F 
ATOM     15  F   LIG    1        9.352  -0.888   0.202  0.00  0.00    -0.166 F 
ATOM     16  F   LIG    1        8.131  -1.945  -1.334  0.00  0.00    -0.166 F 
ENDBRANCH  10  13
ENDBRANCH   1   8
BRANCH   4  17
ATOM     17  C   LIG    1       -0.558   1.300  -0.017  0.00  0.00    +0.092 C 
BRANCH  17  18
ATOM     18  C   LIG    1       -1.163   0.123   0.656  0.00  0.00    +0.091 C 
BRANCH  18  19
ATOM     19  C   LIG    1       -2.566   0.248   1.102  0.00  0.00    +0.135 A 
ATOM     20  N   LIG    1       -2.878   0.836   2.321  0.00  0.00    -0.134 NA
ATOM     21  N   LIG    1       -4.139   0.736   2.577  0.00  0.00    -0.134 NA
ATOM     22  C   LIG    1       -4.728   0.079   1.528  0.00  0.00    +0.137 A 
ATOM     23  C   LIG    1       -6.013  -0.490   1.118  0.00  0.00    +0.062 C 
ATOM     24  C   LIG    1       -6.899   0.417   0.360  0.00  0.00    +0.011 C 
ATOM     25  C   LIG    1       -7.692  -0.535  -0.556  0.00  0.00    +0.001 C 
ATOM     26  C   LIG    1       -6.691  -1.618  -0.914  0.00  0.00    +0.006 C 
ATOM     27  C   LIG    1       -5.568  -1.523   0.084  0.00  0.00    +0.019 C 
ATOM     28  C   LIG    1       -4.349  -0.856  -0.507  0.00  0.00    +0.129 C 
ATOM     29  N   LIG    1       -3.744  -0.198   0.652  0.00  0.00    -0.314 N 
ENDBRANCH  18  19
ENDBRANCH  17  18
ENDBRANCH   4  17
TORSDOF 5
