REMARK  Name = molecules/BOCUKUHCLICSIY-XULOGPSESA-N.pdb
REMARK                            x       y       z     vdW  Elec       q    Type
REMARK                         _______ _______ _______ _____ _____    ______ ____
ROOT
ATOM      1  O   LIG    1        0.446  -2.151  -2.434  0.00  0.00    -0.153 OA
ATOM      2  S   LIG    1        0.359  -0.743  -1.902  0.00  0.00    +0.062 S 
ATOM      3  C   LIG    1        1.627  -0.482  -0.740  0.00  0.00    +0.128 A 
ATOM      4  C   LIG    1        1.315   0.065   0.476  0.00  0.00    +0.056 A 
ATOM      5  C   LIG    1        2.307   0.294   1.445  0.00  0.00    +0.047 A 
ATOM      6  C   LIG    1        3.613  -0.041   1.157  0.00  0.00    +0.069 A 
ATOM      7 CL   LIG    1        4.882   0.228   2.336  0.00  0.00    -0.081 Cl
ATOM      8  C   LIG    1        3.925  -0.592  -0.067  0.00  0.00    +0.125 A 
ATOM      9  N   LIG    1       -0.019   0.413   0.787  0.00  0.00    -0.326 N 
ATOM     10  H   LIG    1       -0.252   0.553   1.818  0.00  0.00    +0.148 HD
ATOM     11  C   LIG    1       -1.030   0.576  -0.238  0.00  0.00    +0.163 C 
ATOM     12  C   LIG    1        2.942  -0.820  -1.030  0.00  0.00    +0.060 A 
ATOM     13  N   LIG    1       -1.141  -0.617  -1.053  0.00  0.00    -0.170 NA
ATOM     14  H   LIG    1       -1.236  -1.453  -0.435  0.00  0.00    +0.150 HD
ATOM     15  O   LIG    1        0.407   0.255  -3.022  0.00  0.00    -0.153 OA
ENDROOT
BRANCH  11  16
ATOM     16  C   LIG    1       -2.308   0.966   0.416  0.00  0.00    +0.033 C 
ATOM     17  C   LIG    1       -2.919  -0.108   1.291  0.00  0.00    +0.015 C 
ATOM     18  C   LIG    1       -4.365  -0.182   0.877  0.00  0.00    +0.012 C 
ATOM     19  C   LIG    1       -4.600   1.274   0.435  0.00  0.00    +0.015 C 
ATOM     20  C   LIG    1       -4.399  -0.832  -0.474  0.00  0.00    -0.027 C 
ATOM     21  C   LIG    1       -3.793   0.014  -1.302  0.00  0.00    -0.027 C 
ATOM     22  C   LIG    1       -3.422   1.250  -0.564  0.00  0.00    +0.018 C 
ENDBRANCH  11  16
BRANCH   8  23
ATOM     23  S   LIG    1        5.587  -1.000  -0.387  0.00  0.00    +0.057 S 
ATOM     24  O   LIG    1        6.068  -2.050   0.557  0.00  0.00    -0.153 OA
ATOM     25  O   LIG    1        5.730  -1.546  -1.794  0.00  0.00    -0.153 OA
BRANCH  23  26
ATOM     26  N   LIG    1        6.606   0.396  -0.290  0.00  0.00    -0.203 NA
ATOM     27  H   LIG    1        7.400   0.256   0.366  0.00  0.00    +0.144 HD
ATOM     28  H   LIG    1        6.012   1.223  -0.039  0.00  0.00    +0.144 HD
ENDBRANCH  23  26
ENDBRANCH   8  23
TORSDOF 3
