REMARK  Name = molecules/BOFQWVMAQOTZIW-UHFFFAOYSA-N.pdb
REMARK                            x       y       z     vdW  Elec       q    Type
REMARK                         _______ _______ _______ _____ _____    ______ ____
ROOT
ATOM      1  N   LIG    1        0.100  -0.419  -0.190  0.00  0.00    -0.212 N 
ATOM      2  C   LIG    1       -0.299   0.779   0.209  0.00  0.00    +0.168 A 
ATOM      3  N   LIG    1       -1.672   0.720   0.221  0.00  0.00    -0.206 NA
ATOM      4  C   LIG    1       -2.116  -0.469  -0.156  0.00  0.00    +0.186 A 
ATOM      5  N   LIG    1       -0.993  -1.178  -0.412  0.00  0.00    -0.144 NA
ENDROOT
BRANCH   1   9
ATOM      6  C   LIG    1        4.030  -1.913  -0.714  0.00  0.00    +0.059 A 
ATOM      7  C   LIG    1        3.335  -2.118   0.464  0.00  0.00    +0.017 A 
ATOM      8  C   LIG    1        2.070  -1.615   0.611  0.00  0.00    +0.028 A 
ATOM      9  C   LIG    1        1.432  -0.892  -0.385  0.00  0.00    +0.068 A 
ATOM     10  C   LIG    1        2.138  -0.693  -1.560  0.00  0.00    +0.028 A 
ATOM     11  C   LIG    1        3.419  -1.193  -1.729  0.00  0.00    +0.017 A 
BRANCH   6  12
ATOM     12  C   LIG    1        5.366  -2.454  -0.845  0.00  0.00    +0.337 C 
ATOM     13  O   LIG    1        5.875  -3.094   0.091  0.00  0.00    -0.245 OA
BRANCH  12  14
ATOM     14  O   LIG    1        6.067  -2.256  -2.013  0.00  0.00    -0.477 OA
ATOM     15  H   LIG    1        7.066  -2.085  -2.032  0.00  0.00    +0.295 HD
ENDBRANCH  12  14
ENDBRANCH   6  12
ENDBRANCH   1   9
BRANCH   2  16
ATOM     16  C   LIG    1        0.480   1.963   0.562  0.00  0.00    +0.061 A 
ATOM     17  C   LIG    1       -0.198   3.165   0.803  0.00  0.00    +0.128 A 
ATOM     18  C   LIG    1        0.449   4.341   1.127  0.00  0.00    +0.046 A 
ATOM     19  C   LIG    1        1.804   4.347   1.221  0.00  0.00    +0.004 A 
ATOM     20  C   LIG    1        2.505   3.196   0.993  0.00  0.00    +0.001 A 
ATOM     21  C   LIG    1        1.831   2.007   0.664  0.00  0.00    +0.015 A 
BRANCH  17  22
ATOM     22  O   LIG    1       -1.578   3.143   0.704  0.00  0.00    -0.506 OA
ATOM     23  H   LIG    1       -2.086   3.998   0.873  0.00  0.00    +0.292 HD
ENDBRANCH  17  22
ENDBRANCH   2  16
BRANCH   4  24
ATOM     24  C   LIG    1       -3.469  -0.987  -0.297  0.00  0.00    +0.062 A 
ATOM     25  C   LIG    1       -4.600  -0.292  -0.016  0.00  0.00    +0.128 A 
ATOM     26  C   LIG    1       -5.879  -0.859  -0.175  0.00  0.00    +0.046 A 
ATOM     27  C   LIG    1       -6.023  -2.140  -0.623  0.00  0.00    +0.004 A 
ATOM     28  C   LIG    1       -4.878  -2.852  -0.910  0.00  0.00    +0.001 A 
ATOM     29  C   LIG    1       -3.623  -2.308  -0.758  0.00  0.00    +0.015 A 
BRANCH  25  30
ATOM     30  O   LIG    1       -4.537   1.006   0.441  0.00  0.00    -0.506 OA
ATOM     31  H   LIG    1       -3.733   1.537   0.607  0.00  0.00    +0.292 HD
ENDBRANCH  25  30
ENDBRANCH   4  24
TORSDOF 7
