REMARK  Name = molecules/BPEWUONYVDABNZ-DZBHQSCQSA-N.pdb
REMARK                            x       y       z     vdW  Elec       q    Type
REMARK                         _______ _______ _______ _____ _____    ______ ____
ROOT
ATOM      1  C   LIG    1        2.382   0.837  -1.556  0.00  0.00    +0.020 C 
ATOM      2  C   LIG    1        2.024   0.507  -0.096  0.00  0.00    +0.011 C 
ATOM      3  C   LIG    1        2.741   1.475   0.737  0.00  0.00    -0.012 C 
ATOM      4  C   LIG    1        3.626   1.211   1.678  0.00  0.00    +0.047 C 
ATOM      5  C   LIG    1        3.962  -0.174   1.966  0.00  0.00    +0.179 C 
ATOM      6  O   LIG    1        4.802  -0.453   2.855  0.00  0.00    -0.288 OA
ATOM      7  C   LIG    1        3.280  -1.187   1.179  0.00  0.00    +0.051 C 
ATOM      8  C   LIG    1        2.396  -0.865   0.243  0.00  0.00    -0.056 C 
ATOM      9  C   LIG    1        1.707  -1.966  -0.463  0.00  0.00    +0.032 C 
ATOM     10  C   LIG    1        0.529  -1.478  -1.223  0.00  0.00    +0.008 C 
ATOM     11  C   LIG    1       -0.229  -0.342  -0.733  0.00  0.00    +0.000 C 
ATOM     12  C   LIG    1       -1.484  -0.539   0.029  0.00  0.00    +0.037 C 
ATOM     13  C   LIG    1       -2.246   0.794  -0.036  0.00  0.00    +0.114 C 
ATOM     14  O   LIG    1       -3.335   0.629   0.887  0.00  0.00    -0.458 OA
ATOM     15  C   LIG    1       -3.531  -0.582   1.560  0.00  0.00    +0.308 C 
ATOM     16  O   LIG    1       -3.859  -0.628   2.777  0.00  0.00    -0.251 OA
ATOM     17  C   LIG    1       -3.342  -1.865   0.805  0.00  0.00    +0.121 C 
ATOM     18  C   LIG    1       -1.458   1.962   0.435  0.00  0.00    +0.048 C 
ATOM     19  C   LIG    1       -0.022   2.007  -0.115  0.00  0.00    +0.009 C 
ATOM     20  C   LIG    1       -2.866   1.007  -1.389  0.00  0.00    +0.056 C 
ATOM     21  C   LIG    1       -2.390  -1.611  -0.377  0.00  0.00    +0.019 C 
ATOM     22  C   LIG    1        0.544   0.663   0.126  0.00  0.00    +0.006 C 
ENDROOT
TORSDOF 0
