REMARK  Name = molecules/BPKUDUSVDVLOPY-UHFFFAOYSA-N.pdb
REMARK                            x       y       z     vdW  Elec       q    Type
REMARK                         _______ _______ _______ _____ _____    ______ ____
ROOT
ATOM      1  O   LIG    1        0.031   0.749   2.491  0.00  0.00    -0.270 OA
ATOM      2  C   LIG    1        0.676   0.327   1.508  0.00  0.00    +0.270 C 
ATOM      3  N   LIG    1        2.018  -0.077   1.692  0.00  0.00    -0.279 N 
ATOM      4  H   LIG    1        2.447  -0.181   2.659  0.00  0.00    +0.155 HD
ATOM      5  C   LIG    1        2.825  -0.352   0.557  0.00  0.00    +0.076 A 
ATOM      6  C   LIG    1        4.158  -0.753   0.701  0.00  0.00    +0.027 A 
ATOM      7  C   LIG    1        4.919  -1.014  -0.400  0.00  0.00    +0.002 A 
ATOM      8  C   LIG    1        4.388  -0.887  -1.682  0.00  0.00    +0.004 A 
ATOM      9  C   LIG    1        3.091  -0.495  -1.781  0.00  0.00    +0.047 A 
ATOM     10  C   LIG    1        2.272  -0.218  -0.697  0.00  0.00    +0.144 A 
ATOM     11  O   LIG    1        0.958   0.177  -0.876  0.00  0.00    -0.465 OA
ATOM     12  C   LIG    1        0.031   0.256   0.181  0.00  0.00    +0.236 C 
ENDROOT
BRANCH  12  13
ATOM     13  C   LIG    1       -0.824  -0.967   0.065  0.00  0.00    +0.009 A 
ATOM     14  C   LIG    1       -0.977  -1.768   1.175  0.00  0.00    +0.012 A 
ATOM     15  C   LIG    1       -1.744  -2.908   1.162  0.00  0.00    +0.046 A 
ATOM     16  C   LIG    1       -2.366  -3.224  -0.032  0.00  0.00    +0.117 A 
ATOM     17  C   LIG    1       -2.230  -2.440  -1.158  0.00  0.00    +0.046 A 
ATOM     18  C   LIG    1       -1.455  -1.307  -1.106  0.00  0.00    +0.012 A 
BRANCH  16  19
ATOM     19  O   LIG    1       -3.154  -4.389  -0.060  0.00  0.00    -0.507 OA
ATOM     20  H   LIG    1       -3.627  -4.655  -0.915  0.00  0.00    +0.292 HD
ENDBRANCH  16  19
ENDBRANCH  12  13
BRANCH  12  21
ATOM     21  C   LIG    1       -0.843   1.447   0.061  0.00  0.00    +0.009 A 
ATOM     22  C   LIG    1       -1.903   1.625   0.913  0.00  0.00    +0.012 A 
ATOM     23  C   LIG    1       -2.726   2.748   0.796  0.00  0.00    +0.046 A 
ATOM     24  C   LIG    1       -2.488   3.693  -0.174  0.00  0.00    +0.117 A 
ATOM     25  C   LIG    1       -1.421   3.520  -1.037  0.00  0.00    +0.046 A 
ATOM     26  C   LIG    1       -0.607   2.391  -0.907  0.00  0.00    +0.012 A 
BRANCH  24  27
ATOM     27  O   LIG    1       -3.325   4.804  -0.268  0.00  0.00    -0.507 OA
ATOM     28  H   LIG    1       -3.094   5.653   0.266  0.00  0.00    +0.292 HD
ENDBRANCH  24  27
ENDBRANCH  12  21
TORSDOF 4
