REMARK  Name = molecules/BPRHUIZQVSMCRT-VEUZHWNKSA-N.pdb
REMARK                            x       y       z     vdW  Elec       q    Type
REMARK                         _______ _______ _______ _____ _____    ______ ____
ROOT
ATOM      1  C   LIG    1       -0.736   0.050  -0.416  0.00  0.00    +0.022 A 
ATOM      2  C   LIG    1       -1.093   1.283   0.005  0.00  0.00    +0.083 A 
ATOM      3  N   LIG    1       -2.400   1.709  -0.068  0.00  0.00    -0.212 NA
ATOM      4  C   LIG    1       -3.352   0.909  -0.564  0.00  0.00    +0.238 A 
ATOM      5  N   LIG    1       -2.981  -0.299  -0.978  0.00  0.00    -0.217 NA
ATOM      6  C   LIG    1       -1.750  -0.780  -0.938  0.00  0.00    +0.057 A 
ENDROOT
BRANCH   2   7
ATOM      7  C   LIG    1       -0.184   2.329   0.501  0.00  0.00    +0.001 A 
ATOM      8  C   LIG    1       -0.389   2.951   1.706  0.00  0.00    +0.013 A 
ATOM      9  C   LIG    1        0.436   3.920   2.187  0.00  0.00    +0.039 A 
ATOM     10  C   LIG    1        1.537   4.318   1.457  0.00  0.00    +0.123 A 
ATOM     11  F   LIG    1        2.368   5.289   1.934  0.00  0.00    -0.205 F 
ATOM     12  C   LIG    1        1.756   3.702   0.244  0.00  0.00    +0.039 A 
ATOM     13  C   LIG    1        0.929   2.726  -0.246  0.00  0.00    +0.013 A 
ENDBRANCH   2   7
BRANCH   6  14
ATOM     14  C   LIG    1       -1.419  -2.146  -1.421  0.00  0.00    +0.032 C 
ATOM     15  C   LIG    1       -0.937  -3.043  -0.296  0.00  0.00    +0.014 C 
ATOM     16  C   LIG    1       -2.693  -2.772  -1.954  0.00  0.00    +0.014 C 
ENDBRANCH   6  14
BRANCH   1  17
ATOM     17  C   LIG    1        0.555  -0.519  -0.233  0.00  0.00    +0.010 C 
ATOM     18  C   LIG    1        1.494  -0.153   0.580  0.00  0.00    +0.005 C 
BRANCH  18  19
ATOM     19  C   LIG    1        2.796  -0.852   0.644  0.00  0.00    +0.140 C 
BRANCH  19  20
ATOM     20  O   LIG    1        2.656  -1.967   1.463  0.00  0.00    -0.388 OA
ATOM     21  H   LIG    1        2.481  -2.741   0.869  0.00  0.00    +0.210 HD
ENDBRANCH  19  20
BRANCH  19  22
ATOM     22  C   LIG    1        3.344  -1.265  -0.679  0.00  0.00    +0.067 C 
BRANCH  22  23
ATOM     23  C   LIG    1        4.666  -1.963  -0.455  0.00  0.00    +0.128 C 
BRANCH  23  24
ATOM     24  O   LIG    1        5.207  -2.435  -1.655  0.00  0.00    -0.391 OA
ATOM     25  H   LIG    1        5.001  -3.391  -1.815  0.00  0.00    +0.210 HD
ENDBRANCH  23  24
BRANCH  23  26
ATOM     26  C   LIG    1        5.710  -1.140   0.213  0.00  0.00    +0.151 C 
BRANCH  26  27
ATOM     27  C   LIG    1        6.110   0.082  -0.478  0.00  0.00    +0.307 C 
ATOM     28  O   LIG    1        5.607   0.396  -1.577  0.00  0.00    -0.251 OA
BRANCH  27  29
ATOM     29  O   LIG    1        7.060   0.913   0.081  0.00  0.00    -0.481 OA
ATOM     30  H   LIG    1        6.847   1.832   0.461  0.00  0.00    +0.295 HD
ENDBRANCH  27  29
ENDBRANCH  26  27
ENDBRANCH  23  26
ENDBRANCH  22  23
ENDBRANCH  19  22
ENDBRANCH  18  19
ENDBRANCH   1  17
BRANCH   4  31
ATOM     31  N   LIG    1       -4.713   1.284  -0.667  0.00  0.00    -0.178 N 
ATOM     32  C   LIG    1       -5.179   1.925  -1.857  0.00  0.00    +0.160 C 
BRANCH  31  33
ATOM     33  S   LIG    1       -5.749   0.948   0.655  0.00  0.00    +0.045 S 
ATOM     34  O   LIG    1       -5.277   1.600   1.934  0.00  0.00    -0.155 OA
ATOM     35  C   LIG    1       -5.862  -0.798   0.985  0.00  0.00    +0.219 C 
ATOM     36  O   LIG    1       -7.142   1.464   0.385  0.00  0.00    -0.155 OA
ENDBRANCH  31  33
ENDBRANCH   4  31
TORSDOF 13
