REMARK  Name = molecules/BPZSYCZIITTYBL-YJYMSZOUSA-N.pdb
REMARK                            x       y       z     vdW  Elec       q    Type
REMARK                         _______ _______ _______ _____ _____    ______ ____
ROOT
ATOM      1  C   LIG    1       -1.744   0.637  -0.343  0.00  0.00    +0.158 C 
ENDROOT
BRANCH   1   3
ATOM      2  C   LIG    1       -3.055  -1.217  -1.443  0.00  0.00    +0.010 A 
ATOM      3  C   LIG    1       -3.008  -0.170  -0.558  0.00  0.00    -0.016 A 
ATOM      4  C   LIG    1       -4.172   0.131   0.145  0.00  0.00    +0.033 A 
ATOM      5  C   LIG    1       -5.338  -0.552   0.001  0.00  0.00    +0.075 A 
ATOM      6  C   LIG    1       -5.361  -1.619  -0.911  0.00  0.00    +0.138 A 
ATOM      7  C   LIG    1       -4.223  -1.922  -1.607  0.00  0.00    +0.047 A 
BRANCH   5   8
ATOM      8  N   LIG    1       -6.521  -0.253   0.706  0.00  0.00    -0.285 N 
ATOM      9  C   LIG    1       -6.712   0.756   1.659  0.00  0.00    +0.330 C 
ATOM     10  O   LIG    1       -5.807   1.531   1.998  0.00  0.00    -0.279 OA
ATOM     11  H   LIG    1       -7.402  -0.857   0.509  0.00  0.00    +0.155 HD
ENDBRANCH   5   8
BRANCH   6  12
ATOM     12  O   LIG    1       -6.541  -2.352  -1.093  0.00  0.00    -0.505 OA
ATOM     13  H   LIG    1       -6.510  -3.109  -1.758  0.00  0.00    +0.292 HD
ENDBRANCH   6  12
ENDBRANCH   1   3
BRANCH   1  14
ATOM     14  O   LIG    1       -2.187   1.982  -0.346  0.00  0.00    -0.386 OA
ATOM     15  H   LIG    1       -2.586   2.132  -1.241  0.00  0.00    +0.210 HD
ENDBRANCH   1  14
BRANCH   1  16
ATOM     16  C   LIG    1       -1.225   0.363   1.040  0.00  0.00    +0.117 C 
BRANCH  16  17
ATOM     17  N   LIG    1       -0.162   1.197   1.433  0.00  0.00    -0.310 NA
ATOM     18  H   LIG    1       -0.071   1.300   2.463  0.00  0.00    +0.122 HD
BRANCH  17  19
ATOM     19  C   LIG    1        1.107   1.051   0.806  0.00  0.00    +0.055 C 
ATOM     20  C   LIG    1        1.234   1.506  -0.595  0.00  0.00    +0.024 C 
BRANCH  19  21
ATOM     21  C   LIG    1        1.724  -0.295   1.016  0.00  0.00    +0.053 C 
BRANCH  21  22
ATOM     22  C   LIG    1        3.026  -0.366   0.343  0.00  0.00    -0.046 A 
ATOM     23  C   LIG    1        4.139   0.164   0.989  0.00  0.00    +0.007 A 
ATOM     24  C   LIG    1        5.386   0.151   0.409  0.00  0.00    +0.046 A 
ATOM     25  C   LIG    1        5.531  -0.398  -0.836  0.00  0.00    +0.120 A 
ATOM     26  C   LIG    1        4.453  -0.933  -1.506  0.00  0.00    +0.046 A 
ATOM     27  C   LIG    1        3.184  -0.914  -0.901  0.00  0.00    +0.007 A 
BRANCH  25  28
ATOM     28  O   LIG    1        6.767  -0.421  -1.435  0.00  0.00    -0.495 OA
ATOM     29  C   LIG    1        7.880   0.116  -0.777  0.00  0.00    +0.277 C 
ENDBRANCH  25  28
ENDBRANCH  21  22
ENDBRANCH  19  21
ENDBRANCH  17  19
ENDBRANCH  16  17
ENDBRANCH   1  16
TORSDOF 10
