REMARK  Name = molecules/BQDBKDMTIJBJLA-UHFFFAOYSA-N.pdb
REMARK                            x       y       z     vdW  Elec       q    Type
REMARK                         _______ _______ _______ _____ _____    ______ ____
ROOT
ATOM      1  C   LIG    1       -4.055   2.200  -0.827  0.00  0.00    +0.090 A 
ATOM      2  C   LIG    1       -5.056   2.290   0.104  0.00  0.00    +0.028 A 
ATOM      3  C   LIG    1       -4.858   1.701   1.359  0.00  0.00    +0.019 A 
ATOM      4  C   LIG    1       -3.707   1.054   1.659  0.00  0.00    +0.034 A 
ATOM      5  S   LIG    1       -3.573   0.335   3.272  0.00  0.00    -0.090 S 
ATOM      6  C   LIG    1       -1.970  -0.442   3.345  0.00  0.00    +0.016 C 
ATOM      7  C   LIG    1       -1.600  -1.080   4.511  0.00  0.00    +0.061 C 
ATOM      8  C   LIG    1       -0.368  -1.686   4.615  0.00  0.00    -0.021 C 
ATOM      9  C   LIG    1        0.506  -1.659   3.554  0.00  0.00    -0.020 C 
ATOM     10  C   LIG    1        0.090  -1.003   2.397  0.00  0.00    +0.069 C 
ATOM     11  C   LIG    1       -1.140  -0.384   2.256  0.00  0.00    +0.029 C 
ATOM     12  N   LIG    1       -1.442   0.260   1.018  0.00  0.00    -0.301 N 
ATOM     13  C   LIG    1       -2.675   0.939   0.756  0.00  0.00    +0.049 A 
ATOM     14  C   LIG    1       -2.892   1.531  -0.486  0.00  0.00    +0.051 A 
ENDROOT
BRANCH   1  16
ATOM     15  C   LIG    1       -4.988   1.729  -3.490  0.00  0.00    +0.200 C 
ATOM     16  S   LIG    1       -4.243   2.920  -2.416  0.00  0.00    -0.006 S 
ATOM     17  O   LIG    1       -5.037   4.201  -2.343  0.00  0.00    -0.170 OA
ATOM     18  O   LIG    1       -2.900   3.270  -3.001  0.00  0.00    -0.170 OA
ENDBRANCH   1  16
BRANCH  12  19
ATOM     19  C   LIG    1       -0.450   0.198  -0.032  0.00  0.00    +0.112 C 
BRANCH  19  20
ATOM     20  C   LIG    1       -0.407  -1.111  -0.771  0.00  0.00    +0.035 C 
BRANCH  20  21
ATOM     21  C   LIG    1        0.663  -1.039  -1.833  0.00  0.00    +0.086 C 
BRANCH  21  22
ATOM     22  N   LIG    1        1.968  -0.805  -1.291  0.00  0.00    -0.302 NA
ATOM     23  C   LIG    1        2.441  -1.982  -0.558  0.00  0.00    +0.085 C 
ATOM     24  C   LIG    1        3.561  -1.526   0.337  0.00  0.00    +0.028 C 
ATOM     25  C   LIG    1        4.629  -0.891  -0.496  0.00  0.00    +0.077 C 
ATOM     26  C   LIG    1        4.317  -1.053  -1.946  0.00  0.00    +0.028 C 
ATOM     27  C   LIG    1        2.953  -0.600  -2.360  0.00  0.00    +0.085 C 
BRANCH  25  28
ATOM     28  C   LIG    1        4.897   0.503  -0.106  0.00  0.00    +0.214 C 
ATOM     29  O   LIG    1        4.175   1.062   0.752  0.00  0.00    -0.276 OA
ATOM     30  N   LIG    1        5.962   1.243  -0.677  0.00  0.00    -0.329 N 
ATOM     31  H   LIG    1        6.963   1.070  -0.379  0.00  0.00    +0.145 HD
ATOM     32  H   LIG    1        5.824   1.975  -1.399  0.00  0.00    +0.145 HD
ENDBRANCH  25  28
ENDBRANCH  21  22
ENDBRANCH  20  21
ENDBRANCH  19  20
ENDBRANCH  12  19
TORSDOF 6
