REMARK  Name = molecules/BQJODPIMMWWMFC-UHFFFAOYSA-N.pdb
REMARK                            x       y       z     vdW  Elec       q    Type
REMARK                         _______ _______ _______ _____ _____    ______ ____
ROOT
ATOM      1  C   LIG    1        0.529  -0.675   0.897  0.00  0.00    +0.041 A 
ATOM      2  C   LIG    1        1.081  -1.378   1.980  0.00  0.00    +0.017 A 
ATOM      3  C   LIG    1        2.279  -1.040   2.560  0.00  0.00    +0.050 A 
ATOM      4  C   LIG    1        2.981   0.035   2.066  0.00  0.00    +0.158 A 
ATOM      5  C   LIG    1        2.490   0.754   1.013  0.00  0.00    +0.162 A 
ATOM      6  C   LIG    1        1.264   0.374   0.451  0.00  0.00    +0.062 A 
ENDROOT
BRANCH   1   7
ATOM      7  C   LIG    1       -0.746  -1.126   0.418  0.00  0.00    +0.247 C 
ATOM      8  O   LIG    1       -1.176  -2.252   0.944  0.00  0.00    -0.270 OA
ATOM      9  N   LIG    1       -1.651  -0.621  -0.504  0.00  0.00    -0.298 N 
BRANCH   9  10
ATOM     10  C   LIG    1       -2.870  -1.417  -0.765  0.00  0.00    +0.104 C 
ATOM     11  C   LIG    1       -3.986  -1.042   0.153  0.00  0.00    +0.024 C 
ENDBRANCH   9  10
BRANCH   9  12
ATOM     12  C   LIG    1       -1.523   0.601  -1.237  0.00  0.00    +0.104 C 
ATOM     13  C   LIG    1       -0.790   0.489  -2.544  0.00  0.00    +0.024 C 
ENDBRANCH   9  12
ENDBRANCH   1   7
BRANCH   4  14
ATOM     14  O   LIG    1        4.183   0.390   2.634  0.00  0.00    -0.503 OA
ATOM     15  H   LIG    1        4.574  -0.133   3.425  0.00  0.00    +0.292 HD
ENDBRANCH   4  14
BRANCH   5  16
ATOM     16  O   LIG    1        3.199   1.840   0.515  0.00  0.00    -0.491 OA
ATOM     17  C   LIG    1        2.662   2.577  -0.590  0.00  0.00    +0.277 C 
ENDBRANCH   5  16
TORSDOF 5
