REMARK  Name = molecules/BQSJTQLCZDPROO-UHFFFAOYSA-N.pdb
REMARK                            x       y       z     vdW  Elec       q    Type
REMARK                         _______ _______ _______ _____ _____    ______ ____
ROOT
ATOM      1  C   LIG    1        1.317   0.228  -0.318  0.00  0.00    +0.009 A 
ATOM      2  C   LIG    1        0.514  -0.876  -0.173  0.00  0.00    +0.014 A 
ATOM      3  C   LIG    1       -0.865  -0.739  -0.205  0.00  0.00    +0.047 A 
ATOM      4  C   LIG    1       -1.387   0.528  -0.386  0.00  0.00    +0.138 A 
ATOM      5  C   LIG    1       -0.584   1.624  -0.529  0.00  0.00    +0.094 A 
ATOM      6  C   LIG    1        0.795   1.485  -0.496  0.00  0.00    +0.033 A 
ENDROOT
BRANCH   1  11
ATOM      7  C   LIG    1        5.354   0.145  -0.266  0.00  0.00    +0.119 A 
ATOM      8  C   LIG    1        4.738  -1.079  -0.103  0.00  0.00    +0.060 A 
ATOM      9  C   LIG    1        5.567  -2.340   0.080  0.00  0.00    +0.067 C 
ATOM     10  N   LIG    1        3.443  -1.091  -0.114  0.00  0.00    -0.243 NA
ATOM     11  C   LIG    1        2.765   0.031  -0.276  0.00  0.00    +0.109 A 
ATOM     12  S   LIG    1        4.013   1.187  -0.423  0.00  0.00    -0.060 S 
BRANCH   7  13
ATOM     13  C   LIG    1        6.800   0.428  -0.291  0.00  0.00    +0.345 C 
ATOM     14  O   LIG    1        7.612  -0.513  -0.152  0.00  0.00    -0.244 OA
BRANCH  13  15
ATOM     15  O   LIG    1        7.241   1.727  -0.466  0.00  0.00    -0.477 OA
ATOM     16  H   LIG    1        6.585   2.499  -0.470  0.00  0.00    +0.295 HD
ENDBRANCH  13  15
ENDBRANCH   7  13
ENDBRANCH   1  11
BRANCH   5  17
ATOM     17  C   LIG    1       -1.186   2.917  -0.714  0.00  0.00    +0.103 C 
ATOM     18  N   LIG    1       -1.682   3.947  -0.867  0.00  0.00    -0.191 NA
ENDBRANCH   5  17
BRANCH   4  19
ATOM     19  O   LIG    1       -2.758   0.700  -0.423  0.00  0.00    -0.490 OA
BRANCH  19  20
ATOM     20  C   LIG    1       -3.643  -0.421  -0.277  0.00  0.00    +0.232 C 
BRANCH  20  21
ATOM     21  C   LIG    1       -5.047   0.161  -0.371  0.00  0.00    +0.020 C 
ATOM     22  C   LIG    1       -5.220   1.016   0.892  0.00  0.00    +0.010 C 
ATOM     23  C   LIG    1       -6.014  -0.997  -0.221  0.00  0.00    +0.010 C 
ENDBRANCH  20  21
ENDBRANCH  19  20
ENDBRANCH   4  19
TORSDOF 7
