REMARK  Name = molecules/BRBAEHHXGZRCBK-UHFFFAOYSA-N.pdb
REMARK                            x       y       z     vdW  Elec       q    Type
REMARK                         _______ _______ _______ _____ _____    ______ ____
ROOT
ATOM      1  C   LIG    1        0.126  -0.302  -0.002  0.00  0.00    +0.103 C 
ENDROOT
BRANCH   1   2
ATOM      2  C   LIG    1       -0.507   0.240   1.233  0.00  0.00    +0.283 C 
BRANCH   2   3
ATOM      3  O   LIG    1       -0.729   1.637   1.174  0.00  0.00    -0.351 OA
BRANCH   3   4
ATOM      4  N   LIG    1       -1.305   2.302   2.228  0.00  0.00    +0.217 N 
ATOM      5  O   LIG    1       -1.532   1.740   3.461  0.00  0.00    -0.090 OA
ATOM      6  O   LIG    1       -1.645   3.486   2.064  0.00  0.00    -0.090 OA
ENDBRANCH   3   4
ENDBRANCH   2   3
ENDBRANCH   1   2
BRANCH   1   7
ATOM      7  C   LIG    1        0.274  -1.799   0.162  0.00  0.00    +0.173 C 
BRANCH   7   8
ATOM      8  O   LIG    1        0.856  -2.394  -0.939  0.00  0.00    -0.394 OA
ATOM      9  H   LIG    1        0.208  -2.841  -1.532  0.00  0.00    +0.209 HD
ENDBRANCH   7   8
ENDBRANCH   1   7
BRANCH   1  10
ATOM     10  C   LIG    1        1.460   0.285  -0.321  0.00  0.00    +0.283 C 
BRANCH  10  11
ATOM     11  O   LIG    1        2.422   0.079   0.691  0.00  0.00    -0.351 OA
BRANCH  11  12
ATOM     12  N   LIG    1        3.688   0.580   0.498  0.00  0.00    +0.217 N 
ATOM     13  O   LIG    1        4.802  -0.079   0.967  0.00  0.00    -0.090 OA
ATOM     14  O   LIG    1        3.892   1.654  -0.110  0.00  0.00    -0.090 OA
ENDBRANCH  11  12
ENDBRANCH  10  11
ENDBRANCH   1  10
BRANCH   1  15
ATOM     15  C   LIG    1       -0.784  -0.009  -1.203  0.00  0.00    +0.283 C 
BRANCH  15  16
ATOM     16  O   LIG    1       -2.047  -0.617  -1.023  0.00  0.00    -0.351 OA
BRANCH  16  17
ATOM     17  N   LIG    1       -2.969  -0.440  -2.024  0.00  0.00    +0.217 N 
ATOM     18  O   LIG    1       -3.270   0.684  -2.480  0.00  0.00    -0.090 OA
ATOM     19  O   LIG    1       -3.584  -1.555  -2.543  0.00  0.00    -0.090 OA
ENDBRANCH  16  17
ENDBRANCH  15  16
ENDBRANCH   1  15
TORSDOF 11
