REMARK  Name = molecules/BRUQQQPBMZOVGD-XFKAJCMBSA-N.pdb
REMARK                            x       y       z     vdW  Elec       q    Type
REMARK                         _______ _______ _______ _____ _____    ______ ____
ROOT
ATOM      1  C   LIG    1       -1.470  -0.931  -0.009  0.00  0.00    +0.096 C 
ATOM      2  C   LIG    1       -1.117  -1.802   1.154  0.00  0.00    +0.045 C 
ATOM      3  C   LIG    1       -0.397  -3.034   0.715  0.00  0.00    +0.081 C 
ATOM      4  C   LIG    1        0.684  -2.768  -0.242  0.00  0.00    +0.175 C 
ATOM      5  O   LIG    1        1.750  -3.338  -0.138  0.00  0.00    -0.293 OA
ATOM      6  C   LIG    1        0.498  -1.808  -1.342  0.00  0.00    +0.252 C 
ATOM      7  O   LIG    1        1.775  -1.156  -1.526  0.00  0.00    -0.476 OA
ATOM      8  C   LIG    1        1.903  -0.193  -0.532  0.00  0.00    +0.167 A 
ATOM      9  C   LIG    1        2.945   0.468   0.114  0.00  0.00    +0.162 A 
ATOM     10  C   LIG    1        2.692   1.410   1.101  0.00  0.00    +0.050 A 
ATOM     11  C   LIG    1        1.380   1.698   1.450  0.00  0.00    +0.008 A 
ATOM     12  C   LIG    1        0.326   1.050   0.819  0.00  0.00    -0.038 A 
ATOM     13  C   LIG    1       -1.088   1.299   1.134  0.00  0.00    +0.057 C 
ATOM     14  C   LIG    1        0.648   0.143  -0.136  0.00  0.00    +0.014 A 
ATOM     15  C   LIG    1       -2.035   0.394   0.431  0.00  0.00    +0.093 C 
ATOM     16  N   LIG    1       -2.613   1.043  -0.675  0.00  0.00    -0.299 NA
ATOM     17  C   LIG    1       -3.404   2.170  -0.461  0.00  0.00    +0.105 C 
ATOM     18  C   LIG    1       -2.135   0.767  -1.959  0.00  0.00    +0.085 C 
ATOM     19  C   LIG    1       -0.788   0.187  -2.080  0.00  0.00    +0.034 C 
ATOM     20  C   LIG    1       -0.323  -0.644  -0.926  0.00  0.00    +0.075 C 
ENDROOT
BRANCH   1  21
ATOM     21  O   LIG    1       -2.458  -1.575  -0.751  0.00  0.00    -0.386 OA
ATOM     22  H   LIG    1       -2.022  -2.086  -1.464  0.00  0.00    +0.210 HD
ENDBRANCH   1  21
BRANCH   9  23
ATOM     23  O   LIG    1        4.243   0.139  -0.278  0.00  0.00    -0.491 OA
ATOM     24  C   LIG    1        5.330   0.791   0.357  0.00  0.00    +0.277 C 
ENDBRANCH   9  23
TORSDOF 2
