REMARK  Name = molecules/BRZANEXCSZCZCI-UHFFFAOYSA-N.pdb
REMARK                            x       y       z     vdW  Elec       q    Type
REMARK                         _______ _______ _______ _____ _____    ______ ____
ROOT
ATOM      1  C   LIG    1        0.678  -0.462  -0.723  0.00  0.00    +0.293 A 
ATOM      2  N   LIG    1        1.834   0.064  -0.247  0.00  0.00    -0.216 N 
ATOM      3  N   LIG    1        1.553   1.195   0.380  0.00  0.00    -0.282 N 
ATOM      4  C   LIG    1        2.536   2.059   1.030  0.00  0.00    +0.171 C 
ATOM      5  C   LIG    1        0.204   1.407   0.312  0.00  0.00    +0.059 A 
ATOM      6  C   LIG    1       -0.532   2.550   0.881  0.00  0.00    +0.067 C 
ATOM      7  C   LIG    1       -0.359   0.365  -0.383  0.00  0.00    +0.121 A 
ATOM      8  O   LIG    1        0.578  -1.534  -1.369  0.00  0.00    -0.264 OA
ENDROOT
BRANCH   2   9
ATOM      9  C   LIG    1        3.160  -0.479  -0.378  0.00  0.00    +0.067 A 
ATOM     10  C   LIG    1        3.744  -1.173   0.660  0.00  0.00    +0.028 A 
ATOM     11  C   LIG    1        5.026  -1.703   0.545  0.00  0.00    +0.002 A 
ATOM     12  C   LIG    1        5.745  -1.546  -0.612  0.00  0.00    +0.000 A 
ATOM     13  C   LIG    1        5.174  -0.856  -1.652  0.00  0.00    +0.002 A 
ATOM     14  C   LIG    1        3.887  -0.324  -1.536  0.00  0.00    +0.028 A 
ENDBRANCH   2   9
BRANCH   7  15
ATOM     15  N   LIG    1       -1.741   0.200  -0.678  0.00  0.00    -0.276 N 
ATOM     16  C   LIG    1       -2.632  -0.475   0.155  0.00  0.00    +0.250 C 
ATOM     17  O   LIG    1       -2.214  -0.974   1.238  0.00  0.00    -0.270 OA
ATOM     18  H   LIG    1       -2.116   0.620  -1.583  0.00  0.00    +0.155 HD
BRANCH  16  19
ATOM     19  C   LIG    1       -4.031  -0.631  -0.168  0.00  0.00    +0.055 A 
ATOM     20  C   LIG    1       -4.964  -0.949   0.830  0.00  0.00    +0.016 A 
ATOM     21  C   LIG    1       -6.290  -1.087   0.512  0.00  0.00    +0.020 A 
ATOM     22  C   LIG    1       -6.665  -0.906  -0.800  0.00  0.00    +0.111 A 
ATOM     23  N   LIG    1       -5.781  -0.603  -1.754  0.00  0.00    -0.263 NA
ATOM     24  C   LIG    1       -4.479  -0.465  -1.455  0.00  0.00    +0.123 A 
ENDBRANCH  16  19
ENDBRANCH   7  15
TORSDOF 3
