REMARK  Name = molecules/BSMCAPRUBJMWDF-KRWDZBQOSA-N.pdb
REMARK                            x       y       z     vdW  Elec       q    Type
REMARK                         _______ _______ _______ _____ _____    ______ ____
ROOT
ATOM      1  C   LIG    1        3.131  -0.638   1.773  0.00  0.00    +0.082 A 
ATOM      2  C   LIG    1        3.853  -0.629   2.949  0.00  0.00    +0.180 A 
ATOM      3  C   LIG    1        3.241  -0.613   4.181  0.00  0.00    +0.160 A 
ATOM      4  F   LIG    1        3.954  -0.604   5.339  0.00  0.00    -0.202 F 
ATOM      5  C   LIG    1        1.866  -0.605   4.202  0.00  0.00    +0.042 A 
ATOM      6  C   LIG    1        1.133  -0.613   3.000  0.00  0.00    +0.018 A 
ATOM      7  F   LIG    1        5.207  -0.637   2.920  0.00  0.00    -0.201 F 
ATOM      8  C   LIG    1        1.741  -0.630   1.774  0.00  0.00    +0.061 A 
ENDROOT
BRANCH   8   9
ATOM      9  C   LIG    1        1.000  -0.627   0.533  0.00  0.00    +0.249 C 
ATOM     10  N   LIG    1       -0.409  -0.652   0.426  0.00  0.00    -0.292 N 
ATOM     11  C   LIG    1       -1.650  -0.717   1.135  0.00  0.00    +0.146 C 
ATOM     12  C   LIG    1       -2.280  -1.343  -0.098  0.00  0.00    +0.112 C 
ATOM     13  C   LIG    1       -1.213  -0.623  -0.818  0.00  0.00    +0.146 C 
ATOM     14  O   LIG    1        1.711  -0.598  -0.554  0.00  0.00    -0.270 OA
BRANCH  12  15
ATOM     15  C   LIG    1       -3.711  -0.847  -0.351  0.00  0.00    +0.088 C 
ATOM     16  N   LIG    1       -3.688   0.554  -0.314  0.00  0.00    -0.311 NA
ATOM     17  H   LIG    1       -3.827   0.990   0.624  0.00  0.00    +0.122 HD
ATOM     18  C   LIG    1       -4.174   1.290  -1.407  0.00  0.00    +0.081 C 
ATOM     19  C   LIG    1       -5.239   0.624  -2.223  0.00  0.00    +0.015 C 
ATOM     20  C   LIG    1       -4.649  -0.695  -2.689  0.00  0.00    +0.003 C 
ATOM     21  C   LIG    1       -4.310  -1.525  -1.507  0.00  0.00    +0.021 C 
ENDBRANCH  12  15
BRANCH  12  22
ATOM     22  O   LIG    1       -2.143  -2.710  -0.105  0.00  0.00    -0.384 OA
ATOM     23  H   LIG    1       -1.699  -3.011  -0.939  0.00  0.00    +0.210 HD
ENDBRANCH  12  22
ENDBRANCH   8   9
BRANCH   1  24
ATOM     24  N   LIG    1        3.812  -0.651   0.509  0.00  0.00    -0.309 N 
ATOM     25  H   LIG    1        4.020  -1.577   0.099  0.00  0.00    +0.152 HD
BRANCH  24  28
ATOM     26  C   LIG    1        4.241   2.943  -0.195  0.00  0.00    +0.016 A 
ATOM     27  C   LIG    1        3.909   1.744   0.392  0.00  0.00    +0.027 A 
ATOM     28  C   LIG    1        4.192   0.517  -0.164  0.00  0.00    +0.067 A 
ATOM     29  C   LIG    1        4.845   0.519  -1.375  0.00  0.00    +0.145 A 
ATOM     30  F   LIG    1        5.154  -0.637  -1.977  0.00  0.00    -0.204 F 
ATOM     31  C   LIG    1        5.190   1.729  -1.984  0.00  0.00    +0.054 A 
ATOM     32  C   LIG    1        4.892   2.939  -1.399  0.00  0.00    +0.016 A 
ATOM     33  I   LIG    1        5.428   4.763  -2.348  0.00  0.00    -0.044 I 
ENDBRANCH  24  28
ENDBRANCH   1  24
TORSDOF 5
