REMARK  Name = molecules/BUGYDGFZZOZRHP-CDECOKDKSA-N.pdb
REMARK                            x       y       z     vdW  Elec       q    Type
REMARK                         _______ _______ _______ _____ _____    ______ ____
ROOT
ATOM      1  C   LIG    1        0.991   1.137  -0.636  0.00  0.00    +0.028 C 
ATOM      2  C   LIG    1        1.385  -0.200  -0.055  0.00  0.00    -0.030 C 
ATOM      3  C   LIG    1        1.130  -0.184   1.435  0.00  0.00    +0.010 C 
ATOM      4  C   LIG    1       -0.290   0.204   1.732  0.00  0.00    -0.008 C 
ATOM      5  C   LIG    1       -1.178  -0.891   1.133  0.00  0.00    +0.010 C 
ATOM      6  C   LIG    1       -0.894  -1.039  -0.333  0.00  0.00    -0.030 C 
ATOM      7  C   LIG    1       -1.767  -2.191  -0.837  0.00  0.00    +0.011 C 
ATOM      8  C   LIG    1       -1.264   0.252  -1.047  0.00  0.00    +0.028 C 
ATOM      9  C   LIG    1       -0.708   1.489   1.064  0.00  0.00    +0.025 C 
ATOM     10  C   LIG    1        2.861  -0.389  -0.328  0.00  0.00    +0.011 C 
ATOM     11  C   LIG    1        0.552  -1.306  -0.642  0.00  0.00    +0.013 C 
ATOM     12  C   LIG    1       -0.496   1.374  -0.418  0.00  0.00    +0.018 C 
ENDROOT
BRANCH  12  13
ATOM     13  N   LIG    1       -0.808   2.651  -1.012  0.00  0.00    -0.325 NA
ATOM     14  H   LIG    1       -1.731   2.950  -0.612  0.00  0.00    +0.119 HD
ATOM     15  H   LIG    1       -0.042   3.314  -0.686  0.00  0.00    +0.119 HD
ENDBRANCH  12  13
TORSDOF 1
