REMARK  Name = molecules/BUJAGSGYPOAWEI-VIFPVBQESA-N.pdb
REMARK                            x       y       z     vdW  Elec       q    Type
REMARK                         _______ _______ _______ _____ _____    ______ ____
ROOT
ATOM      1  N   LIG    1        0.294  -0.016  -0.625  0.00  0.00    -0.284 N 
ATOM      2  C   LIG    1        1.305   0.473   0.242  0.00  0.00    +0.234 C 
ATOM      3  O   LIG    1        0.985   0.879   1.401  0.00  0.00    -0.274 OA
ATOM      4  H   LIG    1        0.535  -0.354  -1.577  0.00  0.00    +0.155 HD
ENDROOT
BRANCH   1   5
ATOM      5  C   LIG    1       -1.066  -0.061  -0.227  0.00  0.00    +0.039 A 
ATOM      6  C   LIG    1       -1.546  -1.191   0.396  0.00  0.00    -0.029 A 
ATOM      7  C   LIG    1       -2.871  -1.220   0.776  0.00  0.00    +0.005 A 
ATOM      8  C   LIG    1       -3.716  -0.142   0.545  0.00  0.00    +0.001 A 
ATOM      9  C   LIG    1       -3.208   0.984  -0.084  0.00  0.00    +0.005 A 
ATOM     10  C   LIG    1       -0.632  -2.339   0.638  0.00  0.00    +0.045 C 
ATOM     11  C   LIG    1       -1.890   1.038  -0.474  0.00  0.00    -0.029 A 
ATOM     12  C   LIG    1       -1.285   2.206  -1.147  0.00  0.00    +0.045 C 
ENDBRANCH   1   5
BRANCH   2  13
ATOM     13  C   LIG    1        2.731   0.537  -0.131  0.00  0.00    +0.135 C 
ATOM     14  C   LIG    1        3.296  -0.791  -0.549  0.00  0.00    +0.033 C 
BRANCH  13  15
ATOM     15  N   LIG    1        3.543   1.073   0.930  0.00  0.00    -0.320 NA
ATOM     16  H   LIG    1        2.882   1.597   1.574  0.00  0.00    +0.119 HD
ATOM     17  H   LIG    1        4.009   0.336   1.501  0.00  0.00    +0.119 HD
ENDBRANCH  13  15
ENDBRANCH   2  13
TORSDOF 3
