REMARK  Name = molecules/BULMIDNYAWYAMZ-UWTATZPHSA-N.pdb
REMARK                            x       y       z     vdW  Elec       q    Type
REMARK                         _______ _______ _______ _____ _____    ______ ____
ROOT
ATOM      1  C   LIG    1       -1.546  -0.064   0.661  0.00  0.00    +0.255 C 
ENDROOT
BRANCH   1   2
ATOM      2  N   LIG    1       -0.380  -0.435  -0.070  0.00  0.00    -0.271 N 
ATOM      3  C   LIG    1        0.892   0.079   0.262  0.00  0.00    +0.301 C 
ATOM      4  O   LIG    1        1.011   0.880   1.218  0.00  0.00    -0.253 OA
ATOM      5  N   LIG    1        2.065  -0.291  -0.469  0.00  0.00    -0.302 N 
ATOM      6  C   LIG    1        3.366   0.226  -0.140  0.00  0.00    +0.129 C 
ATOM      7  H   LIG    1        1.988  -0.963  -1.276  0.00  0.00    +0.150 HD
ATOM      8  H   LIG    1       -0.449  -1.095  -0.864  0.00  0.00    +0.153 HD
ENDBRANCH   1   2
BRANCH   1   9
ATOM      9  C   LIG    1       -2.644   0.522  -0.197  0.00  0.00    +0.232 C 
ATOM     10 CL   LIG    1       -3.983   0.960   0.914  0.00  0.00    -0.079 Cl
ATOM     11 CL   LIG    1       -2.151   1.978  -1.050  0.00  0.00    -0.079 Cl
ATOM     12 CL   LIG    1       -3.286  -0.692  -1.330  0.00  0.00    -0.079 Cl
ENDBRANCH   1   9
BRANCH   1  13
ATOM     13  O   LIG    1       -2.096  -1.214   1.267  0.00  0.00    -0.370 OA
ATOM     14  H   LIG    1       -2.673  -1.629   0.576  0.00  0.00    +0.212 HD
ENDBRANCH   1  13
TORSDOF 3
