REMARK  Name = molecules/BVAZQCUMNICBAQ-PZHYSIFUSA-N.pdb
REMARK                            x       y       z     vdW  Elec       q    Type
REMARK                         _______ _______ _______ _____ _____    ______ ____
ROOT
ATOM      1  C   LIG    1        1.273  -0.849   0.349  0.00  0.00    +0.040 A 
ATOM      2  C   LIG    1        2.044   0.245   0.624  0.00  0.00    +0.133 A 
ATOM      3  C   LIG    1        3.410   0.064   0.816  0.00  0.00    +0.056 A 
ATOM      4  C   LIG    1        4.002  -1.179   0.735  0.00  0.00    +0.005 A 
ATOM      5  C   LIG    1        3.199  -2.251   0.458  0.00  0.00    +0.011 A 
ATOM      6  O   LIG    1        1.428   1.460   0.692  0.00  0.00    -0.464 OA
ATOM      7  C   LIG    1        0.056   1.752   0.545  0.00  0.00    +0.308 C 
ATOM      8  N   LIG    1       -0.727   0.603   0.222  0.00  0.00    -0.300 N 
ATOM      9  C   LIG    1       -2.032   0.439  -0.042  0.00  0.00    +0.053 A 
ATOM     10  C   LIG    1       -3.118   1.287  -0.130  0.00  0.00    +0.027 A 
ATOM     11  C   LIG    1       -4.412   0.845  -0.445  0.00  0.00    +0.012 A 
ATOM     12  C   LIG    1       -4.631  -0.481  -0.678  0.00  0.00    +0.003 A 
ATOM     13  C   LIG    1       -3.567  -1.348  -0.596  0.00  0.00    +0.020 A 
ATOM     14  C   LIG    1       -2.300  -0.901  -0.286  0.00  0.00    +0.001 A 
ATOM     15  C   LIG    1       -1.105  -1.569  -0.164  0.00  0.00    +0.036 A 
ATOM     16  C   LIG    1        1.833  -2.107   0.263  0.00  0.00    +0.014 A 
ATOM     17  C   LIG    1       -0.156  -0.608   0.150  0.00  0.00    +0.057 A 
ENDROOT
BRANCH   4  18
ATOM     18  C   LIG    1        5.456  -1.329   0.889  0.00  0.00    +0.089 A 
ATOM     19  N   LIG    1        6.363  -0.386   1.200  0.00  0.00    -0.231 NA
ATOM     20  C   LIG    1        7.616  -0.877   1.205  0.00  0.00    +0.128 A 
ATOM     21  N   LIG    1        7.485  -2.168   0.889  0.00  0.00    -0.346 N 
ATOM     22  H   LIG    1        8.293  -2.846   0.811  0.00  0.00    +0.167 HD
ATOM     23  C   LIG    1        6.183  -2.472   0.691  0.00  0.00    +0.112 A 
BRANCH  20  24
ATOM     24  C   LIG    1        8.852  -0.079   1.514  0.00  0.00    +0.142 C 
ATOM     25  C   LIG    1        8.398   1.343   1.911  0.00  0.00    +0.032 C 
ATOM     26  C   LIG    1        7.814   1.833   0.603  0.00  0.00    +0.021 C 
ATOM     27  C   LIG    1        8.331   0.895  -0.458  0.00  0.00    +0.108 C 
ATOM     28  N   LIG    1        9.493   0.209   0.259  0.00  0.00    -0.290 N 
ATOM     29  C   LIG    1       10.743   0.070  -0.313  0.00  0.00    +0.237 C 
ATOM     30  O   LIG    1       10.861   0.654  -1.487  0.00  0.00    -0.274 OA
BRANCH  29  31
ATOM     31  C   LIG    1       11.940  -0.594   0.148  0.00  0.00    +0.165 C 
BRANCH  31  32
ATOM     32  N   LIG    1       13.100   0.307  -0.055  0.00  0.00    -0.270 N 
ATOM     33  H   LIG    1       13.296   0.940   0.743  0.00  0.00    +0.153 HD
ATOM     34  C   LIG    1       13.862   0.275  -1.257  0.00  0.00    +0.401 C 
ATOM     35  O   LIG    1       13.640  -0.486  -2.219  0.00  0.00    -0.226 OA
BRANCH  34  36
ATOM     36  O   LIG    1       14.932   1.168  -1.361  0.00  0.00    -0.454 OA
ATOM     37  C   LIG    1       15.753   1.224  -2.533  0.00  0.00    +0.282 C 
ENDBRANCH  34  36
ENDBRANCH  31  32
BRANCH  31  38
ATOM     38  C   LIG    1       12.002  -1.334   1.400  0.00  0.00    +0.012 C 
ATOM     39  C   LIG    1       13.449  -1.861   1.563  0.00  0.00    +0.009 C 
ATOM     40  C   LIG    1       11.140  -2.588   1.274  0.00  0.00    +0.009 C 
ENDBRANCH  31  38
ENDBRANCH  29  31
ENDBRANCH  20  24
ENDBRANCH   4  18
BRANCH  12  41
ATOM     41  C   LIG    1       -5.939  -0.996  -0.997  0.00  0.00    +0.089 A 
ATOM     42  C   LIG    1       -6.290  -2.356  -1.072  0.00  0.00    +0.112 A 
ATOM     43  N   LIG    1       -7.590  -2.463  -1.369  0.00  0.00    -0.346 N 
ATOM     44  H   LIG    1       -8.123  -3.346  -1.483  0.00  0.00    +0.167 HD
ATOM     45  C   LIG    1       -8.093  -1.224  -1.488  0.00  0.00    +0.128 A 
ATOM     46  N   LIG    1       -7.089  -0.364  -1.261  0.00  0.00    -0.231 NA
BRANCH  45  47
ATOM     47  C   LIG    1       -9.521  -0.881  -1.850  0.00  0.00    +0.142 C 
ATOM     48  N   LIG    1       -9.853   0.316  -1.155  0.00  0.00    -0.290 N 
ATOM     49  C   LIG    1      -10.669   0.554  -0.019  0.00  0.00    +0.237 C 
ATOM     50  O   LIG    1      -10.692   1.757   0.428  0.00  0.00    -0.274 OA
ATOM     51  C   LIG    1       -9.103   1.375  -1.859  0.00  0.00    +0.108 C 
ATOM     52  C   LIG    1       -8.770   0.857  -3.217  0.00  0.00    +0.021 C 
ATOM     53  C   LIG    1       -9.548  -0.455  -3.303  0.00  0.00    +0.032 C 
BRANCH  49  54
ATOM     54  C   LIG    1      -11.488  -0.423   0.698  0.00  0.00    +0.165 C 
BRANCH  54  55
ATOM     55  N   LIG    1      -11.672   0.026   2.101  0.00  0.00    -0.270 N 
ATOM     56  C   LIG    1      -11.198  -0.811   3.130  0.00  0.00    +0.401 C 
ATOM     57  O   LIG    1      -10.626  -1.915   2.869  0.00  0.00    -0.226 OA
ATOM     58  H   LIG    1      -12.136   0.921   2.303  0.00  0.00    +0.153 HD
BRANCH  56  59
ATOM     59  O   LIG    1      -11.316  -0.496   4.482  0.00  0.00    -0.454 OA
ATOM     60  C   LIG    1      -10.798  -1.404   5.466  0.00  0.00    +0.282 C 
ENDBRANCH  56  59
ENDBRANCH  54  55
BRANCH  54  61
ATOM     61  C   LIG    1      -12.892  -0.583   0.126  0.00  0.00    +0.012 C 
ATOM     62  C   LIG    1      -13.757   0.628   0.383  0.00  0.00    +0.009 C 
ATOM     63  C   LIG    1      -12.903  -1.032  -1.296  0.00  0.00    +0.009 C 
ENDBRANCH  54  61
ENDBRANCH  49  54
ENDBRANCH  45  47
ENDBRANCH  12  41
BRANCH   7  64
ATOM     64  C   LIG    1       -0.049   2.876  -0.395  0.00  0.00    +0.014 A 
ATOM     65  C   LIG    1       -0.742   4.008  -0.047  0.00  0.00    +0.009 A 
ATOM     66  C   LIG    1       -0.853   5.098  -0.883  0.00  0.00    +0.000 A 
ATOM     67  C   LIG    1       -0.257   5.068  -2.110  0.00  0.00    +0.000 A 
ATOM     68  C   LIG    1        0.449   3.949  -2.497  0.00  0.00    +0.000 A 
ATOM     69  C   LIG    1        0.548   2.861  -1.635  0.00  0.00    +0.009 A 
ENDBRANCH   7  64
TORSDOF 13
