REMARK  Name = molecules/BVISQZFBLRSESR-XSCWXTNMSA-N.pdb
REMARK                            x       y       z     vdW  Elec       q    Type
REMARK                         _______ _______ _______ _____ _____    ______ ____
ROOT
ATOM      1  N   LIG    1      -10.928  -4.205   0.000  0.00  0.00    -0.138 NA
ATOM      2  C   LIG    1      -10.616  -5.672   0.000  0.00  0.00    +0.110 C 
ATOM      3  C   LIG    1      -12.083  -5.984   0.000  0.00  0.00    +0.029 C 
ENDROOT
TORSDOF 0
REMARK  Name = molecules/BVISQZFBLRSESR-XSCWXTNMSA-N.pdb
REMARK                            x       y       z     vdW  Elec       q    Type
REMARK                         _______ _______ _______ _____ _____    ______ ____
ROOT
ATOM      1  C   LIG    1       -7.301  -3.229   0.000  0.00  0.00    +0.043 C 
ENDROOT
BRANCH   1   2
ATOM      2  C   LIG    1       -7.125  -1.863   0.000  0.00  0.00    +0.144 C 
ATOM      3  O   LIG    1       -5.882  -2.702   0.000  0.00  0.00    -0.224 OA
ATOM      4  C   LIG    1       -6.662  -0.437   0.000  0.00  0.00    +0.040 C 
ENDBRANCH   1   2
BRANCH   1   5
ATOM      5  C   LIG    1       -6.989  -4.696   0.000  0.00  0.00    +0.013 C 
BRANCH   5   7
ATOM      6  N   LIG    1       -8.145  -6.475   0.000  0.00  0.00    -0.137 NA
ATOM      7  C   LIG    1       -6.678  -6.163   0.000  0.00  0.00    +0.121 C 
ENDBRANCH   5   7
ENDBRANCH   1   5
TORSDOF 3
REMARK  Name = molecules/BVISQZFBLRSESR-XSCWXTNMSA-N.pdb
REMARK                            x       y       z     vdW  Elec       q    Type
REMARK                         _______ _______ _______ _____ _____    ______ ____
ROOT
ATOM      1  N   LIG    1       -4.939  -8.094   0.000  0.00  0.00    -0.304 NA
ATOM      2  C   LIG    1       -3.884  -8.226   0.000  0.00  0.00    +0.016 C 
ATOM      3  N   LIG    1       -4.123  -7.359   0.000  0.00  0.00    +0.409 N 
ATOM      4  H   LIG    1       -4.426  -6.684   0.000  0.00  0.00    -0.052 HD
ATOM      5  C   LIG    1       -3.420  -6.799   0.000  0.00  0.00    -0.069 C 
ENDROOT
TORSDOF 0
REMARK  Name = molecules/BVISQZFBLRSESR-XSCWXTNMSA-N.pdb
REMARK                            x       y       z     vdW  Elec       q    Type
REMARK                         _______ _______ _______ _____ _____    ______ ____
ROOT
ATOM      1  C   LIG    1       -2.385  -9.290   0.000  0.00  0.00    +0.084 C 
ATOM      2  C   LIG    1       -3.160  -9.249   0.000  0.00  0.00    -0.001 C 
ATOM      3  C   LIG    1       -3.811  -8.826   0.000  0.00  0.00    +0.023 C 
ENDROOT
BRANCH   1   4
ATOM      4  N   LIG    1       -2.156 -10.364   0.000  0.00  0.00    -0.275 NA
ATOM      5  H   LIG    1       -3.179 -10.562   0.000  0.00  0.00    +0.169 HD
ENDBRANCH   1   4
TORSDOF 1
REMARK  Name = molecules/BVISQZFBLRSESR-XSCWXTNMSA-N.pdb
REMARK                            x       y       z     vdW  Elec       q    Type
REMARK                         _______ _______ _______ _____ _____    ______ ____
ROOT
ATOM      1  N   LIG    1       -0.881 -13.721   0.000  0.00  0.00    -0.273 NA
ATOM      2  H   LIG    1       -0.583 -14.436   0.000  0.00  0.00    +0.137 HD
ATOM      3  H   LIG    1       -0.118 -12.827   0.000  0.00  0.00    +0.137 HD
ENDROOT
TORSDOF 0
REMARK  Name = molecules/BVISQZFBLRSESR-XSCWXTNMSA-N.pdb
REMARK                            x       y       z     vdW  Elec       q    Type
REMARK                         _______ _______ _______ _____ _____    ______ ____
ROOT
ATOM      1  N   LIG    1        0.005 -11.643   0.000  0.00  0.00    +0.000 NA
ENDROOT
TORSDOF 0
REMARK  Name = molecules/BVISQZFBLRSESR-XSCWXTNMSA-N.pdb
REMARK                            x       y       z     vdW  Elec       q    Type
REMARK                         _______ _______ _______ _____ _____    ______ ____
ROOT
ATOM      1  C   LIG    1        4.436 -10.140   0.000  0.00  0.00    +0.098 C 
ENDROOT
BRANCH   1   2
ATOM      2  N   LIG    1        3.010  -9.677   0.000  0.00  0.00    -0.221 NA
BRANCH   2   3
ATOM      3  C   LIG    1        2.939 -11.020   0.000  0.00  0.00    +0.124 C 
BRANCH   3   4
ATOM      4  C   LIG    1        3.973 -11.567   0.000  0.00  0.00    +0.204 C 
BRANCH   4   5
ATOM      5  O   LIG    1        3.321 -12.163   0.000  0.00  0.00    -0.187 OA
BRANCH   5   6
ATOM      6  O   LIG    1        2.712 -11.938   0.000  0.00  0.00    -0.032 OA
ATOM      7  O   LIG    1        2.491 -11.332   0.000  0.00  0.00    -0.002 OA
ENDBRANCH   5   6
ENDBRANCH   4   5
ENDBRANCH   3   4
ENDBRANCH   2   3
ENDBRANCH   1   2
BRANCH   1   8
ATOM      8  C   LIG    1        4.900  -8.714   0.000  0.00  0.00    +0.026 C 
BRANCH   8   9
ATOM      9  C   LIG    1        5.364  -7.287   0.000  0.00  0.00    -0.010 C 
ATOM     10  C   LIG    1        6.790  -7.751   0.000  0.00  0.00    +0.008 C 
ENDBRANCH   8   9
ENDBRANCH   1   8
BRANCH   1  11
ATOM     11  C   LIG    1        4.366 -11.483   0.000  0.00  0.00    +0.080 C 
BRANCH  11  12
ATOM     12  N   LIG    1        4.977 -12.682   0.000  0.00  0.00    -0.300 NA
ATOM     13  C   LIG    1        5.793 -11.947   0.000  0.00  0.00    +0.091 C 
ATOM     14  H   LIG    1        4.080 -12.956   0.000  0.00  0.00    +0.123 HD
ENDBRANCH  11  12
ENDBRANCH   1  11
TORSDOF 9
REMARK  Name = molecules/BVISQZFBLRSESR-XSCWXTNMSA-N.pdb
REMARK                            x       y       z     vdW  Elec       q    Type
REMARK                         _______ _______ _______ _____ _____    ______ ____
ROOT
ATOM      1  N   LIG    1        1.972 -14.648   0.000  0.00  0.00    -0.109 NA
ATOM      2  C   LIG    1        3.087 -13.645   0.000  0.00  0.00    +0.218 C 
ATOM      3  N   LIG    1        2.476 -12.446   0.000  0.00  0.00    -0.109 NA
ENDROOT
TORSDOF 0
REMARK  Name = molecules/BVISQZFBLRSESR-XSCWXTNMSA-N.pdb
REMARK                            x       y       z     vdW  Elec       q    Type
REMARK                         _______ _______ _______ _____ _____    ______ ____
ROOT
ATOM      1  N   LIG    1        1.201  -9.089   0.000  0.00  0.00    -0.163 NA
ATOM      2  H   LIG    1        0.573  -8.721   0.000  0.00  0.00    +0.163 HD
ENDROOT
TORSDOF 0
REMARK  Name = molecules/BVISQZFBLRSESR-XSCWXTNMSA-N.pdb
REMARK                            x       y       z     vdW  Elec       q    Type
REMARK                         _______ _______ _______ _____ _____    ______ ____
ROOT
ATOM      1  N   LIG    1        1.705  -6.887   0.000  0.00  0.00    -0.244 NA
ATOM      2  C   LIG    1        0.238  -7.199   0.000  0.00  0.00    +0.103 C 
ATOM      3  H   LIG    1        2.316  -8.085   0.000  0.00  0.00    +0.141 HD
ENDROOT
TORSDOF 0
REMARK  Name = molecules/BVISQZFBLRSESR-XSCWXTNMSA-N.pdb
REMARK                            x       y       z     vdW  Elec       q    Type
REMARK                         _______ _______ _______ _____ _____    ______ ____
ROOT
ATOM      1  N   LIG    1        4.099  -3.722   0.000  0.00  0.00    -0.273 NA
ATOM      2  H   LIG    1        3.448  -3.299   0.000  0.00  0.00    +0.137 HD
ATOM      3  H   LIG    1        4.724  -3.540   0.000  0.00  0.00    +0.137 HD
ENDROOT
TORSDOF 0
REMARK  Name = molecules/BVISQZFBLRSESR-XSCWXTNMSA-N.pdb
REMARK                            x       y       z     vdW  Elec       q    Type
REMARK                         _______ _______ _______ _____ _____    ______ ____
ROOT
ATOM      1  N   LIG    1        2.825  -0.365   0.000  0.00  0.00    +0.000 NA
ENDROOT
TORSDOF 0
REMARK  Name = molecules/BVISQZFBLRSESR-XSCWXTNMSA-N.pdb
REMARK                            x       y       z     vdW  Elec       q    Type
REMARK                         _______ _______ _______ _____ _____    ______ ____
ROOT
ATOM      1  N   LIG    1        1.938  -2.442   0.000  0.00  0.00    -0.163 NA
ATOM      2  H   LIG    1        1.640  -1.727   0.000  0.00  0.00    +0.163 HD
ENDROOT
TORSDOF 0
REMARK  Name = molecules/BVISQZFBLRSESR-XSCWXTNMSA-N.pdb
REMARK                            x       y       z     vdW  Elec       q    Type
REMARK                         _______ _______ _______ _____ _____    ______ ____
ROOT
ATOM      1  N   LIG    1       -1.067  -4.409   0.000  0.00  0.00    -0.273 NA
ATOM      2  H   LIG    1       -1.455  -5.091   0.000  0.00  0.00    +0.137 HD
ATOM      3  H   LIG    1       -0.967  -3.483   0.000  0.00  0.00    +0.137 HD
ENDROOT
TORSDOF 0
REMARK  Name = molecules/BVISQZFBLRSESR-XSCWXTNMSA-N.pdb
REMARK                            x       y       z     vdW  Elec       q    Type
REMARK                         _______ _______ _______ _____ _____    ______ ____
ROOT
ATOM      1  N   LIG    1       -3.033  -1.404   0.000  0.00  0.00    -0.163 NA
ATOM      2  H   LIG    1       -3.496  -1.847   0.000  0.00  0.00    +0.163 HD
ENDROOT
TORSDOF 0
REMARK  Name = molecules/BVISQZFBLRSESR-XSCWXTNMSA-N.pdb
REMARK                            x       y       z     vdW  Elec       q    Type
REMARK                         _______ _______ _______ _____ _____    ______ ____
ROOT
ATOM      1  N   LIG    1       -0.029   0.562   0.000  0.00  0.00    -0.273 NA
ATOM      2  H   LIG    1       -0.974   0.670   0.000  0.00  0.00    +0.137 HD
ATOM      3  H   LIG    1       -0.038  -0.446   0.000  0.00  0.00    +0.137 HD
ENDROOT
TORSDOF 0
REMARK  Name = molecules/BVISQZFBLRSESR-XSCWXTNMSA-N.pdb
REMARK                            x       y       z     vdW  Elec       q    Type
REMARK                         _______ _______ _______ _____ _____    ______ ____
ROOT
ATOM      1  N   LIG    1        3.329   1.837   0.000  0.00  0.00    -0.344 NA
ATOM      2  H   LIG    1        3.147   2.462   0.000  0.00  0.00    +0.115 HD
ATOM      3  H   LIG    1        4.253   1.642   0.000  0.00  0.00    +0.115 HD
ATOM      4  H   LIG    1        2.194   1.959   0.000  0.00  0.00    +0.115 HD
ENDROOT
TORSDOF 0
REMARK  Name = molecules/BVISQZFBLRSESR-XSCWXTNMSA-N.pdb
REMARK                            x       y       z     vdW  Elec       q    Type
REMARK                         _______ _______ _______ _____ _____    ______ ____
ROOT
ATOM      1  N   LIG    1        2.054   5.195   0.000  0.00  0.00    -0.163 NA
ATOM      2  H   LIG    1        3.034   5.076   0.000  0.00  0.00    +0.163 HD
ENDROOT
TORSDOF 0
REMARK  Name = molecules/BVISQZFBLRSESR-XSCWXTNMSA-N.pdb
REMARK                            x       y       z     vdW  Elec       q    Type
REMARK                         _______ _______ _______ _____ _____    ______ ____
ROOT
ATOM      1  N   LIG    1       -1.304   3.920   0.000  0.00  0.00    -0.157 NA
ATOM      2  C   LIG    1       -1.344   3.144   0.000  0.00  0.00    +0.059 C 
ATOM      3  C   LIG    1       -1.767   2.493   0.000  0.00  0.00    +0.049 C 
ATOM      4  C   LIG    1       -0.609   2.328   0.000  0.00  0.00    +0.049 C 
ENDROOT
TORSDOF 0
REMARK  Name = molecules/BVISQZFBLRSESR-XSCWXTNMSA-N.pdb
REMARK                            x       y       z     vdW  Elec       q    Type
REMARK                         _______ _______ _______ _____ _____    ______ ____
ROOT
ATOM      1  N   LIG    1       -4.308   1.953   0.000  0.00  0.00    -0.273 NA
ATOM      2  H   LIG    1       -4.707   2.467   0.000  0.00  0.00    +0.137 HD
ATOM      3  H   LIG    1       -4.029   0.909   0.000  0.00  0.00    +0.137 HD
ENDROOT
TORSDOF 0
REMARK  Name = molecules/BVISQZFBLRSESR-XSCWXTNMSA-N.pdb
REMARK                            x       y       z     vdW  Elec       q    Type
REMARK                         _______ _______ _______ _____ _____    ______ ____
ROOT
ATOM      1  N   LIG    1       -6.275   4.958   0.000  0.00  0.00    +0.382 N 
ATOM      2  C   LIG    1       -7.091   4.223   0.000  0.00  0.00    -0.106 C 
ATOM      3  H   LIG    1       -5.378   5.232   0.000  0.00  0.00    -0.085 HD
ATOM      4  H   LIG    1       -6.987   5.719   0.000  0.00  0.00    -0.085 HD
ENDROOT
BRANCH   1   5
ATOM      5  C   LIG    1       -5.665   3.760   0.000  0.00  0.00    -0.086 C 
ATOM      6  C   LIG    1       -5.735   2.416   0.000  0.00  0.00    -0.021 C 
ENDBRANCH   1   5
TORSDOF 1
REMARK  Name = molecules/BVISQZFBLRSESR-XSCWXTNMSA-N.pdb
REMARK                            x       y       z     vdW  Elec       q    Type
REMARK                         _______ _______ _______ _____ _____    ______ ____
ROOT
ATOM      1  N   LIG    1       -3.270   6.925   0.000  0.00  0.00    -0.273 NA
ATOM      2  H   LIG    1       -4.144   7.102   0.000  0.00  0.00    +0.137 HD
ATOM      3  H   LIG    1       -3.642   8.185   0.000  0.00  0.00    +0.137 HD
ENDROOT
TORSDOF 0
REMARK  Name = molecules/BVISQZFBLRSESR-XSCWXTNMSA-N.pdb
REMARK                            x       y       z     vdW  Elec       q    Type
REMARK                         _______ _______ _______ _____ _____    ______ ____
ROOT
ATOM      1  C   LIG    1       -4.238   3.296   0.000  0.00  0.00    +0.172 C 
ENDROOT
BRANCH   1   2
ATOM      2  C   LIG    1       -3.194   2.957   0.000  0.00  0.00    +0.034 C 
ATOM      3  C   LIG    1       -2.771   3.608   0.000  0.00  0.00    +0.003 C 
ENDBRANCH   1   2
BRANCH   1   4
ATOM      4  O   LIG    1       -3.777   3.974   0.000  0.00  0.00    -0.270 OA
BRANCH   4   5
ATOM      5  N   LIG    1       -3.774   4.723   0.000  0.00  0.00    -0.111 NA
ATOM      6  H   LIG    1       -3.734   5.498   0.000  0.00  0.00    +0.176 HD
ENDBRANCH   4   5
ENDBRANCH   1   4
BRANCH   1   7
ATOM      7  C   LIG    1       -5.271   3.843   0.000  0.00  0.00    +0.213 C 
BRANCH   7   8
ATOM      8  O   LIG    1       -4.620   4.439   0.000  0.00  0.00    -0.221 OA
BRANCH   8   9
ATOM      9  O   LIG    1       -4.011   4.215   0.000  0.00  0.00    -0.249 OA
ATOM     10  H   LIG    1       -3.673   4.806   0.000  0.00  0.00    +0.253 HD
ENDBRANCH   8   9
ENDBRANCH   7   8
ENDBRANCH   1   7
TORSDOF 6
REMARK  Name = molecules/BVISQZFBLRSESR-XSCWXTNMSA-N.pdb
REMARK                            x       y       z     vdW  Elec       q    Type
REMARK                         _______ _______ _______ _____ _____    ______ ____
ROOT
ATOM      1  N   LIG    1       -2.499   1.365   0.000  0.00  0.00    -0.163 NA
ATOM      2  H   LIG    1       -1.875   1.547   0.000  0.00  0.00    +0.163 HD
ENDROOT
TORSDOF 0
REMARK  Name = molecules/BVISQZFBLRSESR-XSCWXTNMSA-N.pdb
REMARK                            x       y       z     vdW  Elec       q    Type
REMARK                         _______ _______ _______ _____ _____    ______ ____
ROOT
ATOM      1  N   LIG    1        0.858   2.640   0.000  0.00  0.00    -0.344 NA
ATOM      2  H   LIG    1        1.372   3.038   0.000  0.00  0.00    +0.115 HD
ATOM      3  H   LIG    1       -0.072   2.349   0.000  0.00  0.00    +0.115 HD
ATOM      4  H   LIG    1        0.722   1.861   0.000  0.00  0.00    +0.115 HD
ENDROOT
TORSDOF 0
REMARK  Name = molecules/BVISQZFBLRSESR-XSCWXTNMSA-N.pdb
REMARK                            x       y       z     vdW  Elec       q    Type
REMARK                         _______ _______ _______ _____ _____    ______ ____
ROOT
ATOM      1  N   LIG    1       -0.417   5.997   0.000  0.00  0.00    -0.244 NA
ATOM      2  C   LIG    1        0.627   5.658   0.000  0.00  0.00    +0.103 C 
ATOM      3  H   LIG    1       -0.811   4.930   0.000  0.00  0.00    +0.141 HD
ENDROOT
TORSDOF 0
REMARK  Name = molecules/BVISQZFBLRSESR-XSCWXTNMSA-N.pdb
REMARK                            x       y       z     vdW  Elec       q    Type
REMARK                         _______ _______ _______ _____ _____    ______ ____
ROOT
ATOM      1  C   LIG    1       -0.494   9.965   0.000  0.00  0.00    -0.022 C 
ATOM      2  C   LIG    1       -0.917   9.314   0.000  0.00  0.00    +0.026 C 
ATOM      3  C   LIG    1       -0.453  10.741   0.000  0.00  0.00    -0.004 C 
ENDROOT
TORSDOF 0
REMARK  Name = molecules/BVISQZFBLRSESR-XSCWXTNMSA-N.pdb
REMARK                            x       y       z     vdW  Elec       q    Type
REMARK                         _______ _______ _______ _____ _____    ______ ____
ROOT
ATOM      1  N   LIG    1       -3.659  12.360   0.000  0.00  0.00    -0.273 NA
ATOM      2  H   LIG    1       -3.084  11.200   0.000  0.00  0.00    +0.137 HD
ATOM      3  H   LIG    1       -2.729  12.650   0.000  0.00  0.00    +0.137 HD
ENDROOT
TORSDOF 0
REMARK  Name = molecules/BVISQZFBLRSESR-XSCWXTNMSA-N.pdb
REMARK                            x       y       z     vdW  Elec       q    Type
REMARK                         _______ _______ _______ _____ _____    ______ ____
ROOT
ATOM      1  N   LIG    1       -7.016  11.085   0.000  0.00  0.00    -0.163 NA
ATOM      2  H   LIG    1       -6.677  12.129   0.000  0.00  0.00    +0.163 HD
ENDROOT
TORSDOF 0
REMARK  Name = molecules/BVISQZFBLRSESR-XSCWXTNMSA-N.pdb
REMARK                            x       y       z     vdW  Elec       q    Type
REMARK                         _______ _______ _______ _____ _____    ______ ____
ROOT
ATOM      1  N   LIG    1       -9.218  11.589   0.000  0.00  0.00    -0.138 NA
ATOM      2  C   LIG    1      -10.645  12.052   0.000  0.00  0.00    +0.117 C 
ATOM      3  C   LIG    1      -11.108  10.626   0.000  0.00  0.00    +0.021 C 
ENDROOT
TORSDOF 0
REMARK  Name = molecules/BVISQZFBLRSESR-XSCWXTNMSA-N.pdb
REMARK                            x       y       z     vdW  Elec       q    Type
REMARK                         _______ _______ _______ _____ _____    ______ ____
ROOT
ATOM      1  C   LIG    1       -9.295  15.557   0.000  0.00  0.00    +0.219 C 
ATOM      2  N   LIG    1       -8.180  16.560   0.000  0.00  0.00    -0.099 NA
ENDROOT
BRANCH   1   4
ATOM      3  N   LIG    1      -11.185  14.594   0.000  0.00  0.00    -0.132 NA
ATOM      4  C   LIG    1      -10.721  16.020   0.000  0.00  0.00    +0.178 C 
BRANCH   4   5
ATOM      5  C   LIG    1      -12.148  16.484   0.000  0.00  0.00    +0.178 C 
ATOM      6  O   LIG    1      -11.684  17.910   0.000  0.00  0.00    -0.230 OA
ATOM      7  C   LIG    1      -13.575  16.947   0.000  0.00  0.00    +0.043 C 
ENDBRANCH   4   5
ENDBRANCH   1   4
BRANCH   1   8
ATOM      8  O   LIG    1       -8.684  14.358   0.000  0.00  0.00    -0.362 OA
BRANCH   8   9
ATOM      9  C   LIG    1       -7.217  14.670   0.000  0.00  0.00    +0.068 C 
BRANCH   9  10
ATOM     10  N   LIG    1       -6.213  13.556   0.000  0.00  0.00    +0.399 N 
ATOM     11  C   LIG    1       -5.085  12.823   0.000  0.00  0.00    -0.100 C 
ATOM     12  H   LIG    1       -6.582  12.928   0.000  0.00  0.00    -0.081 HD
ATOM     13  H   LIG    1       -6.048  14.713   0.000  0.00  0.00    -0.081 HD
ENDBRANCH   9  10
ENDBRANCH   8   9
ENDBRANCH   1   8
TORSDOF 5
REMARK  Name = molecules/BVISQZFBLRSESR-XSCWXTNMSA-N.pdb
REMARK                            x       y       z     vdW  Elec       q    Type
REMARK                         _______ _______ _______ _____ _____    ______ ____
ROOT
ATOM      1  N   LIG    1       -2.384   9.002   0.000  0.00  0.00    -0.356 N 
ATOM      2  H   LIG    1       -3.138   8.506   0.000  0.00  0.00    +0.142 HD
ATOM      3  H   LIG    1       -2.997   9.213   0.000  0.00  0.00    +0.142 HD
ENDROOT
BRANCH   1   5
ATOM      4  C   LIG    1       -1.920  10.429   0.000  0.00  0.00    +0.017 C 
ATOM      5  C   LIG    1       -2.343   9.778   0.000  0.00  0.00    +0.055 C 
ENDBRANCH   1   5
TORSDOF 1
REMARK  Name = molecules/BVISQZFBLRSESR-XSCWXTNMSA-N.pdb
REMARK                            x       y       z     vdW  Elec       q    Type
REMARK                         _______ _______ _______ _____ _____    ______ ____
ROOT
ATOM      1  C   LIG    1       -3.347  10.892   0.000  0.00  0.00    +0.000 C 
ATOM      2  C   LIG    1       -4.163  10.158   0.000  0.00  0.00    +0.000 C 
ENDROOT
TORSDOF 0
REMARK  Name = molecules/BVISQZFBLRSESR-XSCWXTNMSA-N.pdb
REMARK                            x       y       z     vdW  Elec       q    Type
REMARK                         _______ _______ _______ _____ _____    ______ ____
ROOT
ATOM      1  O   HOH    1       -4.671  10.188   0.000  0.00  0.00    -0.253 OA
ATOM      2  H   HOH    0       -5.419  10.554   0.000  0.00  0.00    +0.253 HD
ENDROOT
TORSDOF 0
REMARK  Name = molecules/BVISQZFBLRSESR-XSCWXTNMSA-N.pdb
REMARK                            x       y       z     vdW  Elec       q    Type
REMARK                         _______ _______ _______ _____ _____    ______ ____
ROOT
ATOM      1  C   LIG    1       -1.457  11.855   0.000  0.00  0.00    +0.000 C 
ENDROOT
TORSDOF 0
REMARK  Name = molecules/BVISQZFBLRSESR-XSCWXTNMSA-N.pdb
REMARK                            x       y       z     vdW  Elec       q    Type
REMARK                         _______ _______ _______ _____ _____    ______ ____
ROOT
ATOM      1  C   LIG    1       -9.148  -5.360   0.000  0.00  0.00    +0.000 C 
ENDROOT
TORSDOF 0
REMARK  Name = molecules/BVISQZFBLRSESR-XSCWXTNMSA-N.pdb
REMARK                            x       y       z     vdW  Elec       q    Type
REMARK                         _______ _______ _______ _____ _____    ______ ____
ROOT
ATOM      1  O   HOH    1       -9.044  -3.864   0.000  0.00  0.00    -0.410 OA
ATOM      2  H   HOH    0       -9.699  -3.345   0.000  0.00  0.00    +0.205 HD
ATOM      3  H   HOH    0       -8.488  -4.644   0.000  0.00  0.00    +0.205 HD
ENDROOT
TORSDOF 0
REMARK  Name = molecules/BVISQZFBLRSESR-XSCWXTNMSA-N.pdb
REMARK                            x       y       z     vdW  Elec       q    Type
REMARK                         _______ _______ _______ _____ _____    ______ ____
ROOT
ATOM      1  C   LIG    1       -6.366  -7.630   0.000  0.00  0.00    +0.225 C 
ATOM      2  O   LIG    1       -5.383  -8.173   0.000  0.00  0.00    -0.225 OA
ENDROOT
TORSDOF 0
REMARK  Name = molecules/BVISQZFBLRSESR-XSCWXTNMSA-N.pdb
REMARK                            x       y       z     vdW  Elec       q    Type
REMARK                         _______ _______ _______ _____ _____    ______ ____
ROOT
ATOM      1  C   LIG    1       -5.522  -4.384   0.000  0.00  0.00    -0.000 C 
ENDROOT
TORSDOF 0
REMARK  Name = molecules/BVISQZFBLRSESR-XSCWXTNMSA-N.pdb
REMARK                            x       y       z     vdW  Elec       q    Type
REMARK                         _______ _______ _______ _____ _____    ______ ____
ROOT
ATOM      1  O   HOH    1       -7.594  -8.491   0.000  0.00  0.00    -0.253 OA
ATOM      2  H   HOH    0       -8.565  -9.070   0.000  0.00  0.00    +0.253 HD
ENDROOT
TORSDOF 0
REMARK  Name = molecules/BVISQZFBLRSESR-XSCWXTNMSA-N.pdb
REMARK                            x       y       z     vdW  Elec       q    Type
REMARK                         _______ _______ _______ _____ _____    ______ ____
ROOT
ATOM      1  C   LIG    1       -6.094  -9.873   0.000  0.00  0.00    +0.086 C 
ATOM      2  C   LIG    1       -6.899 -10.400   0.000  0.00  0.00    +0.203 C 
ATOM      3  O   LIG    1       -7.562 -10.185   0.000  0.00  0.00    -0.289 OA
ENDROOT
TORSDOF 0
REMARK  Name = molecules/BVISQZFBLRSESR-XSCWXTNMSA-N.pdb
REMARK                            x       y       z     vdW  Elec       q    Type
REMARK                         _______ _______ _______ _____ _____    ______ ____
ROOT
ATOM      1  C   LIG    1       -4.627  -9.561   0.000  0.00  0.00    +0.000 C 
ENDROOT
TORSDOF 0
REMARK  Name = molecules/BVISQZFBLRSESR-XSCWXTNMSA-N.pdb
REMARK                            x       y       z     vdW  Elec       q    Type
REMARK                         _______ _______ _______ _____ _____    ______ ____
ROOT
ATOM      1  O   HOH    1       -2.526  -7.890   0.000  0.00  0.00    -0.253 OA
ATOM      2  H   HOH    0       -1.590  -8.018   0.000  0.00  0.00    +0.253 HD
ENDROOT
TORSDOF 0
REMARK  Name = molecules/BVISQZFBLRSESR-XSCWXTNMSA-N.pdb
REMARK                            x       y       z     vdW  Elec       q    Type
REMARK                         _______ _______ _______ _____ _____    ______ ____
ROOT
ATOM      1  C   LIG    1       -1.193 -12.254   0.000  0.00  0.00    +0.005 C 
ATOM      2  C   LIG    1       -1.616 -12.905   0.000  0.00  0.00    -0.005 C 
ENDROOT
TORSDOF 0
REMARK  Name = molecules/BVISQZFBLRSESR-XSCWXTNMSA-N.pdb
REMARK                            x       y       z     vdW  Elec       q    Type
REMARK                         _______ _______ _______ _____ _____    ______ ____
ROOT
ATOM      1  C   LIG    1       -4.046 -11.327   0.000  0.00  0.00    -0.000 C 
ENDROOT
TORSDOF 0
REMARK  Name = molecules/BVISQZFBLRSESR-XSCWXTNMSA-N.pdb
REMARK                            x       y       z     vdW  Elec       q    Type
REMARK                         _______ _______ _______ _____ _____    ______ ____
ROOT
ATOM      1  C   LIG    1       -5.473 -10.864   0.000  0.00  0.00    +0.000 C 
ENDROOT
TORSDOF 0
REMARK  Name = molecules/BVISQZFBLRSESR-XSCWXTNMSA-N.pdb
REMARK                            x       y       z     vdW  Elec       q    Type
REMARK                         _______ _______ _______ _____ _____    ______ ____
ROOT
ATOM      1  O   HOH    1       -8.014 -11.404   0.000  0.00  0.00    +0.000 OA
ENDROOT
TORSDOF 0
REMARK  Name = molecules/BVISQZFBLRSESR-XSCWXTNMSA-N.pdb
REMARK                            x       y       z     vdW  Elec       q    Type
REMARK                         _______ _______ _______ _____ _____    ______ ____
ROOT
ATOM      1  O   HOH    1       -7.388  -8.982   0.000  0.00  0.00    -0.253 OA
ATOM      2  H   HOH    0       -6.752  -8.525   0.000  0.00  0.00    +0.253 HD
ENDROOT
TORSDOF 0
REMARK  Name = molecules/BVISQZFBLRSESR-XSCWXTNMSA-N.pdb
REMARK                            x       y       z     vdW  Elec       q    Type
REMARK                         _______ _______ _______ _____ _____    ______ ____
ROOT
ATOM      1  C   LIG    1       -2.620 -11.791   0.000  0.00  0.00    +0.000 C 
ENDROOT
TORSDOF 0
REMARK  Name = molecules/BVISQZFBLRSESR-XSCWXTNMSA-N.pdb
REMARK                            x       y       z     vdW  Elec       q    Type
REMARK                         _______ _______ _______ _____ _____    ______ ____
ROOT
ATOM      1  O   LIG    1       -0.209 -11.122   0.000  0.00  0.00    +0.000 OA
ATOM      2  O   LIG    1       -0.123 -11.774   0.000  0.00  0.00    +0.000 OA
ENDROOT
TORSDOF 0
REMARK  Name = molecules/BVISQZFBLRSESR-XSCWXTNMSA-N.pdb
REMARK                            x       y       z     vdW  Elec       q    Type
REMARK                         _______ _______ _______ _____ _____    ______ ____
ROOT
ATOM      1  C   LIG    1        1.009 -12.758   0.000  0.00  0.00    +0.000 C 
ENDROOT
TORSDOF 0
REMARK  Name = molecules/BVISQZFBLRSESR-XSCWXTNMSA-N.pdb
REMARK                            x       y       z     vdW  Elec       q    Type
REMARK                         _______ _______ _______ _____ _____    ______ ____
ROOT
ATOM      1  C   LIG    1        0.082 -15.611   0.000  0.00  0.00    +0.000 C 
ATOM      2  C   LIG    1        0.545 -14.185   0.000  0.00  0.00    +0.000 C 
ENDROOT
TORSDOF 0
REMARK  Name = molecules/BVISQZFBLRSESR-XSCWXTNMSA-N.pdb
REMARK                            x       y       z     vdW  Elec       q    Type
REMARK                         _______ _______ _______ _____ _____    ______ ____
ROOT
ATOM      1  C   LIG    1       -0.382 -17.038   0.000  0.00  0.00    +0.000 C 
ATOM      2  C   LIG    1       -1.808 -17.502   0.000  0.00  0.00    +0.000 C 
ENDROOT
TORSDOF 0
REMARK  Name = molecules/BVISQZFBLRSESR-XSCWXTNMSA-N.pdb
REMARK                            x       y       z     vdW  Elec       q    Type
REMARK                         _______ _______ _______ _____ _____    ______ ____
ROOT
ATOM      1  N   LIG    1       -1.808 -19.002   0.000  0.00  0.00    -0.130 NA
ATOM      2  C   LIG    1       -0.382 -19.465   0.000  0.00  0.00    +0.130 C 
ENDROOT
TORSDOF 0
REMARK  Name = molecules/BVISQZFBLRSESR-XSCWXTNMSA-N.pdb
REMARK                            x       y       z     vdW  Elec       q    Type
REMARK                         _______ _______ _______ _____ _____    ______ ____
ROOT
ATOM      1  N   LIG    1        0.500 -18.252   0.000  0.00  0.00    -0.221 NA
ATOM      2  C   LIG    1       -0.382 -19.465   0.000  0.00  0.00    +0.199 A 
ATOM      3  N   LIG    1       -1.808 -19.002   0.000  0.00  0.00    -0.221 NA
ATOM      4  C   LIG    1       -1.808 -17.502   0.000  0.00  0.00    +0.121 A 
ATOM      5  C   LIG    1       -0.382 -17.038   0.000  0.00  0.00    +0.121 A 
ENDROOT
TORSDOF 0
REMARK  Name = molecules/BVISQZFBLRSESR-XSCWXTNMSA-N.pdb
REMARK                            x       y       z     vdW  Elec       q    Type
REMARK                         _______ _______ _______ _____ _____    ______ ____
ROOT
ATOM      1  O   HOH    1        2.267 -11.941   0.000  0.00  0.00    +0.000 OA
ENDROOT
TORSDOF 0
REMARK  Name = molecules/BVISQZFBLRSESR-XSCWXTNMSA-N.pdb
REMARK                            x       y       z     vdW  Elec       q    Type
REMARK                         _______ _______ _______ _____ _____    ______ ____
ROOT
ATOM      1  C   LIG    1        1.895 -10.681   0.000  0.00  0.00    +0.000 C 
ENDROOT
TORSDOF 0
REMARK  Name = molecules/BVISQZFBLRSESR-XSCWXTNMSA-N.pdb
REMARK                            x       y       z     vdW  Elec       q    Type
REMARK                         _______ _______ _______ _____ _____    ______ ____
ROOT
ATOM      1  C   LIG    1       -0.958  -9.753   0.000  0.00  0.00    +0.000 C 
ENDROOT
TORSDOF 0
REMARK  Name = molecules/BVISQZFBLRSESR-XSCWXTNMSA-N.pdb
REMARK                            x       y       z     vdW  Elec       q    Type
REMARK                         _______ _______ _______ _____ _____    ______ ____
ROOT
ATOM      1  O   HOH    1       -5.212  -9.364   0.000  0.00  0.00    +0.000 OA
ENDROOT
TORSDOF 0
REMARK  Name = molecules/BVISQZFBLRSESR-XSCWXTNMSA-N.pdb
REMARK                            x       y       z     vdW  Elec       q    Type
REMARK                         _______ _______ _______ _____ _____    ______ ____
ROOT
ATOM      1  C   LIG    1        0.469 -10.217   0.000  0.00  0.00    +0.009 C 
ATOM      2  C   LIG    1        1.513 -10.556   0.000  0.00  0.00    -0.009 C 
ENDROOT
TORSDOF 0
REMARK  Name = molecules/BVISQZFBLRSESR-XSCWXTNMSA-N.pdb
REMARK                            x       y       z     vdW  Elec       q    Type
REMARK                         _______ _______ _______ _____ _____    ______ ____
ROOT
ATOM      1  C   LIG    1        5.827  -5.861   0.000  0.00  0.00    +0.000 C 
ENDROOT
TORSDOF 0
REMARK  Name = molecules/BVISQZFBLRSESR-XSCWXTNMSA-N.pdb
REMARK                            x       y       z     vdW  Elec       q    Type
REMARK                         _______ _______ _______ _____ _____    ______ ____
ROOT
ATOM      1  C   LIG    1        8.793 -15.499   0.000  0.00  0.00    +0.000 C 
ENDROOT
TORSDOF 0
REMARK  Name = molecules/BVISQZFBLRSESR-XSCWXTNMSA-N.pdb
REMARK                            x       y       z     vdW  Elec       q    Type
REMARK                         _______ _______ _______ _____ _____    ______ ____
ROOT
ATOM      1  C   LIG    1        5.940 -14.572   0.000  0.00  0.00    +0.000 C 
ATOM      2  C   LIG    1        7.366 -15.035   0.000  0.00  0.00    +0.000 C 
ENDROOT
TORSDOF 0
REMARK  Name = molecules/BVISQZFBLRSESR-XSCWXTNMSA-N.pdb
REMARK                            x       y       z     vdW  Elec       q    Type
REMARK                         _______ _______ _______ _____ _____    ______ ____
ROOT
ATOM      1  C   LIG    1        4.513 -14.108   0.000  0.00  0.00    +0.000 C 
ENDROOT
TORSDOF 0
REMARK  Name = molecules/BVISQZFBLRSESR-XSCWXTNMSA-N.pdb
REMARK                            x       y       z     vdW  Elec       q    Type
REMARK                         _______ _______ _______ _____ _____    ______ ____
ROOT
ATOM      1  C   LIG    1        6.903 -16.462   0.000  0.00  0.00    +0.000 C 
ENDROOT
TORSDOF 0
REMARK  Name = molecules/BVISQZFBLRSESR-XSCWXTNMSA-N.pdb
REMARK                            x       y       z     vdW  Elec       q    Type
REMARK                         _______ _______ _______ _____ _____    ______ ____
ROOT
ATOM      1  C   LIG    1        1.009 -12.758   0.000  0.00  0.00    +0.000 C 
ENDROOT
TORSDOF 0
REMARK  Name = molecules/BVISQZFBLRSESR-XSCWXTNMSA-N.pdb
REMARK                            x       y       z     vdW  Elec       q    Type
REMARK                         _______ _______ _______ _____ _____    ______ ____
ROOT
ATOM      1  C   LIG    1        0.082 -15.611   0.000  0.00  0.00    +0.000 C 
ATOM      2  C   LIG    1        0.545 -14.185   0.000  0.00  0.00    +0.000 C 
ENDROOT
TORSDOF 0
REMARK  Name = molecules/BVISQZFBLRSESR-XSCWXTNMSA-N.pdb
REMARK                            x       y       z     vdW  Elec       q    Type
REMARK                         _______ _______ _______ _____ _____    ______ ____
ROOT
ATOM      1  N   LIG    1        0.500 -18.252   0.000  0.00  0.00    +0.000 NA
ENDROOT
TORSDOF 0
REMARK  Name = molecules/BVISQZFBLRSESR-XSCWXTNMSA-N.pdb
REMARK                            x       y       z     vdW  Elec       q    Type
REMARK                         _______ _______ _______ _____ _____    ______ ____
ROOT
ATOM      1  O   HOH    1        6.105 -13.414   0.000  0.00  0.00    -0.253 OA
ATOM      2  H   HOH    0        6.884 -13.406   0.000  0.00  0.00    +0.253 HD
ENDROOT
TORSDOF 0
REMARK  Name = molecules/BVISQZFBLRSESR-XSCWXTNMSA-N.pdb
REMARK                            x       y       z     vdW  Elec       q    Type
REMARK                         _______ _______ _______ _____ _____    ______ ____
ROOT
ATOM      1  O   HOH    1        6.907 -10.943   0.000  0.00  0.00    -0.253 OA
ATOM      2  H   HOH    0        5.863 -10.604   0.000  0.00  0.00    +0.253 HD
ENDROOT
TORSDOF 0
REMARK  Name = molecules/BVISQZFBLRSESR-XSCWXTNMSA-N.pdb
REMARK                            x       y       z     vdW  Elec       q    Type
REMARK                         _______ _______ _______ _____ _____    ______ ____
ROOT
ATOM      1  O   HOH    1        0.832 -11.893   0.000  0.00  0.00    -0.253 OA
ATOM      2  H   HOH    0        0.207 -12.113   0.000  0.00  0.00    +0.253 HD
ENDROOT
TORSDOF 0
REMARK  Name = molecules/BVISQZFBLRSESR-XSCWXTNMSA-N.pdb
REMARK                            x       y       z     vdW  Elec       q    Type
REMARK                         _______ _______ _______ _____ _____    ______ ____
ROOT
ATOM      1  C   LIG    1       -1.153 -11.479   0.000  0.00  0.00    +0.000 C 
ENDROOT
TORSDOF 0
REMARK  Name = molecules/BVISQZFBLRSESR-XSCWXTNMSA-N.pdb
REMARK                            x       y       z     vdW  Elec       q    Type
REMARK                         _______ _______ _______ _____ _____    ______ ____
ROOT
ATOM      1  C   LIG    1       -0.689 -10.052   0.000  0.00  0.00    +0.000 C 
ENDROOT
TORSDOF 0
REMARK  Name = molecules/BVISQZFBLRSESR-XSCWXTNMSA-N.pdb
REMARK                            x       y       z     vdW  Elec       q    Type
REMARK                         _______ _______ _______ _____ _____    ______ ____
ROOT
ATOM      1  C   LIG    1       -0.226  -8.626   0.000  0.00  0.00    +0.000 C 
ENDROOT
TORSDOF 0
REMARK  Name = molecules/BVISQZFBLRSESR-XSCWXTNMSA-N.pdb
REMARK                            x       y       z     vdW  Elec       q    Type
REMARK                         _______ _______ _______ _____ _____    ______ ____
ROOT
ATOM      1  N   LIG    1       -2.543 -15.758   0.000  0.00  0.00    -0.163 NA
ATOM      2  H   LIG    1       -2.905 -16.479   0.000  0.00  0.00    +0.163 HD
ENDROOT
TORSDOF 0
REMARK  Name = molecules/BVISQZFBLRSESR-XSCWXTNMSA-N.pdb
REMARK                            x       y       z     vdW  Elec       q    Type
REMARK                         _______ _______ _______ _____ _____    ______ ____
ROOT
ATOM      1  C   LIG    1       -2.080 -14.332   0.000  0.00  0.00    +0.000 C 
ENDROOT
TORSDOF 0
REMARK  Name = molecules/BVISQZFBLRSESR-XSCWXTNMSA-N.pdb
REMARK                            x       y       z     vdW  Elec       q    Type
REMARK                         _______ _______ _______ _____ _____    ______ ____
ROOT
ATOM      1  O   HOH    1       -0.894  -6.215   0.000  0.00  0.00    -0.410 OA
ATOM      2  H   HOH    0       -0.456  -5.607   0.000  0.00  0.00    +0.205 HD
ATOM      3  H   HOH    0       -1.597  -6.006   0.000  0.00  0.00    +0.205 HD
ENDROOT
TORSDOF 0
REMARK  Name = molecules/BVISQZFBLRSESR-XSCWXTNMSA-N.pdb
REMARK                            x       y       z     vdW  Elec       q    Type
REMARK                         _______ _______ _______ _____ _____    ______ ____
ROOT
ATOM      1  C   LIG    1        2.632  -4.034   0.000  0.00  0.00    -0.005 C 
ATOM      2  C   LIG    1        1.475  -3.869   0.000  0.00  0.00    +0.005 C 
ENDROOT
TORSDOF 0
REMARK  Name = molecules/BVISQZFBLRSESR-XSCWXTNMSA-N.pdb
REMARK                            x       y       z     vdW  Elec       q    Type
REMARK                         _______ _______ _______ _____ _____    ______ ____
ROOT
ATOM      1  C   LIG    1        2.169  -5.460   0.000  0.00  0.00    -0.000 C 
ENDROOT
TORSDOF 0
REMARK  Name = molecules/BVISQZFBLRSESR-XSCWXTNMSA-N.pdb
REMARK                            x       y       z     vdW  Elec       q    Type
REMARK                         _______ _______ _______ _____ _____    ______ ____
ROOT
ATOM      1  O   HOH    1        1.296  -3.353   0.000  0.00  0.00    +0.000 OA
ENDROOT
TORSDOF 0
REMARK  Name = molecules/BVISQZFBLRSESR-XSCWXTNMSA-N.pdb
REMARK                            x       y       z     vdW  Elec       q    Type
REMARK                         _______ _______ _______ _____ _____    ______ ____
ROOT
ATOM      1  C   LIG    1        3.136  -1.832   0.000  0.00  0.00    +0.000 C 
ENDROOT
TORSDOF 0
REMARK  Name = molecules/BVISQZFBLRSESR-XSCWXTNMSA-N.pdb
REMARK                            x       y       z     vdW  Elec       q    Type
REMARK                         _______ _______ _______ _____ _____    ______ ____
ROOT
ATOM      1  C   LIG    1        8.843  -3.686   0.000  0.00  0.00    +0.020 C 
ATOM      2  C   LIG    1       10.269  -4.150   0.000  0.00  0.00    +0.124 C 
ATOM      3  N   LIG    1       11.696  -4.613   0.000  0.00  0.00    -0.143 NA
ENDROOT
TORSDOF 0
REMARK  Name = molecules/BVISQZFBLRSESR-XSCWXTNMSA-N.pdb
REMARK                            x       y       z     vdW  Elec       q    Type
REMARK                         _______ _______ _______ _____ _____    ______ ____
ROOT
ATOM      1  C   LIG    1        7.416  -3.223   0.000  0.00  0.00    -0.000 C 
ENDROOT
TORSDOF 0
REMARK  Name = molecules/BVISQZFBLRSESR-XSCWXTNMSA-N.pdb
REMARK                            x       y       z     vdW  Elec       q    Type
REMARK                         _______ _______ _______ _____ _____    ______ ____
ROOT
ATOM      1  C   LIG    1        5.990  -2.759   0.000  0.00  0.00    +0.000 C 
ENDROOT
TORSDOF 0
REMARK  Name = molecules/BVISQZFBLRSESR-XSCWXTNMSA-N.pdb
REMARK                            x       y       z     vdW  Elec       q    Type
REMARK                         _______ _______ _______ _____ _____    ______ ____
ROOT
ATOM      1  C   LIG    1        4.563  -2.296   0.000  0.00  0.00    +0.000 C 
ENDROOT
TORSDOF 0
REMARK  Name = molecules/BVISQZFBLRSESR-XSCWXTNMSA-N.pdb
REMARK                            x       y       z     vdW  Elec       q    Type
REMARK                         _______ _______ _______ _____ _____    ______ ____
ROOT
ATOM      1  O   HOH    1        2.152  -2.964   0.000  0.00  0.00    -0.253 OA
ATOM      2  H   HOH    0        1.905  -2.316   0.000  0.00  0.00    +0.253 HD
ENDROOT
TORSDOF 0
REMARK  Name = molecules/BVISQZFBLRSESR-XSCWXTNMSA-N.pdb
REMARK                            x       y       z     vdW  Elec       q    Type
REMARK                         _______ _______ _______ _____ _____    ______ ____
ROOT
ATOM      1  C   LIG    1        0.934  -1.328   0.000  0.00  0.00    +0.000 C 
ENDROOT
TORSDOF 0
REMARK  Name = molecules/BVISQZFBLRSESR-XSCWXTNMSA-N.pdb
REMARK                            x       y       z     vdW  Elec       q    Type
REMARK                         _______ _______ _______ _____ _____    ______ ____
ROOT
ATOM      1  C   LIG    1        1.861   1.525   0.000  0.00  0.00    +0.000 C 
ENDROOT
TORSDOF 0
REMARK  Name = molecules/BVISQZFBLRSESR-XSCWXTNMSA-N.pdb
REMARK                            x       y       z     vdW  Elec       q    Type
REMARK                         _______ _______ _______ _____ _____    ______ ____
ROOT
ATOM      1  O   LIG    1        1.500   3.551   0.000  0.00  0.00    -0.187 OA
ENDROOT
BRANCH   1   3
ATOM      2  O   LIG    1        2.325   2.952   0.000  0.00  0.00    -0.181 OA
ATOM      3  C   LIG    1        2.366   3.727   0.000  0.00  0.00    +0.362 C 
ENDBRANCH   1   3
BRANCH   1   4
ATOM      4  O   LIG    1        1.324   2.926   0.000  0.00  0.00    -0.247 OA
ATOM      5  H   LIG    1        0.604   3.195   0.000  0.00  0.00    +0.253 HD
ENDBRANCH   1   4
TORSDOF 2
REMARK  Name = molecules/BVISQZFBLRSESR-XSCWXTNMSA-N.pdb
REMARK                            x       y       z     vdW  Elec       q    Type
REMARK                         _______ _______ _______ _____ _____    ______ ____
ROOT
ATOM      1  C   LIG    1        1.398   0.099   0.000  0.00  0.00    +0.000 C 
ENDROOT
TORSDOF 0
REMARK  Name = molecules/BVISQZFBLRSESR-XSCWXTNMSA-N.pdb
REMARK                            x       y       z     vdW  Elec       q    Type
REMARK                         _______ _______ _______ _____ _____    ______ ____
ROOT
ATOM      1  O   LIG    1       -0.560  -1.458   0.000  0.00  0.00    -0.002 OA
ATOM      2  O   LIG    1       -0.562  -2.207   0.000  0.00  0.00    -0.033 OA
ENDROOT
BRANCH   2   3
ATOM      3  O   LIG    1       -1.196  -1.940   0.000  0.00  0.00    -0.194 OA
ATOM      4  C   LIG    1       -2.000  -1.952   0.000  0.00  0.00    +0.229 C 
ENDBRANCH   2   3
TORSDOF 1
REMARK  Name = molecules/BVISQZFBLRSESR-XSCWXTNMSA-N.pdb
REMARK                            x       y       z     vdW  Elec       q    Type
REMARK                         _______ _______ _______ _____ _____    ______ ____
ROOT
ATOM      1  C   LIG    1        0.048  -3.406   0.000  0.00  0.00    -0.031 C 
ATOM      2  C   LIG    1        0.471  -2.754   0.000  0.00  0.00    -0.005 C 
ATOM      3  C   LIG    1        0.007  -4.181   0.000  0.00  0.00    +0.036 C 
ENDROOT
TORSDOF 0
REMARK  Name = molecules/BVISQZFBLRSESR-XSCWXTNMSA-N.pdb
REMARK                            x       y       z     vdW  Elec       q    Type
REMARK                         _______ _______ _______ _____ _____    ______ ____
ROOT
ATOM      1  C   LIG    1        2.901  -4.333   0.000  0.00  0.00    +0.000 C 
ENDROOT
TORSDOF 0
REMARK  Name = molecules/BVISQZFBLRSESR-XSCWXTNMSA-N.pdb
REMARK                            x       y       z     vdW  Elec       q    Type
REMARK                         _______ _______ _______ _____ _____    ______ ____
ROOT
ATOM      1  C   LIG    1        4.328  -4.796   0.000  0.00  0.00    -0.000 C 
ENDROOT
TORSDOF 0
REMARK  Name = molecules/BVISQZFBLRSESR-XSCWXTNMSA-N.pdb
REMARK                            x       y       z     vdW  Elec       q    Type
REMARK                         _______ _______ _______ _____ _____    ______ ____
ROOT
ATOM      1  C   LIG    1        3.828  -1.479   0.000  0.00  0.00    +0.053 C 
ATOM      2  N   LIG    1        3.136  -1.832   0.000  0.00  0.00    -0.302 NA
ATOM      3  H   LIG    1        2.332  -1.375   0.000  0.00  0.00    +0.186 HD
ATOM      4  C   LIG    1        4.251  -0.828   0.000  0.00  0.00    +0.063 C 
ENDROOT
TORSDOF 0
REMARK  Name = molecules/BVISQZFBLRSESR-XSCWXTNMSA-N.pdb
REMARK                            x       y       z     vdW  Elec       q    Type
REMARK                         _______ _______ _______ _____ _____    ______ ____
ROOT
ATOM      1  C   LIG    1        3.365  -2.906   0.000  0.00  0.00    +0.000 C 
ENDROOT
TORSDOF 0
REMARK  Name = molecules/BVISQZFBLRSESR-XSCWXTNMSA-N.pdb
REMARK                            x       y       z     vdW  Elec       q    Type
REMARK                         _______ _______ _______ _____ _____    ______ ____
ROOT
ATOM      1  O   HOH    1       -0.610  -2.057   0.000  0.00  0.00    -0.253 OA
ATOM      2  H   HOH    0       -0.728  -2.747   0.000  0.00  0.00    +0.253 HD
ENDROOT
TORSDOF 0
REMARK  Name = molecules/BVISQZFBLRSESR-XSCWXTNMSA-N.pdb
REMARK                            x       y       z     vdW  Elec       q    Type
REMARK                         _______ _______ _______ _____ _____    ______ ____
ROOT
ATOM      1  C   LIG    1       -2.030  -2.519   0.000  0.00  0.00    -0.010 C 
ATOM      2  C   LIG    1       -2.463  -3.378   0.000  0.00  0.00    +0.010 C 
ENDROOT
TORSDOF 0
REMARK  Name = molecules/BVISQZFBLRSESR-XSCWXTNMSA-N.pdb
REMARK                            x       y       z     vdW  Elec       q    Type
REMARK                         _______ _______ _______ _____ _____    ______ ____
ROOT
ATOM      1  C   LIG    1       -2.957  -5.372   0.000  0.00  0.00    +0.180 C 
ATOM      2  N   LIG    1       -3.391  -6.231   0.000  0.00  0.00    -0.180 NA
ENDROOT
TORSDOF 0
REMARK  Name = molecules/BVISQZFBLRSESR-XSCWXTNMSA-N.pdb
REMARK                            x       y       z     vdW  Elec       q    Type
REMARK                         _______ _______ _______ _____ _____    ______ ____
ROOT
ATOM      1  N   LIG    1       -2.880  -9.340   0.000  0.00  0.00    -0.163 NA
ATOM      2  H   LIG    1       -2.162  -9.766   0.000  0.00  0.00    +0.163 HD
ENDROOT
TORSDOF 0
REMARK  Name = molecules/BVISQZFBLRSESR-XSCWXTNMSA-N.pdb
REMARK                            x       y       z     vdW  Elec       q    Type
REMARK                         _______ _______ _______ _____ _____    ______ ____
ROOT
ATOM      1  C   LIG    1       -2.493  -3.946   0.000  0.00  0.00    -0.005 C 
ATOM      2  C   LIG    1       -2.927  -4.805   0.000  0.00  0.00    +0.005 C 
ENDROOT
TORSDOF 0
REMARK  Name = molecules/BVISQZFBLRSESR-XSCWXTNMSA-N.pdb
REMARK                            x       y       z     vdW  Elec       q    Type
REMARK                         _______ _______ _______ _____ _____    ______ ____
ROOT
ATOM      1  C   LIG    1       -1.143  -0.441   0.000  0.00  0.00    +0.000 C 
ENDROOT
TORSDOF 0
REMARK  Name = molecules/BVISQZFBLRSESR-XSCWXTNMSA-N.pdb
REMARK                            x       y       z     vdW  Elec       q    Type
REMARK                         _______ _______ _______ _____ _____    ______ ____
ROOT
ATOM      1  C   LIG    1       -3.997   0.486   0.000  0.00  0.00    +0.000 C 
ENDROOT
TORSDOF 0
REMARK  Name = molecules/BVISQZFBLRSESR-XSCWXTNMSA-N.pdb
REMARK                            x       y       z     vdW  Elec       q    Type
REMARK                         _______ _______ _______ _____ _____    ______ ____
ROOT
ATOM      1  C   LIG    1       -5.423   0.949   0.000  0.00  0.00    +0.073 C 
ATOM      2  C   LIG    1       -6.199   0.990   0.000  0.00  0.00    +0.280 C 
ATOM      3  O   LIG    1       -6.538  -0.054   0.000  0.00  0.00    -0.201 OA
ENDROOT
BRANCH   2   4
ATOM      4  O   LIG    1       -6.240   2.207   0.000  0.00  0.00    -0.365 OA
ATOM      5  H   LIG    1       -7.207   2.703   0.000  0.00  0.00    +0.213 HD
ENDBRANCH   2   4
TORSDOF 1
REMARK  Name = molecules/BVISQZFBLRSESR-XSCWXTNMSA-N.pdb
REMARK                            x       y       z     vdW  Elec       q    Type
REMARK                         _______ _______ _______ _____ _____    ______ ____
ROOT
ATOM      1  C   LIG    1       -2.570   0.022   0.000  0.00  0.00    +0.013 C 
ATOM      2  C   LIG    1       -1.536  -0.525   0.000  0.00  0.00    -0.013 C 
ENDROOT
TORSDOF 0
REMARK  Name = molecules/BVISQZFBLRSESR-XSCWXTNMSA-N.pdb
REMARK                            x       y       z     vdW  Elec       q    Type
REMARK                         _______ _______ _______ _____ _____    ______ ____
ROOT
ATOM      1  C   LIG    1        1.861   1.525   0.000  0.00  0.00    -0.026 C 
ATOM      2  C   LIG    1        2.513   1.103   0.000  0.00  0.00    +0.031 C 
ATOM      3  C   LIG    1        1.086   1.566   0.000  0.00  0.00    -0.005 C 
ENDROOT
TORSDOF 0
REMARK  Name = molecules/BVISQZFBLRSESR-XSCWXTNMSA-N.pdb
REMARK                            x       y       z     vdW  Elec       q    Type
REMARK                         _______ _______ _______ _____ _____    ______ ____
ROOT
ATOM      1  C   LIG    1        0.934  -1.328   0.000  0.00  0.00    +0.000 C 
ENDROOT
TORSDOF 0
REMARK  Name = molecules/BVISQZFBLRSESR-XSCWXTNMSA-N.pdb
REMARK                            x       y       z     vdW  Elec       q    Type
REMARK                         _______ _______ _______ _____ _____    ______ ____
ROOT
ATOM      1  C   LIG    1        1.398   0.099   0.000  0.00  0.00    +0.000 C 
ENDROOT
TORSDOF 0
REMARK  Name = molecules/BVISQZFBLRSESR-XSCWXTNMSA-N.pdb
REMARK                            x       y       z     vdW  Elec       q    Type
REMARK                         _______ _______ _______ _____ _____    ______ ____
ROOT
ATOM      1  C   LIG    1       -0.956  -2.291   0.000  0.00  0.00    +0.000 C 
ENDROOT
TORSDOF 0
REMARK  Name = molecules/BVISQZFBLRSESR-XSCWXTNMSA-N.pdb
REMARK                            x       y       z     vdW  Elec       q    Type
REMARK                         _______ _______ _______ _____ _____    ______ ____
ROOT
ATOM      1  C   LIG    1        5.219   2.800   0.000  0.00  0.00    -0.001 C 
ATOM      2  C   LIG    1        4.175   3.140   0.000  0.00  0.00    -0.008 C 
ATOM      3  C   LIG    1        4.638   4.566   0.000  0.00  0.00    +0.009 C 
ENDROOT
TORSDOF 0
REMARK  Name = molecules/BVISQZFBLRSESR-XSCWXTNMSA-N.pdb
REMARK                            x       y       z     vdW  Elec       q    Type
REMARK                         _______ _______ _______ _____ _____    ______ ____
ROOT
ATOM      1  C   LIG    1        6.645   2.337   0.000  0.00  0.00    -0.005 C 
ATOM      2  C   LIG    1        5.601   2.676   0.000  0.00  0.00    +0.005 C 
ENDROOT
TORSDOF 0
REMARK  Name = molecules/BVISQZFBLRSESR-XSCWXTNMSA-N.pdb
REMARK                            x       y       z     vdW  Elec       q    Type
REMARK                         _______ _______ _______ _____ _____    ______ ____
ROOT
ATOM      1  C   LIG    1       10.613   2.413   0.000  0.00  0.00    +0.533 C 
ATOM      2  N   LIG    1       12.040   1.950   0.000  0.00  0.00    +0.135 NA
ATOM      3  N   LIG    1       10.302   3.881   0.000  0.00  0.00    +0.135 NA
ENDROOT
BRANCH   1   5
ATOM      4  C   LIG    1        8.072   1.873   0.000  0.00  0.00    +0.291 C 
ATOM      5  N   LIG    1        9.499   1.410   0.000  0.00  0.00    -0.106 NA
ENDBRANCH   1   5
TORSDOF 1
REMARK  Name = molecules/BVISQZFBLRSESR-XSCWXTNMSA-N.pdb
REMARK                            x       y       z     vdW  Elec       q    Type
REMARK                         _______ _______ _______ _____ _____    ______ ____
ROOT
ATOM      1  C   LIG    1        3.792   3.264   0.000  0.00  0.00    +0.000 C 
ATOM      2  C   LIG    1        2.748   3.603   0.000  0.00  0.00    +0.000 C 
ENDROOT
TORSDOF 0
REMARK  Name = molecules/BVISQZFBLRSESR-XSCWXTNMSA-N.pdb
REMARK                            x       y       z     vdW  Elec       q    Type
REMARK                         _______ _______ _______ _____ _____    ______ ____
ROOT
ATOM      1  O   HOH    1        1.382   2.595   0.000  0.00  0.00    +0.000 OA
ENDROOT
TORSDOF 0
REMARK  Name = molecules/BVISQZFBLRSESR-XSCWXTNMSA-N.pdb
REMARK                            x       y       z     vdW  Elec       q    Type
REMARK                         _______ _______ _______ _____ _____    ______ ____
ROOT
ATOM      1  C   LIG    1        0.164   4.231   0.000  0.00  0.00    +0.000 C 
ENDROOT
TORSDOF 0
REMARK  Name = molecules/BVISQZFBLRSESR-XSCWXTNMSA-N.pdb
REMARK                            x       y       z     vdW  Elec       q    Type
REMARK                         _______ _______ _______ _____ _____    ______ ____
ROOT
ATOM      1  C   LIG    1        1.091   7.085   0.000  0.00  0.00    -0.000 C 
ENDROOT
TORSDOF 0
REMARK  Name = molecules/BVISQZFBLRSESR-XSCWXTNMSA-N.pdb
REMARK                            x       y       z     vdW  Elec       q    Type
REMARK                         _______ _______ _______ _____ _____    ______ ____
ROOT
ATOM      1  C   LIG    1        1.554   8.511   0.000  0.00  0.00    +0.000 C 
ENDROOT
TORSDOF 0
REMARK  Name = molecules/BVISQZFBLRSESR-XSCWXTNMSA-N.pdb
REMARK                            x       y       z     vdW  Elec       q    Type
REMARK                         _______ _______ _______ _____ _____    ______ ____
ROOT
ATOM      1  C   LIG    1        2.018   9.938   0.000  0.00  0.00    +0.172 C 
ATOM      2  N   LIG    1        2.481  11.364   0.000  0.00  0.00    -0.267 NA
ATOM      3  C   LIG    1        1.478  12.479   0.000  0.00  0.00    +0.199 C 
ATOM      4  N   LIG    1        1.941  13.906   0.000  0.00  0.00    -0.104 NA
ENDROOT
TORSDOF 0
REMARK  Name = molecules/BVISQZFBLRSESR-XSCWXTNMSA-N.pdb
REMARK                            x       y       z     vdW  Elec       q    Type
REMARK                         _______ _______ _______ _____ _____    ______ ____
ROOT
ATOM      1  N   LIG    1        0.010  12.167   0.000  0.00  0.00    -0.273 NA
ATOM      2  H   LIG    1       -1.356  11.939   0.000  0.00  0.00    +0.137 HD
ATOM      3  H   LIG    1        0.450  11.131   0.000  0.00  0.00    +0.137 HD
ENDROOT
TORSDOF 0
REMARK  Name = molecules/BVISQZFBLRSESR-XSCWXTNMSA-N.pdb
REMARK                            x       y       z     vdW  Elec       q    Type
REMARK                         _______ _______ _______ _____ _____    ______ ____
ROOT
ATOM      1  C   LIG    1       -0.341   2.030   0.000  0.00  0.00    +0.000 C 
ENDROOT
TORSDOF 0
REMARK  Name = molecules/BVISQZFBLRSESR-XSCWXTNMSA-N.pdb
REMARK                            x       y       z     vdW  Elec       q    Type
REMARK                         _______ _______ _______ _____ _____    ______ ____
ROOT
ATOM      1  N   LIG    1        3.939   0.639   0.000  0.00  0.00    -0.273 NA
ATOM      2  H   LIG    1        4.665   1.156   0.000  0.00  0.00    +0.137 HD
ATOM      3  H   LIG    1        3.358   1.421   0.000  0.00  0.00    +0.137 HD
ENDROOT
TORSDOF 0
REMARK  Name = molecules/BVISQZFBLRSESR-XSCWXTNMSA-N.pdb
REMARK                            x       y       z     vdW  Elec       q    Type
REMARK                         _______ _______ _______ _____ _____    ______ ____
ROOT
ATOM      1  N   LIG    1        5.678  -1.292   0.000  0.00  0.00    -0.344 NA
ATOM      2  H   LIG    1        6.785  -1.487   0.000  0.00  0.00    +0.115 HD
ATOM      3  H   LIG    1        5.255  -1.943   0.000  0.00  0.00    +0.115 HD
ATOM      4  H   LIG    1        5.127  -0.730   0.000  0.00  0.00    +0.115 HD
ENDROOT
TORSDOF 0
REMARK  Name = molecules/BVISQZFBLRSESR-XSCWXTNMSA-N.pdb
REMARK                            x       y       z     vdW  Elec       q    Type
REMARK                         _______ _______ _______ _____ _____    ______ ____
ROOT
ATOM      1  O   HOH    1       -8.593  -2.175   0.000  0.00  0.00    -0.410 OA
ATOM      2  H   HOH    0       -8.768  -3.541   0.000  0.00  0.00    +0.205 HD
ATOM      3  H   HOH    0       -7.959  -1.881   0.000  0.00  0.00    +0.205 HD
ENDROOT
TORSDOF 0
REMARK  Name = molecules/BVISQZFBLRSESR-XSCWXTNMSA-N.pdb
REMARK                            x       y       z     vdW  Elec       q    Type
REMARK                         _______ _______ _______ _____ _____    ______ ____
ROOT
ATOM      1  C   LIG    1       -4.385   5.921   0.000  0.00  0.00    +0.000 C 
ENDROOT
TORSDOF 0
REMARK  Name = molecules/BVISQZFBLRSESR-XSCWXTNMSA-N.pdb
REMARK                            x       y       z     vdW  Elec       q    Type
REMARK                         _______ _______ _______ _____ _____    ______ ____
ROOT
ATOM      1  C   LIG    1      -10.091   7.775   0.000  0.00  0.00    -0.004 C 
ATOM      2  C   LIG    1      -10.690   7.986   0.000  0.00  0.00    +0.004 C 
ENDROOT
TORSDOF 0
REMARK  Name = molecules/BVISQZFBLRSESR-XSCWXTNMSA-N.pdb
REMARK                            x       y       z     vdW  Elec       q    Type
REMARK                         _______ _______ _______ _____ _____    ______ ____
ROOT
ATOM      1  C   LIG    1       -7.238   6.848   0.000  0.00  0.00    +0.000 C 
ENDROOT
TORSDOF 0
REMARK  Name = molecules/BVISQZFBLRSESR-XSCWXTNMSA-N.pdb
REMARK                            x       y       z     vdW  Elec       q    Type
REMARK                         _______ _______ _______ _____ _____    ______ ____
ROOT
ATOM      1  C   LIG    1       -5.812   6.384   0.000  0.00  0.00    +0.000 C 
ENDROOT
TORSDOF 0
REMARK  Name = molecules/BVISQZFBLRSESR-XSCWXTNMSA-N.pdb
REMARK                            x       y       z     vdW  Elec       q    Type
REMARK                         _______ _______ _______ _____ _____    ______ ____
ROOT
ATOM      1  C   LIG    1       -8.201   8.738   0.000  0.00  0.00    +0.005 C 
ATOM      2  C   LIG    1       -7.480   9.658   0.000  0.00  0.00    -0.005 C 
ENDROOT
TORSDOF 0
REMARK  Name = molecules/BVISQZFBLRSESR-XSCWXTNMSA-N.pdb
REMARK                            x       y       z     vdW  Elec       q    Type
REMARK                         _______ _______ _______ _____ _____    ______ ____
ROOT
ATOM      1  C   LIG    1       -8.665   7.311   0.000  0.00  0.00    +0.000 C 
ENDROOT
TORSDOF 0
REMARK  Name = molecules/BVISQZFBLRSESR-XSCWXTNMSA-N.pdb
REMARK                            x       y       z     vdW  Elec       q    Type
REMARK                         _______ _______ _______ _____ _____    ______ ____
ROOT
ATOM      1  C   LIG    1       -2.307   5.034   0.000  0.00  0.00    +0.000 C 
ENDROOT
TORSDOF 0
REMARK  Name = molecules/BVISQZFBLRSESR-XSCWXTNMSA-N.pdb
REMARK                            x       y       z     vdW  Elec       q    Type
REMARK                         _______ _______ _______ _____ _____    ______ ____
ROOT
ATOM      1  C   LIG    1       -1.380   7.888   0.000  0.00  0.00    +0.000 C 
ENDROOT
TORSDOF 0
REMARK  Name = molecules/BVISQZFBLRSESR-XSCWXTNMSA-N.pdb
REMARK                            x       y       z     vdW  Elec       q    Type
REMARK                         _______ _______ _______ _____ _____    ______ ____
ROOT
ATOM      1  C   LIG    1       -1.844   6.461   0.000  0.00  0.00    -0.000 C 
ENDROOT
TORSDOF 0
REMARK  Name = molecules/BVISQZFBLRSESR-XSCWXTNMSA-N.pdb
REMARK                            x       y       z     vdW  Elec       q    Type
REMARK                         _______ _______ _______ _____ _____    ______ ____
ROOT
ATOM      1  O   LIG    1       -0.846   4.697   0.000  0.00  0.00    -0.225 OA
ATOM      2  C   LIG    1       -0.105   4.530   0.000  0.00  0.00    +0.225 C 
ENDROOT
TORSDOF 0
REMARK  Name = molecules/BVISQZFBLRSESR-XSCWXTNMSA-N.pdb
REMARK                            x       y       z     vdW  Elec       q    Type
REMARK                         _______ _______ _______ _____ _____    ______ ____
ROOT
ATOM      1  C   LIG    1       -2.811   2.832   0.000  0.00  0.00    -0.010 C 
ATOM      2  C   LIG    1       -3.234   2.181   0.000  0.00  0.00    +0.010 C 
ENDROOT
TORSDOF 0
REMARK  Name = molecules/BVISQZFBLRSESR-XSCWXTNMSA-N.pdb
REMARK                            x       y       z     vdW  Elec       q    Type
REMARK                         _______ _______ _______ _____ _____    ______ ____
ROOT
ATOM      1  C   LIG    1       -8.518   4.686   0.000  0.00  0.00    +0.000 C 
ENDROOT
TORSDOF 0
REMARK  Name = molecules/BVISQZFBLRSESR-XSCWXTNMSA-N.pdb
REMARK                            x       y       z     vdW  Elec       q    Type
REMARK                         _______ _______ _______ _____ _____    ______ ____
ROOT
ATOM      1  O   HOH    1       -8.830   6.154   0.000  0.00  0.00    -0.410 OA
ATOM      2  H   HOH    0       -9.460   6.039   0.000  0.00  0.00    +0.205 HD
ATOM      3  H   HOH    0       -7.872   5.488   0.000  0.00  0.00    +0.205 HD
ENDROOT
TORSDOF 0
REMARK  Name = molecules/BVISQZFBLRSESR-XSCWXTNMSA-N.pdb
REMARK                            x       y       z     vdW  Elec       q    Type
REMARK                         _______ _______ _______ _____ _____    ______ ____
ROOT
ATOM      1  O   HOH    1       -9.632   3.683   0.000  0.00  0.00    +0.000 OA
ENDROOT
TORSDOF 0
REMARK  Name = molecules/BVISQZFBLRSESR-XSCWXTNMSA-N.pdb
REMARK                            x       y       z     vdW  Elec       q    Type
REMARK                         _______ _______ _______ _____ _____    ______ ____
ROOT
ATOM      1  O   LIG    1       -1.583   3.693   0.000  0.00  0.00    +0.000 OA
ATOM      2  O   LIG    1       -0.792   3.817   0.000  0.00  0.00    +0.000 OA
ENDROOT
TORSDOF 0
REMARK  Name = molecules/BVISQZFBLRSESR-XSCWXTNMSA-N.pdb
REMARK                            x       y       z     vdW  Elec       q    Type
REMARK                         _______ _______ _______ _____ _____    ______ ____
ROOT
ATOM      1  C   LIG    1       -1.073   0.902   0.000  0.00  0.00    -0.000 C 
ENDROOT
TORSDOF 0
REMARK  Name = molecules/BVISQZFBLRSESR-XSCWXTNMSA-N.pdb
REMARK                            x       y       z     vdW  Elec       q    Type
REMARK                         _______ _______ _______ _____ _____    ______ ____
ROOT
ATOM      1  C   LIG    1        1.321   4.067   0.000  0.00  0.00    +0.000 C 
ENDROOT
TORSDOF 0
REMARK  Name = molecules/BVISQZFBLRSESR-XSCWXTNMSA-N.pdb
REMARK                            x       y       z     vdW  Elec       q    Type
REMARK                         _______ _______ _______ _____ _____    ______ ____
ROOT
ATOM      1  O   HOH    1       -1.089   3.398   0.000  0.00  0.00    +0.000 OA
ENDROOT
TORSDOF 0
REMARK  Name = molecules/BVISQZFBLRSESR-XSCWXTNMSA-N.pdb
REMARK                            x       y       z     vdW  Elec       q    Type
REMARK                         _______ _______ _______ _____ _____    ______ ____
ROOT
ATOM      1  C   LIG    1       -1.380   7.888   0.000  0.00  0.00    +0.000 C 
ENDROOT
TORSDOF 0
REMARK  Name = molecules/BVISQZFBLRSESR-XSCWXTNMSA-N.pdb
REMARK                            x       y       z     vdW  Elec       q    Type
REMARK                         _______ _______ _______ _____ _____    ______ ____
ROOT
ATOM      1  C   LIG    1       -2.307   5.034   0.000  0.00  0.00    +0.000 C 
ENDROOT
TORSDOF 0
REMARK  Name = molecules/BVISQZFBLRSESR-XSCWXTNMSA-N.pdb
REMARK                            x       y       z     vdW  Elec       q    Type
REMARK                         _______ _______ _______ _____ _____    ______ ____
ROOT
ATOM      1  C   LIG    1       -1.844   6.461   0.000  0.00  0.00    +0.000 C 
ENDROOT
TORSDOF 0
REMARK  Name = molecules/BVISQZFBLRSESR-XSCWXTNMSA-N.pdb
REMARK                            x       y       z     vdW  Elec       q    Type
REMARK                         _______ _______ _______ _____ _____    ______ ____
ROOT
ATOM      1  O   HOH    1       -0.032   8.545   0.000  0.00  0.00    -0.253 OA
ATOM      2  H   HOH    0       -0.336   7.548   0.000  0.00  0.00    +0.253 HD
ENDROOT
TORSDOF 0
REMARK  Name = molecules/BVISQZFBLRSESR-XSCWXTNMSA-N.pdb
REMARK                            x       y       z     vdW  Elec       q    Type
REMARK                         _______ _______ _______ _____ _____    ______ ____
ROOT
ATOM      1  C   LIG    1       -5.549  11.396   0.000  0.00  0.00    +0.000 C 
ENDROOT
TORSDOF 0
REMARK  Name = molecules/BVISQZFBLRSESR-XSCWXTNMSA-N.pdb
REMARK                            x       y       z     vdW  Elec       q    Type
REMARK                         _______ _______ _______ _____ _____    ______ ____
ROOT
ATOM      1  C   LIG    1       -3.695  17.103   0.000  0.00  0.00    +0.000 C 
ENDROOT
TORSDOF 0
REMARK  Name = molecules/BVISQZFBLRSESR-XSCWXTNMSA-N.pdb
REMARK                            x       y       z     vdW  Elec       q    Type
REMARK                         _______ _______ _______ _____ _____    ______ ____
ROOT
ATOM      1  C   LIG    1       -4.158  15.676   0.000  0.00  0.00    -0.000 C 
ENDROOT
TORSDOF 0
REMARK  Name = molecules/BVISQZFBLRSESR-XSCWXTNMSA-N.pdb
REMARK                            x       y       z     vdW  Elec       q    Type
REMARK                         _______ _______ _______ _____ _____    ______ ____
ROOT
ATOM      1  C   LIG    1       -4.622  14.250   0.000  0.00  0.00    +0.000 C 
ENDROOT
TORSDOF 0
REMARK  Name = molecules/BVISQZFBLRSESR-XSCWXTNMSA-N.pdb
REMARK                            x       y       z     vdW  Elec       q    Type
REMARK                         _______ _______ _______ _____ _____    ______ ____
ROOT
ATOM      1  N   LIG    1       -2.768  19.956   0.000  0.00  0.00    -0.142 NA
ATOM      2  C   LIG    1       -3.231  18.529   0.000  0.00  0.00    +0.142 C 
ENDROOT
TORSDOF 0
REMARK  Name = molecules/BVISQZFBLRSESR-XSCWXTNMSA-N.pdb
REMARK                            x       y       z     vdW  Elec       q    Type
REMARK                         _______ _______ _______ _____ _____    ______ ____
ROOT
ATOM      1  O   HOH    1       -4.545  10.282   0.000  0.00  0.00    -0.253 OA
ATOM      2  H   HOH    0       -3.840   9.882   0.000  0.00  0.00    +0.253 HD
ENDROOT
TORSDOF 0
REMARK  Name = molecules/BVISQZFBLRSESR-XSCWXTNMSA-N.pdb
REMARK                            x       y       z     vdW  Elec       q    Type
REMARK                         _______ _______ _______ _____ _____    ______ ____
ROOT
ATOM      1  C   LIG    1       -8.906  10.122   0.000  0.00  0.00    -0.000 C 
ENDROOT
TORSDOF 0
REMARK  Name = molecules/BVISQZFBLRSESR-XSCWXTNMSA-N.pdb
REMARK                            x       y       z     vdW  Elec       q    Type
REMARK                         _______ _______ _______ _____ _____    ______ ____
ROOT
ATOM      1  C   LIG    1       -3.200   8.268   0.000  0.00  0.00    +0.000 C 
ENDROOT
TORSDOF 0
REMARK  Name = molecules/BVISQZFBLRSESR-XSCWXTNMSA-N.pdb
REMARK                            x       y       z     vdW  Elec       q    Type
REMARK                         _______ _______ _______ _____ _____    ______ ____
ROOT
ATOM      1  C   LIG    1       -6.053   9.195   0.000  0.00  0.00    +0.000 C 
ENDROOT
TORSDOF 0
REMARK  Name = molecules/BVISQZFBLRSESR-XSCWXTNMSA-N.pdb
REMARK                            x       y       z     vdW  Elec       q    Type
REMARK                         _______ _______ _______ _____ _____    ______ ____
ROOT
ATOM      1  C   LIG    1       -4.627   8.731   0.000  0.00  0.00    +0.000 C 
ENDROOT
TORSDOF 0
REMARK  Name = molecules/BVISQZFBLRSESR-XSCWXTNMSA-N.pdb
REMARK                            x       y       z     vdW  Elec       q    Type
REMARK                         _______ _______ _______ _____ _____    ______ ____
ROOT
ATOM      1  C   LIG    1      -11.572   9.199   0.000  0.00  0.00    +0.231 C 
ENDROOT
BRANCH   1   2
ATOM      2  O   LIG    1      -10.231   9.418   0.000  0.00  0.00    -0.366 OA
ATOM      3  H   LIG    1       -9.628   9.201   0.000  0.00  0.00    +0.212 HD
ENDBRANCH   1   2
BRANCH   1   4
ATOM      4  N   LIG    1      -12.998   8.736   0.000  0.00  0.00    -0.193 NA
ATOM      5  C   LIG    1      -12.998   7.236   0.000  0.00  0.00    +0.117 C 
ENDBRANCH   1   4
TORSDOF 2
REMARK  Name = molecules/BVISQZFBLRSESR-XSCWXTNMSA-N.pdb
REMARK                            x       y       z     vdW  Elec       q    Type
REMARK                         _______ _______ _______ _____ _____    ______ ____
ROOT
ATOM      1  C   LIG    1      -10.181  13.479   0.000  0.00  0.00    +0.217 C 
ATOM      2  O   LIG    1       -8.983  14.089   0.000  0.00  0.00    -0.217 OA
ENDROOT
TORSDOF 0
REMARK  Name = molecules/BVISQZFBLRSESR-XSCWXTNMSA-N.pdb
REMARK                            x       y       z     vdW  Elec       q    Type
REMARK                         _______ _______ _______ _____ _____    ______ ____
ROOT
ATOM      1  N   LIG    1      -11.572   6.772   0.000  0.00  0.00    -0.163 NA
ATOM      2  H   LIG    1      -10.725   6.415   0.000  0.00  0.00    +0.163 HD
ENDROOT
TORSDOF 0
REMARK  Name = molecules/BVISQZFBLRSESR-XSCWXTNMSA-N.pdb
REMARK                            x       y       z     vdW  Elec       q    Type
REMARK                         _______ _______ _______ _____ _____    ______ ____
ROOT
ATOM      1  O   HOH    1       -8.714  13.791   0.000  0.00  0.00    -0.253 OA
ATOM      2  H   HOH    0       -8.234  12.721   0.000  0.00  0.00    +0.253 HD
ENDROOT
TORSDOF 0
REMARK  Name = molecules/BVISQZFBLRSESR-XSCWXTNMSA-N.pdb
REMARK                            x       y       z     vdW  Elec       q    Type
REMARK                         _______ _______ _______ _____ _____    ______ ____
ROOT
ATOM      1  C   LIG    1       -6.290  17.523   0.000  0.00  0.00    +0.000 C 
ENDROOT
TORSDOF 0
REMARK  Name = molecules/BVISQZFBLRSESR-XSCWXTNMSA-N.pdb
REMARK                            x       y       z     vdW  Elec       q    Type
REMARK                         _______ _______ _______ _____ _____    ______ ____
ROOT
ATOM      1  C   LIG    1       -6.753  16.097   0.000  0.00  0.00    +0.000 C 
ENDROOT
TORSDOF 0
REMARK  Name = molecules/BVISQZFBLRSESR-XSCWXTNMSA-N.pdb
REMARK                            x       y       z     vdW  Elec       q    Type
REMARK                         _______ _______ _______ _____ _____    ______ ____
ROOT
ATOM      1  H   UNK    1      -12.287  -3.571   0.000  0.00  0.00    +0.000 HD
ENDROOT
TORSDOF 0
REMARK  Name = molecules/BVISQZFBLRSESR-XSCWXTNMSA-N.pdb
REMARK                            x       y       z     vdW  Elec       q    Type
REMARK                         _______ _______ _______ _____ _____    ______ ____
ROOT
ATOM      1  H   UNK    1       -8.608  -7.902   0.000  0.00  0.00    +0.000 HD
ENDROOT
TORSDOF 0
REMARK  Name = molecules/BVISQZFBLRSESR-XSCWXTNMSA-N.pdb
REMARK                            x       y       z     vdW  Elec       q    Type
REMARK                         _______ _______ _______ _____ _____    ______ ____
ROOT
ATOM      1  H   UNK    1       -1.996 -14.725   0.000  0.00  0.00    +0.000 HD
ENDROOT
TORSDOF 0
REMARK  Name = molecules/BVISQZFBLRSESR-XSCWXTNMSA-N.pdb
REMARK                            x       y       z     vdW  Elec       q    Type
REMARK                         _______ _______ _______ _____ _____    ______ ____
ROOT
ATOM      1  H   UNK    1        2.879  -8.182   0.000  0.00  0.00    +0.000 HD
ENDROOT
TORSDOF 0
REMARK  Name = molecules/BVISQZFBLRSESR-XSCWXTNMSA-N.pdb
REMARK                            x       y       z     vdW  Elec       q    Type
REMARK                         _______ _______ _______ _____ _____    ______ ____
ROOT
ATOM      1  H   UNK    1        2.630 -15.996   0.000  0.00  0.00    +0.000 HD
ENDROOT
TORSDOF 0
REMARK  Name = molecules/BVISQZFBLRSESR-XSCWXTNMSA-N.pdb
REMARK                            x       y       z     vdW  Elec       q    Type
REMARK                         _______ _______ _______ _____ _____    ______ ____
ROOT
ATOM      1  H   UNK    1        2.837  -7.871   0.000  0.00  0.00    +0.000 HD
ENDROOT
TORSDOF 0
REMARK  Name = molecules/BVISQZFBLRSESR-XSCWXTNMSA-N.pdb
REMARK                            x       y       z     vdW  Elec       q    Type
REMARK                         _______ _______ _______ _____ _____    ______ ____
ROOT
ATOM      1  H   UNK    1       -0.936  -5.904   0.000  0.00  0.00    +0.000 HD
ENDROOT
TORSDOF 0
REMARK  Name = molecules/BVISQZFBLRSESR-XSCWXTNMSA-N.pdb
REMARK                            x       y       z     vdW  Elec       q    Type
REMARK                         _______ _______ _______ _____ _____    ______ ____
ROOT
ATOM      1  H   UNK    1       -4.452  -1.893   0.000  0.00  0.00    +0.000 HD
ENDROOT
TORSDOF 0
REMARK  Name = molecules/BVISQZFBLRSESR-XSCWXTNMSA-N.pdb
REMARK                            x       y       z     vdW  Elec       q    Type
REMARK                         _______ _______ _______ _____ _____    ______ ____
ROOT
ATOM      1  H   UNK    1        3.283   6.055   0.000  0.00  0.00    +0.000 HD
ENDROOT
TORSDOF 0
REMARK  Name = molecules/BVISQZFBLRSESR-XSCWXTNMSA-N.pdb
REMARK                            x       y       z     vdW  Elec       q    Type
REMARK                         _______ _______ _______ _____ _____    ______ ____
ROOT
ATOM      1  H   UNK    1        0.567   7.130   0.000  0.00  0.00    +0.000 HD
ENDROOT
TORSDOF 0
REMARK  Name = molecules/BVISQZFBLRSESR-XSCWXTNMSA-N.pdb
REMARK                            x       y       z     vdW  Elec       q    Type
REMARK                         _______ _______ _______ _____ _____    ______ ____
ROOT
ATOM      1  H   UNK    1        0.117   8.595   0.000  0.00  0.00    +0.000 HD
ENDROOT
TORSDOF 0
REMARK  Name = molecules/BVISQZFBLRSESR-XSCWXTNMSA-N.pdb
REMARK                            x       y       z     vdW  Elec       q    Type
REMARK                         _______ _______ _______ _____ _____    ______ ____
ROOT
ATOM      1  H   UNK    1       -2.430  13.220   0.000  0.00  0.00    +0.000 HD
ENDROOT
TORSDOF 0
REMARK  Name = molecules/BVISQZFBLRSESR-XSCWXTNMSA-N.pdb
REMARK                            x       y       z     vdW  Elec       q    Type
REMARK                         _______ _______ _______ _____ _____    ______ ____
ROOT
ATOM      1  H   UNK    1       -7.876  12.313   0.000  0.00  0.00    +0.000 HD
ENDROOT
TORSDOF 0
REMARK  Name = molecules/BVISQZFBLRSESR-XSCWXTNMSA-N.pdb
REMARK                            x       y       z     vdW  Elec       q    Type
REMARK                         _______ _______ _______ _____ _____    ______ ____
ROOT
ATOM      1  H   UNK    1      -12.603  14.105   0.000  0.00  0.00    +0.000 HD
ENDROOT
TORSDOF 0
REMARK  Name = molecules/BVISQZFBLRSESR-XSCWXTNMSA-N.pdb
REMARK                            x       y       z     vdW  Elec       q    Type
REMARK                         _______ _______ _______ _____ _____    ______ ____
ROOT
ATOM      1  H   UNK    1       -8.668  17.979   0.000  0.00  0.00    +0.000 HD
ENDROOT
TORSDOF 0
REMARK  Name = molecules/BVISQZFBLRSESR-XSCWXTNMSA-N.pdb
REMARK                            x       y       z     vdW  Elec       q    Type
REMARK                         _______ _______ _______ _____ _____    ______ ____
ROOT
ATOM      1  H   UNK    1       -1.171  13.328   0.000  0.00  0.00    +0.000 HD
ENDROOT
TORSDOF 0
REMARK  Name = molecules/BVISQZFBLRSESR-XSCWXTNMSA-N.pdb
REMARK                            x       y       z     vdW  Elec       q    Type
REMARK                         _______ _______ _______ _____ _____    ______ ____
ROOT
ATOM      1  H   UNK    1       -5.183  -6.032   0.000  0.00  0.00    +0.000 HD
ENDROOT
TORSDOF 0
REMARK  Name = molecules/BVISQZFBLRSESR-XSCWXTNMSA-N.pdb
REMARK                            x       y       z     vdW  Elec       q    Type
REMARK                         _______ _______ _______ _____ _____    ______ ____
ROOT
ATOM      1  H   UNK    1       -5.470  -2.885   0.000  0.00  0.00    +0.000 HD
ENDROOT
TORSDOF 0
REMARK  Name = molecules/BVISQZFBLRSESR-XSCWXTNMSA-N.pdb
REMARK                            x       y       z     vdW  Elec       q    Type
REMARK                         _______ _______ _______ _____ _____    ______ ____
ROOT
ATOM      1  H   UNK    1       -4.510 -12.754   0.000  0.00  0.00    +0.000 HD
ENDROOT
TORSDOF 0
REMARK  Name = molecules/BVISQZFBLRSESR-XSCWXTNMSA-N.pdb
REMARK                            x       y       z     vdW  Elec       q    Type
REMARK                         _______ _______ _______ _____ _____    ______ ____
ROOT
ATOM      1  H   UNK    1       -5.936 -12.290   0.000  0.00  0.00    +0.000 HD
ENDROOT
TORSDOF 0
REMARK  Name = molecules/BVISQZFBLRSESR-XSCWXTNMSA-N.pdb
REMARK                            x       y       z     vdW  Elec       q    Type
REMARK                         _______ _______ _______ _____ _____    ______ ____
ROOT
ATOM      1  H   UNK    1       -9.441 -10.940   0.000  0.00  0.00    +0.000 HD
ENDROOT
TORSDOF 0
REMARK  Name = molecules/BVISQZFBLRSESR-XSCWXTNMSA-N.pdb
REMARK                            x       y       z     vdW  Elec       q    Type
REMARK                         _______ _______ _______ _____ _____    ______ ____
ROOT
ATOM      1  H   UNK    1       -3.415 -13.063   0.000  0.00  0.00    +0.000 HD
ENDROOT
TORSDOF 0
REMARK  Name = molecules/BVISQZFBLRSESR-XSCWXTNMSA-N.pdb
REMARK                            x       y       z     vdW  Elec       q    Type
REMARK                         _______ _______ _______ _____ _____    ______ ____
ROOT
ATOM      1  H   UNK    1       -1.391 -15.325   0.000  0.00  0.00    +0.000 HD
ENDROOT
TORSDOF 0
REMARK  Name = molecules/BVISQZFBLRSESR-XSCWXTNMSA-N.pdb
REMARK                            x       y       z     vdW  Elec       q    Type
REMARK                         _______ _______ _______ _____ _____    ______ ____
ROOT
ATOM      1  H   UNK    1        1.354 -16.406   0.000  0.00  0.00    +0.000 HD
ENDROOT
TORSDOF 0
REMARK  Name = molecules/BVISQZFBLRSESR-XSCWXTNMSA-N.pdb
REMARK                            x       y       z     vdW  Elec       q    Type
REMARK                         _______ _______ _______ _____ _____    ______ ____
ROOT
ATOM      1  H   UNK    1       -3.120 -19.729   0.000  0.00  0.00    +0.000 HD
ENDROOT
TORSDOF 0
REMARK  Name = molecules/BVISQZFBLRSESR-XSCWXTNMSA-N.pdb
REMARK                            x       y       z     vdW  Elec       q    Type
REMARK                         _______ _______ _______ _____ _____    ______ ____
ROOT
ATOM      1  H   UNK    1       -0.096 -20.938   0.000  0.00  0.00    +0.000 HD
ENDROOT
TORSDOF 0
REMARK  Name = molecules/BVISQZFBLRSESR-XSCWXTNMSA-N.pdb
REMARK                            x       y       z     vdW  Elec       q    Type
REMARK                         _______ _______ _______ _____ _____    ______ ____
ROOT
ATOM      1  H   UNK    1        6.291  -4.434   0.000  0.00  0.00    +0.000 HD
ENDROOT
TORSDOF 0
REMARK  Name = molecules/BVISQZFBLRSESR-XSCWXTNMSA-N.pdb
REMARK                            x       y       z     vdW  Elec       q    Type
REMARK                         _______ _______ _______ _____ _____    ______ ____
ROOT
ATOM      1  H   UNK    1        7.300  -6.147   0.000  0.00  0.00    +0.000 HD
ENDROOT
TORSDOF 0
REMARK  Name = molecules/BVISQZFBLRSESR-XSCWXTNMSA-N.pdb
REMARK                            x       y       z     vdW  Elec       q    Type
REMARK                         _______ _______ _______ _____ _____    ______ ____
ROOT
ATOM      1  H   UNK    1        4.050 -15.535   0.000  0.00  0.00    +0.000 HD
ENDROOT
TORSDOF 0
REMARK  Name = molecules/BVISQZFBLRSESR-XSCWXTNMSA-N.pdb
REMARK                            x       y       z     vdW  Elec       q    Type
REMARK                         _______ _______ _______ _____ _____    ______ ____
ROOT
ATOM      1  H   UNK    1        8.000 -13.676   0.000  0.00  0.00    +0.000 HD
ENDROOT
TORSDOF 0
REMARK  Name = molecules/BVISQZFBLRSESR-XSCWXTNMSA-N.pdb
REMARK                            x       y       z     vdW  Elec       q    Type
REMARK                         _______ _______ _______ _____ _____    ______ ____
ROOT
ATOM      1  H   UNK    1       -3.120 -16.774   0.000  0.00  0.00    +0.000 HD
ENDROOT
TORSDOF 0
REMARK  Name = molecules/BVISQZFBLRSESR-XSCWXTNMSA-N.pdb
REMARK                            x       y       z     vdW  Elec       q    Type
REMARK                         _______ _______ _______ _____ _____    ______ ____
ROOT
ATOM      1  H   UNK    1       -2.905 -20.025   0.000  0.00  0.00    +0.000 HD
ENDROOT
TORSDOF 0
REMARK  Name = molecules/BVISQZFBLRSESR-XSCWXTNMSA-N.pdb
REMARK                            x       y       z     vdW  Elec       q    Type
REMARK                         _______ _______ _______ _____ _____    ______ ____
ROOT
ATOM      1  H   UNK    1        0.252 -20.825   0.000  0.00  0.00    +0.000 HD
ENDROOT
TORSDOF 0
REMARK  Name = molecules/BVISQZFBLRSESR-XSCWXTNMSA-N.pdb
REMARK                            x       y       z     vdW  Elec       q    Type
REMARK                         _______ _______ _______ _____ _____    ______ ____
ROOT
ATOM      1  H   UNK    1        3.044  -9.524   0.000  0.00  0.00    +0.000 HD
ENDROOT
TORSDOF 0
REMARK  Name = molecules/BVISQZFBLRSESR-XSCWXTNMSA-N.pdb
REMARK                            x       y       z     vdW  Elec       q    Type
REMARK                         _______ _______ _______ _____ _____    ______ ____
ROOT
ATOM      1  H   UNK    1       -3.114 -12.984   0.000  0.00  0.00    +0.000 HD
ENDROOT
TORSDOF 0
REMARK  Name = molecules/BVISQZFBLRSESR-XSCWXTNMSA-N.pdb
REMARK                            x       y       z     vdW  Elec       q    Type
REMARK                         _______ _______ _______ _____ _____    ______ ____
ROOT
ATOM      1  H   UNK    1       -1.498  -7.831   0.000  0.00  0.00    +0.000 HD
ENDROOT
TORSDOF 0
REMARK  Name = molecules/BVISQZFBLRSESR-XSCWXTNMSA-N.pdb
REMARK                            x       y       z     vdW  Elec       q    Type
REMARK                         _______ _______ _______ _____ _____    ______ ____
ROOT
ATOM      1  H   UNK    1       -2.180 -17.214   0.000  0.00  0.00    +0.000 HD
ENDROOT
TORSDOF 0
REMARK  Name = molecules/BVISQZFBLRSESR-XSCWXTNMSA-N.pdb
REMARK                            x       y       z     vdW  Elec       q    Type
REMARK                         _______ _______ _______ _____ _____    ______ ____
ROOT
ATOM      1  H   UNK    1       -4.010 -16.070   0.000  0.00  0.00    +0.000 HD
ENDROOT
TORSDOF 0
REMARK  Name = molecules/BVISQZFBLRSESR-XSCWXTNMSA-N.pdb
REMARK                            x       y       z     vdW  Elec       q    Type
REMARK                         _______ _______ _______ _____ _____    ______ ____
ROOT
ATOM      1  H   UNK    1       -3.552 -14.046   0.000  0.00  0.00    +0.000 HD
ENDROOT
TORSDOF 0
REMARK  Name = molecules/BVISQZFBLRSESR-XSCWXTNMSA-N.pdb
REMARK                            x       y       z     vdW  Elec       q    Type
REMARK                         _______ _______ _______ _____ _____    ______ ____
ROOT
ATOM      1  H   UNK    1        0.672  -5.356   0.000  0.00  0.00    +0.000 HD
ENDROOT
TORSDOF 0
REMARK  Name = molecules/BVISQZFBLRSESR-XSCWXTNMSA-N.pdb
REMARK                            x       y       z     vdW  Elec       q    Type
REMARK                         _______ _______ _______ _____ _____    ______ ____
ROOT
ATOM      1  H   UNK    1        3.528  -6.095   0.000  0.00  0.00    +0.000 HD
ENDROOT
TORSDOF 0
REMARK  Name = molecules/BVISQZFBLRSESR-XSCWXTNMSA-N.pdb
REMARK                            x       y       z     vdW  Elec       q    Type
REMARK                         _______ _______ _______ _____ _____    ______ ____
ROOT
ATOM      1  H   UNK    1        7.880  -1.796   0.000  0.00  0.00    +0.000 HD
ENDROOT
TORSDOF 0
REMARK  Name = molecules/BVISQZFBLRSESR-XSCWXTNMSA-N.pdb
REMARK                            x       y       z     vdW  Elec       q    Type
REMARK                         _______ _______ _______ _____ _____    ______ ____
ROOT
ATOM      1  H   UNK    1        5.526  -4.186   0.000  0.00  0.00    +0.000 HD
ENDROOT
TORSDOF 0
REMARK  Name = molecules/BVISQZFBLRSESR-XSCWXTNMSA-N.pdb
REMARK                            x       y       z     vdW  Elec       q    Type
REMARK                         _______ _______ _______ _____ _____    ______ ____
ROOT
ATOM      1  H   UNK    1        5.642  -1.254   0.000  0.00  0.00    +0.000 HD
ENDROOT
TORSDOF 0
REMARK  Name = molecules/BVISQZFBLRSESR-XSCWXTNMSA-N.pdb
REMARK                            x       y       z     vdW  Elec       q    Type
REMARK                         _______ _______ _______ _____ _____    ______ ____
ROOT
ATOM      1  H   UNK    1       12.008  -6.080   0.000  0.00  0.00    +0.000 HD
ENDROOT
TORSDOF 0
REMARK  Name = molecules/BVISQZFBLRSESR-XSCWXTNMSA-N.pdb
REMARK                            x       y       z     vdW  Elec       q    Type
REMARK                         _______ _______ _______ _____ _____    ______ ____
ROOT
ATOM      1  H   UNK    1       12.811  -3.609   0.000  0.00  0.00    +0.000 HD
ENDROOT
TORSDOF 0
REMARK  Name = molecules/BVISQZFBLRSESR-XSCWXTNMSA-N.pdb
REMARK                            x       y       z     vdW  Elec       q    Type
REMARK                         _______ _______ _______ _____ _____    ______ ____
ROOT
ATOM      1  H   UNK    1        3.792   3.264   0.000  0.00  0.00    +0.000 HD
ENDROOT
TORSDOF 0
REMARK  Name = molecules/BVISQZFBLRSESR-XSCWXTNMSA-N.pdb
REMARK                            x       y       z     vdW  Elec       q    Type
REMARK                         _______ _______ _______ _____ _____    ______ ____
ROOT
ATOM      1  H   UNK    1        0.038   0.733   0.000  0.00  0.00    +0.000 HD
ENDROOT
TORSDOF 0
REMARK  Name = molecules/BVISQZFBLRSESR-XSCWXTNMSA-N.pdb
REMARK                            x       y       z     vdW  Elec       q    Type
REMARK                         _______ _______ _______ _____ _____    ______ ____
ROOT
ATOM      1  H   UNK    1        3.864  -6.223   0.000  0.00  0.00    +0.000 HD
ENDROOT
TORSDOF 0
REMARK  Name = molecules/BVISQZFBLRSESR-XSCWXTNMSA-N.pdb
REMARK                            x       y       z     vdW  Elec       q    Type
REMARK                         _______ _______ _______ _____ _____    ______ ____
ROOT
ATOM      1  H   UNK    1        1.011  -5.296   0.000  0.00  0.00    +0.000 HD
ENDROOT
TORSDOF 0
REMARK  Name = molecules/BVISQZFBLRSESR-XSCWXTNMSA-N.pdb
REMARK                            x       y       z     vdW  Elec       q    Type
REMARK                         _______ _______ _______ _____ _____    ______ ____
ROOT
ATOM      1  H   UNK    1        2.093  -2.111   0.000  0.00  0.00    +0.000 HD
ENDROOT
TORSDOF 0
REMARK  Name = molecules/BVISQZFBLRSESR-XSCWXTNMSA-N.pdb
REMARK                            x       y       z     vdW  Elec       q    Type
REMARK                         _______ _______ _______ _____ _____    ______ ____
ROOT
ATOM      1  H   UNK    1       -1.948  -7.085   0.000  0.00  0.00    +0.000 HD
ENDROOT
TORSDOF 0
REMARK  Name = molecules/BVISQZFBLRSESR-XSCWXTNMSA-N.pdb
REMARK                            x       y       z     vdW  Elec       q    Type
REMARK                         _______ _______ _______ _____ _____    ______ ____
ROOT
ATOM      1  H   UNK    1       -4.847  -6.335   0.000  0.00  0.00    +0.000 HD
ENDROOT
TORSDOF 0
REMARK  Name = molecules/BVISQZFBLRSESR-XSCWXTNMSA-N.pdb
REMARK                            x       y       z     vdW  Elec       q    Type
REMARK                         _______ _______ _______ _____ _____    ______ ____
ROOT
ATOM      1  H   UNK    1       -4.460  -0.941   0.000  0.00  0.00    +0.000 HD
ENDROOT
TORSDOF 0
REMARK  Name = molecules/BVISQZFBLRSESR-XSCWXTNMSA-N.pdb
REMARK                            x       y       z     vdW  Elec       q    Type
REMARK                         _______ _______ _______ _____ _____    ______ ____
ROOT
ATOM      1  H   UNK    1       -7.897   0.580   0.000  0.00  0.00    +0.000 HD
ENDROOT
TORSDOF 0
REMARK  Name = molecules/BVISQZFBLRSESR-XSCWXTNMSA-N.pdb
REMARK                            x       y       z     vdW  Elec       q    Type
REMARK                         _______ _______ _______ _____ _____    ______ ____
ROOT
ATOM      1  H   UNK    1       -1.372   0.925   0.000  0.00  0.00    +0.000 HD
ENDROOT
TORSDOF 0
REMARK  Name = molecules/BVISQZFBLRSESR-XSCWXTNMSA-N.pdb
REMARK                            x       y       z     vdW  Elec       q    Type
REMARK                         _______ _______ _______ _____ _____    ______ ____
ROOT
ATOM      1  H   UNK    1        2.894  -0.006   0.000  0.00  0.00    +0.000 HD
ENDROOT
TORSDOF 0
REMARK  Name = molecules/BVISQZFBLRSESR-XSCWXTNMSA-N.pdb
REMARK                            x       y       z     vdW  Elec       q    Type
REMARK                         _______ _______ _______ _____ _____    ______ ____
ROOT
ATOM      1  H   UNK    1       -1.034  -0.793   0.000  0.00  0.00    +0.000 HD
ENDROOT
TORSDOF 0
REMARK  Name = molecules/BVISQZFBLRSESR-XSCWXTNMSA-N.pdb
REMARK                            x       y       z     vdW  Elec       q    Type
REMARK                         _______ _______ _______ _____ _____    ______ ____
ROOT
ATOM      1  H   UNK    1        4.933   1.328   0.000  0.00  0.00    +0.000 HD
ENDROOT
TORSDOF 0
REMARK  Name = molecules/BVISQZFBLRSESR-XSCWXTNMSA-N.pdb
REMARK                            x       y       z     vdW  Elec       q    Type
REMARK                         _______ _______ _______ _____ _____    ______ ____
ROOT
ATOM      1  H   UNK    1        6.182   0.910   0.000  0.00  0.00    +0.000 HD
ENDROOT
TORSDOF 0
REMARK  Name = molecules/BVISQZFBLRSESR-XSCWXTNMSA-N.pdb
REMARK                            x       y       z     vdW  Elec       q    Type
REMARK                         _______ _______ _______ _____ _____    ______ ____
ROOT
ATOM      1  H   UNK    1        7.109   3.763   0.000  0.00  0.00    +0.000 HD
ENDROOT
TORSDOF 0
REMARK  Name = molecules/BVISQZFBLRSESR-XSCWXTNMSA-N.pdb
REMARK                            x       y       z     vdW  Elec       q    Type
REMARK                         _______ _______ _______ _____ _____    ______ ____
ROOT
ATOM      1  H   UNK    1        9.810  -0.058   0.000  0.00  0.00    +0.000 HD
ENDROOT
TORSDOF 0
REMARK  Name = molecules/BVISQZFBLRSESR-XSCWXTNMSA-N.pdb
REMARK                            x       y       z     vdW  Elec       q    Type
REMARK                         _______ _______ _______ _____ _____    ______ ____
ROOT
ATOM      1  H   UNK    1       11.416   4.884   0.000  0.00  0.00    +0.000 HD
ENDROOT
TORSDOF 0
REMARK  Name = molecules/BVISQZFBLRSESR-XSCWXTNMSA-N.pdb
REMARK                            x       y       z     vdW  Elec       q    Type
REMARK                         _______ _______ _______ _____ _____    ______ ____
ROOT
ATOM      1  H   UNK    1        8.875   4.344   0.000  0.00  0.00    +0.000 HD
ENDROOT
TORSDOF 0
REMARK  Name = molecules/BVISQZFBLRSESR-XSCWXTNMSA-N.pdb
REMARK                            x       y       z     vdW  Elec       q    Type
REMARK                         _______ _______ _______ _____ _____    ______ ____
ROOT
ATOM      1  H   UNK    1       13.155   2.954   0.000  0.00  0.00    +0.000 HD
ENDROOT
TORSDOF 0
REMARK  Name = molecules/BVISQZFBLRSESR-XSCWXTNMSA-N.pdb
REMARK                            x       y       z     vdW  Elec       q    Type
REMARK                         _______ _______ _______ _____ _____    ______ ____
ROOT
ATOM      1  H   UNK    1        2.981   8.048   0.000  0.00  0.00    +0.000 HD
ENDROOT
TORSDOF 0
REMARK  Name = molecules/BVISQZFBLRSESR-XSCWXTNMSA-N.pdb
REMARK                            x       y       z     vdW  Elec       q    Type
REMARK                         _______ _______ _______ _____ _____    ______ ____
ROOT
ATOM      1  H   UNK    1        3.949  11.676   0.000  0.00  0.00    +0.000 HD
ENDROOT
TORSDOF 0
REMARK  Name = molecules/BVISQZFBLRSESR-XSCWXTNMSA-N.pdb
REMARK                            x       y       z     vdW  Elec       q    Type
REMARK                         _______ _______ _______ _____ _____    ______ ____
ROOT
ATOM      1  H   UNK    1       -0.850  13.396   0.000  0.00  0.00    +0.000 HD
ENDROOT
TORSDOF 0
REMARK  Name = molecules/BVISQZFBLRSESR-XSCWXTNMSA-N.pdb
REMARK                            x       y       z     vdW  Elec       q    Type
REMARK                         _______ _______ _______ _____ _____    ______ ____
ROOT
ATOM      1  H   UNK    1        0.621  10.797   0.000  0.00  0.00    +0.000 HD
ENDROOT
TORSDOF 0
REMARK  Name = molecules/BVISQZFBLRSESR-XSCWXTNMSA-N.pdb
REMARK                            x       y       z     vdW  Elec       q    Type
REMARK                         _______ _______ _______ _____ _____    ______ ____
ROOT
ATOM      1  H   UNK    1        0.938  15.021   0.000  0.00  0.00    +0.000 HD
ENDROOT
TORSDOF 0
REMARK  Name = molecules/BVISQZFBLRSESR-XSCWXTNMSA-N.pdb
REMARK                            x       y       z     vdW  Elec       q    Type
REMARK                         _______ _______ _______ _____ _____    ______ ____
ROOT
ATOM      1  H   UNK    1       -5.303  -1.071   0.000  0.00  0.00    +0.000 HD
ENDROOT
TORSDOF 0
REMARK  Name = molecules/BVISQZFBLRSESR-XSCWXTNMSA-N.pdb
REMARK                            x       y       z     vdW  Elec       q    Type
REMARK                         _______ _______ _______ _____ _____    ______ ____
ROOT
ATOM      1  H   UNK    1       -9.227  -3.535   0.000  0.00  0.00    +0.000 HD
ENDROOT
TORSDOF 0
REMARK  Name = molecules/BVISQZFBLRSESR-XSCWXTNMSA-N.pdb
REMARK                            x       y       z     vdW  Elec       q    Type
REMARK                         _______ _______ _______ _____ _____    ______ ____
ROOT
ATOM      1  H   UNK    1       -5.178   7.744   0.000  0.00  0.00    +0.000 HD
ENDROOT
TORSDOF 0
REMARK  Name = molecules/BVISQZFBLRSESR-XSCWXTNMSA-N.pdb
REMARK                            x       y       z     vdW  Elec       q    Type
REMARK                         _______ _______ _______ _____ _____    ______ ____
ROOT
ATOM      1  H   UNK    1       -6.775   8.274   0.000  0.00  0.00    +0.000 HD
ENDROOT
TORSDOF 0
REMARK  Name = molecules/BVISQZFBLRSESR-XSCWXTNMSA-N.pdb
REMARK                            x       y       z     vdW  Elec       q    Type
REMARK                         _______ _______ _______ _____ _____    ______ ____
ROOT
ATOM      1  H   UNK    1       -0.346   6.540   0.000  0.00  0.00    +0.000 HD
ENDROOT
TORSDOF 0
REMARK  Name = molecules/BVISQZFBLRSESR-XSCWXTNMSA-N.pdb
REMARK                            x       y       z     vdW  Elec       q    Type
REMARK                         _______ _______ _______ _____ _____    ______ ____
ROOT
ATOM      1  H   UNK    1       -7.725   2.864   0.000  0.00  0.00    +0.000 HD
ENDROOT
TORSDOF 0
REMARK  Name = molecules/BVISQZFBLRSESR-XSCWXTNMSA-N.pdb
REMARK                            x       y       z     vdW  Elec       q    Type
REMARK                         _______ _______ _______ _____ _____    ______ ____
ROOT
ATOM      1  H   UNK    1       -3.823  -2.744   0.000  0.00  0.00    +0.000 HD
ENDROOT
TORSDOF 0
REMARK  Name = molecules/BVISQZFBLRSESR-XSCWXTNMSA-N.pdb
REMARK                            x       y       z     vdW  Elec       q    Type
REMARK                         _______ _______ _______ _____ _____    ______ ____
ROOT
ATOM      1  H   UNK    1        0.423   0.797   0.000  0.00  0.00    +0.000 HD
ENDROOT
TORSDOF 0
REMARK  Name = molecules/BVISQZFBLRSESR-XSCWXTNMSA-N.pdb
REMARK                            x       y       z     vdW  Elec       q    Type
REMARK                         _______ _______ _______ _____ _____    ______ ____
ROOT
ATOM      1  H   UNK    1       -4.858  -6.543   0.000  0.00  0.00    +0.000 HD
ENDROOT
TORSDOF 0
REMARK  Name = molecules/BVISQZFBLRSESR-XSCWXTNMSA-N.pdb
REMARK                            x       y       z     vdW  Elec       q    Type
REMARK                         _______ _______ _______ _____ _____    ______ ____
ROOT
ATOM      1  H   UNK    1       -2.054  -6.912   0.000  0.00  0.00    +0.000 HD
ENDROOT
TORSDOF 0
REMARK  Name = molecules/BVISQZFBLRSESR-XSCWXTNMSA-N.pdb
REMARK                            x       y       z     vdW  Elec       q    Type
REMARK                         _______ _______ _______ _____ _____    ______ ____
ROOT
ATOM      1  H   UNK    1        5.497   1.180   0.000  0.00  0.00    +0.000 HD
ENDROOT
TORSDOF 0
REMARK  Name = molecules/BVISQZFBLRSESR-XSCWXTNMSA-N.pdb
REMARK                            x       y       z     vdW  Elec       q    Type
REMARK                         _______ _______ _______ _____ _____    ______ ____
ROOT
ATOM      1  H   UNK    1        6.396   3.948   0.000  0.00  0.00    +0.000 HD
ENDROOT
TORSDOF 0
REMARK  Name = molecules/BVISQZFBLRSESR-XSCWXTNMSA-N.pdb
REMARK                            x       y       z     vdW  Elec       q    Type
REMARK                         _______ _______ _______ _____ _____    ______ ____
ROOT
ATOM      1  H   UNK    1        3.009   2.126   0.000  0.00  0.00    +0.000 HD
ENDROOT
TORSDOF 0
REMARK  Name = molecules/BVISQZFBLRSESR-XSCWXTNMSA-N.pdb
REMARK                            x       y       z     vdW  Elec       q    Type
REMARK                         _______ _______ _______ _____ _____    ______ ____
ROOT
ATOM      1  H   UNK    1        2.116   5.339   0.000  0.00  0.00    +0.000 HD
ENDROOT
TORSDOF 0
REMARK  Name = molecules/BVISQZFBLRSESR-XSCWXTNMSA-N.pdb
REMARK                            x       y       z     vdW  Elec       q    Type
REMARK                         _______ _______ _______ _____ _____    ______ ____
ROOT
ATOM      1  H   UNK    1        5.102   5.993   0.000  0.00  0.00    +0.000 HD
ENDROOT
TORSDOF 0
REMARK  Name = molecules/BVISQZFBLRSESR-XSCWXTNMSA-N.pdb
REMARK                            x       y       z     vdW  Elec       q    Type
REMARK                         _______ _______ _______ _____ _____    ______ ____
ROOT
ATOM      1  H   UNK    1        6.134   4.462   0.000  0.00  0.00    +0.000 HD
ENDROOT
TORSDOF 0
REMARK  Name = molecules/BVISQZFBLRSESR-XSCWXTNMSA-N.pdb
REMARK                            x       y       z     vdW  Elec       q    Type
REMARK                         _______ _______ _______ _____ _____    ______ ____
ROOT
ATOM      1  H   UNK    1        3.279   5.200   0.000  0.00  0.00    +0.000 HD
ENDROOT
TORSDOF 0
REMARK  Name = molecules/BVISQZFBLRSESR-XSCWXTNMSA-N.pdb
REMARK                            x       y       z     vdW  Elec       q    Type
REMARK                         _______ _______ _______ _____ _____    ______ ____
ROOT
ATOM      1  H   UNK    1       -2.268  16.639   0.000  0.00  0.00    +0.000 HD
ENDROOT
TORSDOF 0
REMARK  Name = molecules/BVISQZFBLRSESR-XSCWXTNMSA-N.pdb
REMARK                            x       y       z     vdW  Elec       q    Type
REMARK                         _______ _______ _______ _____ _____    ______ ____
ROOT
ATOM      1  H   UNK    1       -3.149  13.963   0.000  0.00  0.00    +0.000 HD
ENDROOT
TORSDOF 0
REMARK  Name = molecules/BVISQZFBLRSESR-XSCWXTNMSA-N.pdb
REMARK                            x       y       z     vdW  Elec       q    Type
REMARK                         _______ _______ _______ _____ _____    ______ ____
ROOT
ATOM      1  H   UNK    1       -3.771  21.071   0.000  0.00  0.00    +0.000 HD
ENDROOT
TORSDOF 0
REMARK  Name = molecules/BVISQZFBLRSESR-XSCWXTNMSA-N.pdb
REMARK                            x       y       z     vdW  Elec       q    Type
REMARK                         _______ _______ _______ _____ _____    ______ ____
ROOT
ATOM      1  H   UNK    1       -1.300  20.268   0.000  0.00  0.00    +0.000 HD
ENDROOT
TORSDOF 0
REMARK  Name = molecules/BVISQZFBLRSESR-XSCWXTNMSA-N.pdb
REMARK                            x       y       z     vdW  Elec       q    Type
REMARK                         _______ _______ _______ _____ _____    ______ ____
ROOT
ATOM      1  H   UNK    1       -5.635  10.444   0.000  0.00  0.00    +0.000 HD
ENDROOT
TORSDOF 0
REMARK  Name = molecules/BVISQZFBLRSESR-XSCWXTNMSA-N.pdb
REMARK                            x       y       z     vdW  Elec       q    Type
REMARK                         _______ _______ _______ _____ _____    ______ ____
ROOT
ATOM      1  H   UNK    1       -4.913   7.259   0.000  0.00  0.00    +0.000 HD
ENDROOT
TORSDOF 0
REMARK  Name = molecules/BVISQZFBLRSESR-XSCWXTNMSA-N.pdb
REMARK                            x       y       z     vdW  Elec       q    Type
REMARK                         _______ _______ _______ _____ _____    ______ ____
ROOT
ATOM      1  H   UNK    1      -11.108   5.346   0.000  0.00  0.00    +0.000 HD
ENDROOT
TORSDOF 0
REMARK  Name = molecules/BVISQZFBLRSESR-XSCWXTNMSA-N.pdb
REMARK                            x       y       z     vdW  Elec       q    Type
REMARK                         _______ _______ _______ _____ _____    ______ ____
ROOT
ATOM      1  H   UNK    1      -12.545  19.139   0.000  0.00  0.00    +0.000 HD
ENDROOT
TORSDOF 0
REMARK  Name = molecules/BVISQZFBLRSESR-XSCWXTNMSA-N.pdb
REMARK                            x       y       z     vdW  Elec       q    Type
REMARK                         _______ _______ _______ _____ _____    ______ ____
ROOT
ATOM      1  H   UNK    1       -5.826  18.950   0.000  0.00  0.00    +0.000 HD
ENDROOT
TORSDOF 0
REMARK  Name = molecules/BVISQZFBLRSESR-XSCWXTNMSA-N.pdb
REMARK                            x       y       z     vdW  Elec       q    Type
REMARK                         _______ _______ _______ _____ _____    ______ ____
ROOT
ATOM      1  H   UNK    1       -7.649  18.157   0.000  0.00  0.00    +0.000 HD
ENDROOT
TORSDOF 0
