REMARK  Name = molecules/BWBONKHPVHMQHE-UHFFFAOYSA-N.pdb
REMARK                            x       y       z     vdW  Elec       q    Type
REMARK                         _______ _______ _______ _____ _____    ______ ____
ROOT
ATOM      1  C   LIG    1       -0.210  -1.806   2.924  0.00  0.00    +0.139 C 
ATOM      2  S   LIG    1       -1.398  -2.219   4.002  0.00  0.00    -0.018 S 
ENDROOT
BRANCH   1   3
ATOM      3  N   LIG    1       -0.628  -1.525   1.602  0.00  0.00    -0.297 N 
ATOM      4  H   LIG    1        0.103  -1.323   0.840  0.00  0.00    +0.154 HD
BRANCH   3   5
ATOM      5  C   LIG    1       -1.957  -1.495   1.123  0.00  0.00    +0.033 A 
ATOM      6  C   LIG    1       -3.049  -1.132   1.857  0.00  0.00    +0.027 A 
ATOM      7  C   LIG    1       -4.353  -1.165   1.316  0.00  0.00    +0.047 A 
ATOM      8  C   LIG    1       -4.601  -1.556   0.037  0.00  0.00    +0.121 A 
ATOM      9  C   LIG    1       -3.465  -1.929  -0.712  0.00  0.00    +0.047 A 
ATOM     10  C   LIG    1       -2.198  -1.901  -0.196  0.00  0.00    +0.027 A 
BRANCH   8  11
ATOM     11  O   LIG    1       -5.835  -1.599  -0.528  0.00  0.00    -0.492 OA
BRANCH  11  12
ATOM     12  C   LIG    1       -7.069  -1.257  -0.038  0.00  0.00    +0.229 C 
BRANCH  12  13
ATOM     13  C   LIG    1       -7.194   0.199   0.239  0.00  0.00    +0.044 C 
BRANCH  13  14
ATOM     14  C   LIG    1       -6.981   1.031  -1.031  0.00  0.00    -0.014 C 
ATOM     15  C   LIG    1       -7.091   2.488  -0.646  0.00  0.00    +0.007 C 
ATOM     16  C   LIG    1       -8.018   0.631  -2.028  0.00  0.00    +0.007 C 
ENDBRANCH  13  14
ENDBRANCH  12  13
ENDBRANCH  11  12
ENDBRANCH   8  11
ENDBRANCH   3   5
ENDBRANCH   1   3
BRANCH   1  17
ATOM     17  N   LIG    1        1.135  -1.785   3.342  0.00  0.00    -0.297 N 
ATOM     18  H   LIG    1        1.349  -2.038   4.355  0.00  0.00    +0.154 HD
BRANCH  17  19
ATOM     19  C   LIG    1        2.255  -1.462   2.562  0.00  0.00    +0.033 A 
ATOM     20  C   LIG    1        3.424  -2.246   2.627  0.00  0.00    +0.027 A 
ATOM     21  C   LIG    1        4.532  -1.907   1.893  0.00  0.00    +0.047 A 
ATOM     22  C   LIG    1        4.575  -0.806   1.066  0.00  0.00    +0.121 A 
ATOM     23  C   LIG    1        3.441  -0.031   0.994  0.00  0.00    +0.047 A 
ATOM     24  C   LIG    1        2.300  -0.361   1.736  0.00  0.00    +0.027 A 
BRANCH  22  25
ATOM     25  O   LIG    1        5.726  -0.539   0.366  0.00  0.00    -0.492 OA
BRANCH  25  26
ATOM     26  C   LIG    1        5.861   0.571  -0.509  0.00  0.00    +0.229 C 
BRANCH  26  27
ATOM     27  C   LIG    1        7.229   0.609  -1.137  0.00  0.00    +0.044 C 
BRANCH  27  28
ATOM     28  C   LIG    1        7.296   1.815  -2.052  0.00  0.00    -0.014 C 
ATOM     29  C   LIG    1        7.059   3.059  -1.250  0.00  0.00    +0.007 C 
ATOM     30  C   LIG    1        8.643   1.852  -2.762  0.00  0.00    +0.007 C 
ENDBRANCH  27  28
ENDBRANCH  26  27
ENDBRANCH  25  26
ENDBRANCH  22  25
ENDBRANCH  17  19
ENDBRANCH   1  17
TORSDOF 12
