REMARK  Name = molecules/BWWVAEOLVKTZFQ-ISVUSNJMSA-N.pdb
REMARK                            x       y       z     vdW  Elec       q    Type
REMARK                         _______ _______ _______ _____ _____    ______ ____
ROOT
ATOM      1  CA  LIG    1       -3.397   0.434  -0.753  0.00  0.00    +0.201 C 
ATOM      2  C   LIG    1       -2.946  -0.343   0.464  0.00  0.00    +0.042 C 
ATOM      3  C   LIG    1       -2.493   0.522   1.591  0.00  0.00    +0.025 C 
ATOM      4  C   LIG    1       -4.024  -1.314   0.944  0.00  0.00    +0.025 C 
ATOM      5  S   LIG    1       -1.602  -1.371  -0.215  0.00  0.00    -0.127 S 
ATOM      6  C   LIG    1       -1.772  -0.801  -1.950  0.00  0.00    +0.169 C 
ATOM      7  CA  LIG    1       -0.529  -0.181  -2.511  0.00  0.00    +0.223 C 
ATOM      8  C   LIG    1       -1.324   1.046  -2.543  0.00  0.00    +0.244 C 
ATOM      9  O   LIG    1       -1.151   2.152  -3.150  0.00  0.00    -0.273 OA
ATOM     10  N   LIG    1       -2.300   0.516  -1.671  0.00  0.00    -0.270 N 
ENDROOT
BRANCH   1  11
ATOM     11  C   LIG    1       -4.553  -0.165  -1.421  0.00  0.00    +0.327 C 
ATOM     12  O   LIG    1       -4.472  -0.509  -2.626  0.00  0.00    -0.249 OA
BRANCH  11  13
ATOM     13  OXT LIG    1       -5.772  -0.388  -0.793  0.00  0.00    -0.479 OA
ATOM     14  HXT LIG    1       -6.303  -1.211  -1.017  0.00  0.00    +0.295 HD
ENDBRANCH  11  13
ENDBRANCH   1  11
BRANCH   7  15
ATOM     15  N   LIG    1        0.620  -0.209  -1.668  0.00  0.00    -0.261 NA
ATOM     16  C   LIG    1        0.949   0.657  -0.804  0.00  0.00    +0.179 C 
BRANCH  16  17
ATOM     17  N   LIG    1        2.109   0.595   0.022  0.00  0.00    -0.321 N 
ATOM     18  C   LIG    1        1.896   0.007   1.324  0.00  0.00    +0.106 C 
ATOM     19  C   LIG    1        3.018   0.265   2.281  0.00  0.00    +0.019 C 
ATOM     20  C   LIG    1        4.252  -0.546   1.975  0.00  0.00    +0.002 C 
ATOM     21  C   LIG    1        4.416  -0.797   0.494  0.00  0.00    +0.002 C 
ATOM     22  C   LIG    1        4.561   0.535  -0.183  0.00  0.00    +0.019 C 
ATOM     23  C   LIG    1        3.274   1.141  -0.626  0.00  0.00    +0.106 C 
ENDBRANCH  16  17
ENDBRANCH   7  15
TORSDOF 4
