REMARK  Name = molecules/BXMFKNRZTLNAFY-UHFFFAOYSA-N.pdb
REMARK                            x       y       z     vdW  Elec       q    Type
REMARK                         _______ _______ _______ _____ _____    ______ ____
ROOT
ATOM      1  C   LIG    1       -1.562  -0.412  -0.184  0.00  0.00    +0.339 C 
ATOM      2  O   LIG    1       -0.965  -1.389  -0.702  0.00  0.00    -0.245 OA
ENDROOT
BRANCH   1   3
ATOM      3  C   LIG    1       -3.017  -0.406  -0.158  0.00  0.00    +0.061 A 
ATOM      4  C   LIG    1       -3.756   0.619   0.389  0.00  0.00    +0.037 A 
ATOM      5  C   LIG    1       -5.132   0.625   0.415  0.00  0.00    +0.025 A 
ATOM      6  C   LIG    1       -5.797  -0.450  -0.136  0.00  0.00    +0.023 A 
ATOM      7  C   LIG    1       -5.088  -1.489  -0.690  0.00  0.00    +0.003 A 
ATOM      8  C   LIG    1       -3.688  -1.470  -0.703  0.00  0.00    +0.015 A 
BRANCH   5   9
ATOM      9  N   LIG    1       -5.878   1.699   0.989  0.00  0.00    -0.358 N 
ATOM     10  H   LIG    1       -6.777   1.584   1.460  0.00  0.00    +0.142 HD
ATOM     11  H   LIG    1       -5.456   2.649   0.911  0.00  0.00    +0.142 HD
ENDBRANCH   5   9
ENDBRANCH   1   3
BRANCH   1  12
ATOM     12  O   LIG    1       -0.809   0.612   0.338  0.00  0.00    -0.460 OA
BRANCH  12  13
ATOM     13  C   LIG    1        0.614   0.675   0.354  0.00  0.00    +0.247 C 
BRANCH  13  14
ATOM     14  C   LIG    1        1.226  -0.426   1.133  0.00  0.00    +0.122 C 
BRANCH  14  15
ATOM     15  N   LIG    1        2.590  -0.510   1.257  0.00  0.00    -0.313 NA
ATOM     16  H   LIG    1        2.991  -0.092   2.118  0.00  0.00    +0.122 HD
BRANCH  15  17
ATOM     17  C   LIG    1        3.529  -0.842   0.317  0.00  0.00    +0.084 C 
BRANCH  17  18
ATOM     18  C   LIG    1        3.794   0.109  -0.813  0.00  0.00    -0.003 C 
ATOM     19  C   LIG    1        4.242   1.455  -0.289  0.00  0.00    +0.008 C 
ATOM     20  C   LIG    1        4.918  -0.480  -1.710  0.00  0.00    +0.008 C 
ENDBRANCH  17  18
ENDBRANCH  15  17
ENDBRANCH  14  15
ENDBRANCH  13  14
ENDBRANCH  12  13
ENDBRANCH   1  12
TORSDOF 8
