REMARK  Name = molecules/BXWNKGSJHAJOGX-UHFFFAOYSA-N.pdb
REMARK                            x       y       z     vdW  Elec       q    Type
REMARK                         _______ _______ _______ _____ _____    ______ ____
ROOT
ATOM      1  C   LIG    1       -0.473  -0.361   1.418  0.00  0.00    -0.000 C 
ENDROOT
BRANCH   1   2
ATOM      2  C   LIG    1       -1.267   0.896   1.248  0.00  0.00    -0.000 C 
BRANCH   2   3
ATOM      3  C   LIG    1       -1.946   1.003  -0.072  0.00  0.00    +0.000 C 
BRANCH   3   4
ATOM      4  C   LIG    1       -2.885  -0.146  -0.289  0.00  0.00    +0.000 C 
BRANCH   4   5
ATOM      5  C   LIG    1       -3.948  -0.182   0.748  0.00  0.00    +0.000 C 
BRANCH   5   6
ATOM      6  C   LIG    1       -4.869  -1.345   0.523  0.00  0.00    +0.002 C 
BRANCH   6   7
ATOM      7  C   LIG    1       -5.536  -1.250  -0.812  0.00  0.00    +0.028 C 
BRANCH   7   8
ATOM      8  C   LIG    1       -6.318   0.054  -0.870  0.00  0.00    +0.156 C 
BRANCH   8   9
ATOM      9  O   LIG    1       -6.925   0.056  -2.140  0.00  0.00    -0.395 OA
ATOM     10  H   LIG    1       -7.147   1.000  -2.336  0.00  0.00    +0.209 HD
ENDBRANCH   8   9
ENDBRANCH   7   8
ENDBRANCH   6   7
ENDBRANCH   5   6
ENDBRANCH   4   5
ENDBRANCH   3   4
ENDBRANCH   2   3
ENDBRANCH   1   2
BRANCH   1  11
ATOM     11  C   LIG    1        0.601  -0.459   0.349  0.00  0.00    -0.000 C 
BRANCH  11  12
ATOM     12  C   LIG    1        1.545   0.681   0.423  0.00  0.00    -0.000 C 
BRANCH  12  13
ATOM     13  C   LIG    1        2.590   0.592  -0.654  0.00  0.00    -0.000 C 
BRANCH  13  14
ATOM     14  C   LIG    1        3.394  -0.666  -0.525  0.00  0.00    -0.000 C 
BRANCH  14  15
ATOM     15  C   LIG    1        4.087  -0.730   0.782  0.00  0.00    -0.000 C 
BRANCH  15  16
ATOM     16  C   LIG    1        5.050   0.353   1.043  0.00  0.00    -0.000 C 
BRANCH  16  17
ATOM     17  C   LIG    1        6.241   0.384   0.184  0.00  0.00    -0.003 C 
ATOM     18  C   LIG    1        6.134   0.589  -1.279  0.00  0.00    +0.004 C 
ENDBRANCH  16  17
ENDBRANCH  15  16
ENDBRANCH  14  15
ENDBRANCH  13  14
ENDBRANCH  12  13
ENDBRANCH  11  12
ENDBRANCH   1  11
TORSDOF 15
