REMARK  Name = molecules/BXZVVICBKDXVGW-NKWVEPMBSA-N.pdb
REMARK                            x       y       z     vdW  Elec       q    Type
REMARK                         _______ _______ _______ _____ _____    ______ ____
ROOT
ATOM      1  N   LIG    1       -0.833  -0.622  -0.065  0.00  0.00    -0.288 N 
ATOM      2  C   LIG    1       -1.931   0.129   0.128  0.00  0.00    +0.169 A 
ATOM      3  N   LIG    1       -2.223   1.239   0.836  0.00  0.00    -0.218 NA
ATOM      4  C   LIG    1       -3.458   1.795   0.845  0.00  0.00    +0.201 A 
ATOM      5  N   LIG    1       -4.477   1.255   0.132  0.00  0.00    -0.312 N 
ATOM      6  H   LIG    1       -5.410   1.691   0.151  0.00  0.00    +0.170 HD
ATOM      7  C   LIG    1       -4.245   0.160  -0.584  0.00  0.00    +0.279 A 
ATOM      8  O   LIG    1       -5.193  -0.339  -1.244  0.00  0.00    -0.265 OA
ATOM      9  C   LIG    1       -2.992  -0.419  -0.604  0.00  0.00    +0.172 A 
ATOM     10  N   LIG    1       -2.455  -1.495  -1.210  0.00  0.00    -0.229 NA
ATOM     11  C   LIG    1       -1.151  -1.622  -0.887  0.00  0.00    +0.203 A 
ENDROOT
BRANCH   1  15
ATOM     12  C   LIG    1        2.469   0.387   0.400  0.00  0.00    +0.146 C 
ATOM     13  C   LIG    1        2.705  -1.069   0.757  0.00  0.00    +0.038 C 
ATOM     14  C   LIG    1        1.293  -1.638   0.645  0.00  0.00    +0.057 C 
ATOM     15  C   LIG    1        0.456  -0.379   0.519  0.00  0.00    +0.222 C 
ATOM     16  O   LIG    1        1.284   0.395  -0.326  0.00  0.00    -0.351 OA
BRANCH  12  17
ATOM     17  C   LIG    1        3.647   0.847  -0.427  0.00  0.00    +0.187 C 
BRANCH  17  18
ATOM     18  O   LIG    1        3.476   2.145  -0.902  0.00  0.00    -0.392 OA
ATOM     19  H   LIG    1        3.213   2.165  -1.855  0.00  0.00    +0.210 HD
ENDBRANCH  17  18
ENDBRANCH  12  17
ENDBRANCH   1  15
TORSDOF 3
