REMARK  Name = molecules/BYBLEWFAAKGYCD-GOSISDBHSA-N.pdb
REMARK                            x       y       z     vdW  Elec       q    Type
REMARK                         _______ _______ _______ _____ _____    ______ ____
ROOT
ATOM      1  C   LIG    1       -0.909  -0.369  -0.180  0.00  0.00    +0.170 C 
ENDROOT
BRANCH   1   2
ATOM      2  C   LIG    1       -1.735  -1.662  -0.088  0.00  0.00    +0.001 A 
ATOM      3  C   LIG    1       -3.069  -1.595   0.172  0.00  0.00    +0.009 A 
ATOM      4  C   LIG    1       -3.841  -2.768   0.286  0.00  0.00    +0.020 A 
ATOM      5  C   LIG    1       -3.228  -3.971   0.131  0.00  0.00    +0.042 A 
ATOM      6 CL   LIG    1       -4.206  -5.439   0.276  0.00  0.00    -0.083 Cl
ATOM      7  C   LIG    1       -1.883  -4.032  -0.132  0.00  0.00    +0.040 A 
ATOM      8  C   LIG    1       -1.121  -2.861  -0.245  0.00  0.00    +0.048 A 
ATOM      9 CL   LIG    1        0.607  -3.000  -0.628  0.00  0.00    -0.083 Cl
ENDBRANCH   1   2
BRANCH   1  10
ATOM     10  O   LIG    1       -0.209  -0.178   0.930  0.00  0.00    -0.366 OA
BRANCH  10  11
ATOM     11  C   LIG    1        1.025  -0.326   1.273  0.00  0.00    +0.197 C 
BRANCH  11  12
ATOM     12  C   LIG    1        2.165   0.252   0.551  0.00  0.00    -0.004 A 
ATOM     13  C   LIG    1        3.434   0.010   1.107  0.00  0.00    +0.048 A 
ATOM     14 CL   LIG    1        3.602  -0.906   2.589  0.00  0.00    -0.083 Cl
ATOM     15  C   LIG    1        4.581   0.475   0.520  0.00  0.00    +0.040 A 
ATOM     16  C   LIG    1        4.555   1.196  -0.631  0.00  0.00    +0.042 A 
ATOM     17  C   LIG    1        3.328   1.445  -1.194  0.00  0.00    +0.020 A 
ATOM     18 CL   LIG    1        6.027   1.787  -1.375  0.00  0.00    -0.083 Cl
ATOM     19  C   LIG    1        2.139   0.975  -0.605  0.00  0.00    +0.009 A 
ENDBRANCH  11  12
ENDBRANCH  10  11
ENDBRANCH   1  10
BRANCH   1  20
ATOM     20  C   LIG    1       -1.888   0.762  -0.327  0.00  0.00    +0.159 C 
BRANCH  20  21
ATOM     21  N   LIG    1       -1.294   2.048  -0.443  0.00  0.00    -0.334 N 
ATOM     22  C   LIG    1       -0.932   2.890   0.568  0.00  0.00    +0.107 A 
ATOM     23  C   LIG    1       -0.441   4.047   0.025  0.00  0.00    +0.130 A 
ATOM     24  N   LIG    1       -0.510   3.892  -1.287  0.00  0.00    -0.244 NA
ATOM     25  C   LIG    1       -1.017   2.707  -1.574  0.00  0.00    +0.199 A 
ENDBRANCH  20  21
ENDBRANCH   1  20
TORSDOF 6
