REMARK  Name = molecules/BYFMCKSPFYVMOU-UHFFFAOYSA-N.pdb
REMARK                            x       y       z     vdW  Elec       q    Type
REMARK                         _______ _______ _______ _____ _____    ______ ____
ROOT
ATOM      1  N   LIG    1       -0.207   0.087   1.067  0.00  0.00    -0.256 N 
ATOM      2  C   LIG    1        0.291   1.314   0.834  0.00  0.00    +0.073 A 
ATOM      3  C   LIG    1       -0.207   2.590   0.988  0.00  0.00    +0.028 A 
ATOM      4  C   LIG    1        0.501   3.732   0.678  0.00  0.00    +0.002 A 
ATOM      5  C   LIG    1        1.782   3.605   0.185  0.00  0.00    +0.001 A 
ATOM      6  C   LIG    1        2.310   2.342   0.019  0.00  0.00    +0.015 A 
ATOM      7  C   LIG    1        1.577   1.218   0.338  0.00  0.00    +0.063 A 
ATOM      8  C   LIG    1        1.847  -0.133   0.277  0.00  0.00    +0.242 A 
ATOM      9  N   LIG    1        0.757  -0.780   0.721  0.00  0.00    -0.132 NA
ENDROOT
BRANCH   1  10
ATOM     10  C   LIG    1       -1.525  -0.260   1.583  0.00  0.00    +0.179 C 
BRANCH  10  11
ATOM     11  C   LIG    1       -2.530  -0.458   0.545  0.00  0.00    -0.026 A 
ATOM     12  C   LIG    1       -3.321   0.586   0.130  0.00  0.00    +0.005 A 
ATOM     13  C   LIG    1       -4.284   0.464  -0.846  0.00  0.00    +0.000 A 
ATOM     14  C   LIG    1       -4.483  -0.747  -1.445  0.00  0.00    +0.000 A 
ATOM     15  C   LIG    1       -3.712  -1.821  -1.058  0.00  0.00    +0.000 A 
ATOM     16  C   LIG    1       -2.736  -1.678  -0.063  0.00  0.00    +0.005 A 
ENDBRANCH  10  11
ENDBRANCH   1  10
BRANCH   8  17
ATOM     17  O   LIG    1        3.045  -0.682  -0.170  0.00  0.00    -0.464 OA
BRANCH  17  18
ATOM     18  C   LIG    1        3.160  -2.112  -0.168  0.00  0.00    +0.350 C 
BRANCH  18  19
ATOM     19  C   LIG    1        4.483  -2.533  -0.668  0.00  0.00    +0.343 C 
ATOM     20  O   LIG    1        5.365  -1.716  -1.037  0.00  0.00    -0.247 OA
BRANCH  19  21
ATOM     21  O   LIG    1        4.759  -3.879  -0.732  0.00  0.00    -0.478 OA
ATOM     22  H   LIG    1        5.684  -4.226  -0.501  0.00  0.00    +0.295 HD
ENDBRANCH  19  21
ENDBRANCH  18  19
ENDBRANCH  17  18
ENDBRANCH   8  17
TORSDOF 6
