REMARK  Name = molecules/BYJAVTDNIXVSPW-GFCCVEGCSA-N.pdb
REMARK                            x       y       z     vdW  Elec       q    Type
REMARK                         _______ _______ _______ _____ _____    ______ ____
ROOT
ATOM      1  C   LIG    1        0.178   0.589  -0.378  0.00  0.00    +0.059 C 
ATOM      2  C   LIG    1       -0.296   1.857   0.274  0.00  0.00    +0.012 C 
ATOM      3  C   LIG    1       -1.710   2.212  -0.095  0.00  0.00    +0.005 C 
ATOM      4  C   LIG    1       -2.390   1.127  -0.900  0.00  0.00    +0.035 C 
ATOM      5  C   LIG    1       -2.104  -0.218  -0.319  0.00  0.00    -0.044 A 
ATOM      6  C   LIG    1       -3.090  -1.146  -0.056  0.00  0.00    +0.004 A 
ATOM      7  C   LIG    1       -2.775  -2.375   0.484  0.00  0.00    +0.000 A 
ATOM      8  C   LIG    1       -1.446  -2.632   0.746  0.00  0.00    +0.000 A 
ATOM      9  C   LIG    1       -0.442  -1.702   0.485  0.00  0.00    +0.004 A 
ATOM     10  C   LIG    1       -0.760  -0.487  -0.049  0.00  0.00    -0.038 A 
ENDROOT
BRANCH   1  11
ATOM     11  C   LIG    1        1.591   0.296  -0.101  0.00  0.00    +0.127 C 
ATOM     12  N   LIG    1        2.286   0.984   0.736  0.00  0.00    -0.214 NA
ATOM     13  C   LIG    1        3.630   0.485   0.815  0.00  0.00    +0.119 C 
ATOM     14  C   LIG    1        3.761  -0.403  -0.396  0.00  0.00    +0.099 C 
ATOM     15  N   LIG    1        2.390  -0.727  -0.670  0.00  0.00    -0.293 NA
ATOM     16  H   LIG    1        2.030  -1.542  -1.183  0.00  0.00    +0.124 HD
ENDBRANCH   1  11
TORSDOF 1
