REMARK  Name = molecules/BYZCJOHDXLROEC-RBWIMXSLSA-N.pdb
REMARK                            x       y       z     vdW  Elec       q    Type
REMARK                         _______ _______ _______ _____ _____    ______ ____
ROOT
ATOM      1  C   LIG    1        2.000  -0.051   0.625  0.00  0.00    +0.132 C 
ATOM      2  C   LIG    1        1.880   0.544   2.023  0.00  0.00    +0.151 C 
ATOM      3  O   LIG    1        1.806  -0.591   2.828  0.00  0.00    -0.348 OA
ATOM      4  C   LIG    1        2.226  -1.684   2.099  0.00  0.00    +0.178 C 
ATOM      5  C   LIG    1        2.531  -3.066   2.619  0.00  0.00    +0.065 C 
ATOM      6  C   LIG    1        0.521   1.273   1.960  0.00  0.00    +0.038 C 
ATOM      7  C   LIG    1       -0.240   0.294   1.163  0.00  0.00    +0.006 C 
ATOM      8  C   LIG    1       -1.569   0.748   0.607  0.00  0.00    +0.034 C 
ATOM      9  C   LIG    1       -2.468   1.256   1.710  0.00  0.00    +0.011 C 
ATOM     10  C   LIG    1       -3.749   1.784   1.039  0.00  0.00    +0.032 C 
ATOM     11  C   LIG    1       -4.341   0.582   0.310  0.00  0.00    -0.053 C 
ATOM     12  C   LIG    1       -5.510   0.128   0.624  0.00  0.00    +0.051 C 
ATOM     13  C   LIG    1       -6.061  -1.059  -0.009  0.00  0.00    +0.179 C 
ATOM     14  O   LIG    1       -7.202  -1.496   0.298  0.00  0.00    -0.288 OA
ATOM     15  C   LIG    1       -5.274  -1.745  -1.014  0.00  0.00    +0.047 C 
ATOM     16  C   LIG    1       -4.090  -1.255  -1.310  0.00  0.00    -0.009 C 
ATOM     17  C   LIG    1       -3.472  -0.058  -0.720  0.00  0.00    +0.044 C 
ATOM     18  C   LIG    1       -3.288   0.988  -1.818  0.00  0.00    +0.023 C 
ATOM     19  C   LIG    1       -2.171  -0.445  -0.053  0.00  0.00    +0.153 C 
ATOM     20  F   LIG    1       -2.578  -1.283   1.014  0.00  0.00    -0.238 F 
ATOM     21  C   LIG    1       -1.295  -1.208  -0.959  0.00  0.00    +0.153 C 
ATOM     22  C   LIG    1        0.171  -1.193  -0.666  0.00  0.00    +0.044 C 
ATOM     23  N   LIG    1        2.351  -1.429   0.844  0.00  0.00    -0.186 NA
ATOM     24  C   LIG    1        0.657   0.089  -0.039  0.00  0.00    +0.003 C 
ATOM     25  C   LIG    1        0.582   1.181  -1.045  0.00  0.00    +0.014 C 
ENDROOT
BRANCH   1  26
ATOM     26  C   LIG    1        3.079   0.711  -0.043  0.00  0.00    +0.195 C 
ATOM     27  O   LIG    1        2.923   1.896  -0.222  0.00  0.00    -0.292 OA
BRANCH  26  28
ATOM     28  C   LIG    1        4.303  -0.007  -0.466  0.00  0.00    +0.308 C 
BRANCH  28  29
ATOM     29  O   LIG    1        5.211   0.914  -1.088  0.00  0.00    -0.457 OA
BRANCH  29  30
ATOM     30  C   LIG    1        6.429   0.522  -1.576  0.00  0.00    +0.304 C 
ATOM     31  O   LIG    1        6.756  -0.686  -1.473  0.00  0.00    -0.251 OA
ATOM     32  C   LIG    1        7.390   1.462  -2.228  0.00  0.00    +0.136 C 
ENDBRANCH  29  30
ENDBRANCH  28  29
ENDBRANCH  26  28
ENDBRANCH   1  26
BRANCH  21  33
ATOM     33  O   LIG    1       -1.436  -0.908  -2.311  0.00  0.00    -0.389 OA
ATOM     34  H   LIG    1       -0.903  -1.564  -2.822  0.00  0.00    +0.210 HD
ENDBRANCH  21  33
TORSDOF 5
