REMARK  Name = molecules/BZKPWHYZMXOIDC-UHFFFAOYSA-N.pdb
REMARK                            x       y       z     vdW  Elec       q    Type
REMARK                         _______ _______ _______ _____ _____    ______ ____
ROOT
ATOM      1  C   LIG    1        1.644   0.096   0.156  0.00  0.00    +0.256 A 
ATOM      2  N   LIG    1        0.614   0.728   0.709  0.00  0.00    -0.119 NA
ATOM      3  N   LIG    1       -0.524   0.678   0.166  0.00  0.00    -0.124 NA
ATOM      4  C   LIG    1       -0.695  -0.004  -0.957  0.00  0.00    +0.189 A 
ATOM      5  S   LIG    1        0.883  -0.598  -1.226  0.00  0.00    -0.011 S 
ENDROOT
BRANCH   4   6
ATOM      6  N   LIG    1       -1.916  -0.158  -1.695  0.00  0.00    -0.263 N 
ATOM      7  C   LIG    1       -3.102   0.437  -1.265  0.00  0.00    +0.216 C 
ATOM      8  C   LIG    1       -3.148   1.247  -0.034  0.00  0.00    +0.109 C 
ATOM      9  O   LIG    1       -4.152   0.288  -1.925  0.00  0.00    -0.276 OA
ATOM     10  H   LIG    1       -1.924  -0.733  -2.585  0.00  0.00    +0.157 HD
ENDBRANCH   4   6
BRANCH   1  11
ATOM     11  S   LIG    1        3.314   0.002   0.697  0.00  0.00    +0.081 S 
ATOM     12  O   LIG    1        3.712   1.269   1.347  0.00  0.00    -0.151 OA
ATOM     13  O   LIG    1        4.186  -0.251  -0.522  0.00  0.00    -0.151 OA
BRANCH  11  14
ATOM     14  N   LIG    1        3.474  -1.370   1.734  0.00  0.00    -0.202 NA
ATOM     15  H   LIG    1        2.641  -1.430   2.356  0.00  0.00    +0.144 HD
ATOM     16  H   LIG    1        4.377  -1.323   2.283  0.00  0.00    +0.144 HD
ENDBRANCH  11  14
ENDBRANCH   1  11
TORSDOF 3
