REMARK  Name = molecules/BZQFBWGGLXLEPQ-REOHCLBHSA-N.pdb
REMARK                            x       y       z     vdW  Elec       q    Type
REMARK                         _______ _______ _______ _____ _____    ______ ____
ROOT
ATOM      1  C   UNK    1        0.045  -0.023  -0.139  0.00  0.00    +0.202 C 
ENDROOT
BRANCH   1   2
ATOM      2  C   UNK    1       -1.372  -0.534  -0.061  0.00  0.00    +0.187 C 
BRANCH   2   3
ATOM      3  N   UNK    1       -1.698  -1.440  -1.112  0.00  0.00    -0.317 NA
ATOM      4  H   UNK    1       -2.399  -2.124  -0.781  0.00  0.00    +0.119 HD
ATOM      5  H   UNK    1       -2.057  -0.985  -1.968  0.00  0.00    +0.119 HD
ENDBRANCH   2   3
BRANCH   2   6
ATOM      6  C   UNK    1       -2.281   0.630  -0.114  0.00  0.00    +0.324 C 
ATOM      7  O   UNK    1       -3.165   0.700  -0.993  0.00  0.00    -0.249 OA
BRANCH   6   8
ATOM      8  O   UNK    1       -2.148   1.656   0.826  0.00  0.00    -0.479 OA
ATOM      9  H   UNK    1       -2.958   2.196   1.090  0.00  0.00    +0.295 HD
ENDBRANCH   6   8
ENDBRANCH   2   6
ENDBRANCH   1   2
BRANCH   1  10
ATOM     10  O   UNK    1        0.977  -1.052  -0.067  0.00  0.00    -0.285 OA
BRANCH  10  11
ATOM     11  P   UNK    1        2.523  -0.378  -0.163  0.00  0.00    +0.472 P 
ATOM     12  O   UNK    1        3.324  -1.247  -1.120  0.00  0.00    -0.228 OA
BRANCH  11  13
ATOM     13  O   UNK    1        3.273  -0.345   1.350  0.00  0.00    -0.303 OA
ATOM     14  H   UNK    1        4.251  -0.261   1.225  0.00  0.00    +0.222 HD
ENDBRANCH  11  13
BRANCH  11  15
ATOM     15  O   UNK    1        2.410   1.148  -0.855  0.00  0.00    -0.303 OA
ATOM     16  H   UNK    1        2.362   1.877  -0.174  0.00  0.00    +0.222 HD
ENDBRANCH  11  15
ENDBRANCH  10  11
ENDBRANCH   1  10
TORSDOF 8
