REMARK  Name = molecules/BZRYYBWNOUALTQ-HOTGVXAUSA-N.pdb
REMARK                            x       y       z     vdW  Elec       q    Type
REMARK                         _______ _______ _______ _____ _____    ______ ____
ROOT
ATOM      1  C   LIG    1       -0.789   1.582   0.185  0.00  0.00    +0.036 C 
ENDROOT
BRANCH   1   7
ATOM      2  C   LIG    1       -3.164   0.816  -0.482  0.00  0.00    +0.002 C 
ATOM      3  C   LIG    1       -4.348   1.117   0.448  0.00  0.00    +0.008 C 
ATOM      4  C   LIG    1       -4.371  -0.367   0.753  0.00  0.00    -0.004 C 
ATOM      5  C   LIG    1       -3.388  -0.648   1.869  0.00  0.00    +0.008 C 
ATOM      6  C   LIG    1       -2.041  -0.175   1.367  0.00  0.00    +0.000 C 
ATOM      7  C   LIG    1       -1.980   0.721   0.392  0.00  0.00    -0.014 C 
ATOM      8  C   LIG    1       -3.749  -0.578  -0.622  0.00  0.00    -0.029 C 
ATOM      9  C   LIG    1       -2.701  -1.639  -0.695  0.00  0.00    +0.011 C 
ATOM     10  C   LIG    1       -4.843  -0.699  -1.659  0.00  0.00    +0.011 C 
ENDBRANCH   1   7
BRANCH   1  11
ATOM     11  C   LIG    1        0.291   1.308   1.188  0.00  0.00    +0.160 C 
BRANCH  11  12
ATOM     12  O   LIG    1        1.415   2.071   1.076  0.00  0.00    -0.378 OA
BRANCH  12  13
ATOM     13  C   LIG    1        2.043   1.944  -0.140  0.00  0.00    +0.175 C 
BRANCH  13  14
ATOM     14  C   LIG    1        2.493   0.551  -0.479  0.00  0.00    +0.112 C 
BRANCH  14  15
ATOM     15  N   LIG    1        3.419  -0.012   0.433  0.00  0.00    -0.301 NA
BRANCH  15  16
ATOM     16  C   LIG    1        3.376  -1.424   0.473  0.00  0.00    +0.081 C 
ATOM     17  C   LIG    1        3.852  -2.127  -0.767  0.00  0.00    +0.020 C 
ENDBRANCH  15  16
BRANCH  15  18
ATOM     18  C   LIG    1        4.706   0.581   0.465  0.00  0.00    +0.081 C 
ATOM     19  C   LIG    1        5.540   0.384  -0.761  0.00  0.00    +0.020 C 
ENDBRANCH  15  18
ENDBRANCH  14  15
ENDBRANCH  13  14
ENDBRANCH  12  13
ENDBRANCH  11  12
ENDBRANCH   1  11
TORSDOF 8
