REMARK  Name = molecules/CAHKINHBCWCHCF-JTQLQIEISA-N.pdb
REMARK                            x       y       z     vdW  Elec       q    Type
REMARK                         _______ _______ _______ _____ _____    ______ ____
ROOT
ATOM      1  CA  TYR A  1        1.173  -0.949   0.358  0.00  0.00    +0.186 C 
ENDROOT
BRANCH   1   2
ATOM      2  N   TYR A  1        1.734   0.232  -0.218  0.00  0.00    -0.302 N 
ATOM      3  C   UNK A  0        2.916   0.847   0.163  0.00  0.00    +0.211 C 
ATOM      4  O   UNK A  0        3.824   0.309   0.853  0.00  0.00    -0.276 OA
ATOM      5  C   UNK A  0        3.247   2.236  -0.324  0.00  0.00    +0.109 C 
ATOM      6  H   TYR A  1        1.237   0.590  -1.085  0.00  0.00    +0.150 HD
ENDBRANCH   1   2
BRANCH   1   7
ATOM      7  C   TYR A  1        2.099  -2.073   0.549  0.00  0.00    +0.326 C 
ATOM      8  OXT TYR A  1        3.021  -2.134   1.387  0.00  0.00    -0.249 OA
BRANCH   7   9
ATOM      9  O   TYR A  1        1.963  -3.195  -0.291  0.00  0.00    -0.479 OA
ATOM     10  H   TYR A  1        1.140  -3.420  -0.808  0.00  0.00    +0.295 HD
ENDBRANCH   7   9
ENDBRANCH   1   7
BRANCH   1  11
ATOM     11  CB  TYR A  1       -0.077  -1.441  -0.224  0.00  0.00    +0.069 C 
BRANCH  11  12
ATOM     12  CG  TYR A  1       -1.402  -0.732  -0.172  0.00  0.00    -0.045 A 
ATOM     13  CD2 TYR A  1       -1.790  -0.220   0.990  0.00  0.00    +0.007 A 
ATOM     14  CE2 TYR A  1       -2.891   0.694   1.085  0.00  0.00    +0.045 A 
ATOM     15  CZ  TYR A  1       -3.402   0.962  -0.122  0.00  0.00    +0.117 A 
ATOM     16  CE1 TYR A  1       -3.139   0.447  -1.347  0.00  0.00    +0.045 A 
ATOM     17  CD1 TYR A  1       -2.036  -0.438  -1.232  0.00  0.00    +0.007 A 
BRANCH  15  18
ATOM     18  OH  TYR A  1       -4.381   2.148  -0.163  0.00  0.00    -0.507 OA
ATOM     19  HH  TYR A  1       -3.873   2.917  -0.862  0.00  0.00    +0.292 HD
ENDBRANCH  15  18
ENDBRANCH  11  12
ENDBRANCH   1  11
TORSDOF 6
