REMARK  Name = molecules/CAJIGINSTLKQMM-UHFFFAOYSA-N.pdb
REMARK                            x       y       z     vdW  Elec       q    Type
REMARK                         _______ _______ _______ _____ _____    ______ ____
ROOT
ATOM      1  C   LIG    1        1.499   1.635  -0.087  0.00  0.00    +0.101 A 
ATOM      2  C   LIG    1        1.519   2.892   0.424  0.00  0.00    +0.020 A 
ATOM      3  C   LIG    1        2.655   3.549   0.845  0.00  0.00    +0.024 A 
ATOM      4  C   LIG    1        3.855   2.861   0.730  0.00  0.00    +0.028 A 
ATOM      5  C   LIG    1        3.896   1.574   0.215  0.00  0.00    +0.069 A 
ATOM      6  C   LIG    1        2.732   0.958  -0.192  0.00  0.00    +0.136 A 
ENDROOT
BRANCH   4   7
ATOM      7  N   LIG    1        5.075   3.443   1.132  0.00  0.00    -0.358 N 
ATOM      8  H   LIG    1        5.096   4.054   1.961  0.00  0.00    +0.142 HD
ATOM      9  H   LIG    1        5.933   3.255   0.597  0.00  0.00    +0.142 HD
ENDBRANCH   4   7
BRANCH   1  10
ATOM     10  C   LIG    1        0.261   0.971  -0.526  0.00  0.00    +0.343 C 
ATOM     11  O   LIG    1        0.310  -0.183  -0.994  0.00  0.00    -0.245 OA
BRANCH  10  12
ATOM     12  O   LIG    1       -0.968   1.565  -0.446  0.00  0.00    -0.460 OA
BRANCH  12  13
ATOM     13  C   LIG    1       -2.196   1.012  -0.836  0.00  0.00    +0.248 C 
BRANCH  13  14
ATOM     14  C   LIG    1       -2.551  -0.246  -0.124  0.00  0.00    +0.125 C 
BRANCH  14  15
ATOM     15  N   LIG    1       -3.815  -0.775  -0.554  0.00  0.00    -0.300 NA
BRANCH  15  16
ATOM     16  C   LIG    1       -4.156  -2.007   0.115  0.00  0.00    +0.081 C 
ATOM     17  C   LIG    1       -4.444  -1.873   1.567  0.00  0.00    +0.020 C 
ENDBRANCH  15  16
BRANCH  15  18
ATOM     18  C   LIG    1       -4.896   0.177  -0.559  0.00  0.00    +0.081 C 
ATOM     19  C   LIG    1       -6.135  -0.571  -1.059  0.00  0.00    +0.020 C 
ENDBRANCH  15  18
ENDBRANCH  14  15
ENDBRANCH  13  14
ENDBRANCH  12  13
ENDBRANCH  10  12
ENDBRANCH   1  10
BRANCH   6  20
ATOM     20  O   LIG    1        2.641  -0.307  -0.718  0.00  0.00    -0.491 OA
BRANCH  20  21
ATOM     21  C   LIG    1        3.633  -1.216  -0.920  0.00  0.00    +0.229 C 
BRANCH  21  22
ATOM     22  C   LIG    1        4.304  -1.734   0.328  0.00  0.00    +0.038 C 
ATOM     23  C   LIG    1        5.376  -2.722  -0.138  0.00  0.00    +0.007 C 
ENDBRANCH  21  22
ENDBRANCH  20  21
ENDBRANCH   6  20
TORSDOF 11
