REMARK  Name = molecules/CANBGVXYBPOLRR-LLVKDONJSA-N.pdb
REMARK                            x       y       z     vdW  Elec       q    Type
REMARK                         _______ _______ _______ _____ _____    ______ ____
ROOT
ATOM      1  C   LIG    1       -0.940  -0.035  -0.075  0.00  0.00    -0.000 C 
ATOM      2  C   LIG    1        0.238  -0.606  -0.107  0.00  0.00    +0.001 C 
ENDROOT
BRANCH   1   3
ATOM      3  C   LIG    1       -1.191   1.285   0.469  0.00  0.00    +0.020 A 
ATOM      4  S   LIG    1       -0.027   2.340   1.190  0.00  0.00    -0.097 S 
ATOM      5  C   LIG    1       -1.024   3.657   1.583  0.00  0.00    +0.046 A 
ATOM      6  C   LIG    1       -2.241   3.237   1.140  0.00  0.00    +0.008 A 
ATOM      7  C   LIG    1       -2.326   2.023   0.570  0.00  0.00    +0.016 A 
ENDBRANCH   1   3
BRANCH   1   8
ATOM      8  C   LIG    1       -2.084  -0.795  -0.626  0.00  0.00    +0.020 A 
ATOM      9  S   LIG    1       -3.736  -0.398  -0.749  0.00  0.00    -0.097 S 
ATOM     10  C   LIG    1       -4.345  -1.796  -1.485  0.00  0.00    +0.046 A 
ATOM     11  C   LIG    1       -3.220  -2.561  -1.624  0.00  0.00    +0.008 A 
ATOM     12  C   LIG    1       -2.058  -2.051  -1.184  0.00  0.00    +0.016 A 
ENDBRANCH   1   8
BRANCH   2  13
ATOM     13  C   LIG    1        1.525  -0.053   0.378  0.00  0.00    +0.077 C 
ATOM     14  C   LIG    1        1.625  -0.234   1.875  0.00  0.00    +0.028 C 
BRANCH  13  15
ATOM     15  N   LIG    1        2.647  -0.823  -0.182  0.00  0.00    -0.302 NA
ATOM     16  C   LIG    1        3.857  -0.216   0.344  0.00  0.00    +0.105 C 
ATOM     17  C   LIG    1        2.684  -0.766  -1.611  0.00  0.00    +0.105 C 
ENDBRANCH  13  15
ENDBRANCH   2  13
TORSDOF 4
