REMARK  Name = molecules/CANCCLAKQQHLNK-CABCVRRESA-N.pdb
REMARK                            x       y       z     vdW  Elec       q    Type
REMARK                         _______ _______ _______ _____ _____    ______ ____
ROOT
ATOM      1  O   LIG    1       -0.119   0.973  -1.500  0.00  0.00    -0.435 OA
ENDROOT
BRANCH   1   2
ATOM      2  C   LIG    1        0.976   0.590  -0.752  0.00  0.00    +0.131 A 
ATOM      3  C   LIG    1        0.922   0.194   0.573  0.00  0.00    +0.046 A 
ATOM      4  C   LIG    1        2.040  -0.182   1.281  0.00  0.00    +0.008 A 
ATOM      5  C   LIG    1        3.280  -0.177   0.685  0.00  0.00    -0.041 A 
ATOM      6  C   LIG    1        4.642  -0.516   1.135  0.00  0.00    +0.020 C 
ATOM      7  C   LIG    1        5.421   0.765   1.216  0.00  0.00    +0.009 C 
ATOM      8  C   LIG    1        5.506   1.211  -0.242  0.00  0.00    +0.009 C 
ATOM      9  C   LIG    1        4.782   0.132  -1.018  0.00  0.00    +0.020 C 
ATOM     10  C   LIG    1        5.211  -1.089  -0.179  0.00  0.00    +0.016 C 
ATOM     11  C   LIG    1        3.368   0.217  -0.647  0.00  0.00    -0.037 A 
ATOM     12  C   LIG    1        2.244   0.591  -1.349  0.00  0.00    +0.050 A 
ENDBRANCH   1   2
BRANCH   1  13
ATOM     13  C   LIG    1       -1.365   0.971  -0.912  0.00  0.00    +0.240 C 
ATOM     14  S   LIG    1       -2.015   2.447  -0.601  0.00  0.00    +0.007 S 
BRANCH  13  15
ATOM     15  N   LIG    1       -2.075  -0.206  -0.579  0.00  0.00    -0.268 N 
ATOM     16  C   LIG    1       -1.530  -1.515  -0.840  0.00  0.00    +0.139 C 
BRANCH  15  17
ATOM     17  C   LIG    1       -3.347  -0.097   0.028  0.00  0.00    +0.037 A 
ATOM     18  C   LIG    1       -3.458   0.134   1.378  0.00  0.00    +0.023 A 
ATOM     19  C   LIG    1       -4.722   0.247   1.975  0.00  0.00    +0.002 A 
ATOM     20  C   LIG    1       -5.829   0.120   1.171  0.00  0.00    +0.003 A 
ATOM     21  C   LIG    1       -5.753  -0.116  -0.208  0.00  0.00    -0.049 A 
ATOM     22  C   LIG    1       -6.986  -0.247  -1.022  0.00  0.00    +0.044 C 
ATOM     23  C   LIG    1       -4.481  -0.221  -0.759  0.00  0.00    +0.027 A 
ENDBRANCH  15  17
ENDBRANCH  13  15
ENDBRANCH   1  13
TORSDOF 4
