REMARK  Name = molecules/CBEQULMOCCWAQT-WOJGMQOQSA-N.pdb
REMARK                            x       y       z     vdW  Elec       q    Type
REMARK                         _______ _______ _______ _____ _____    ______ ____
ROOT
ATOM      1  C   LIG    1        0.548   0.911  -0.312  0.00  0.00    +0.005 C 
ATOM      2  C   LIG    1       -0.724   0.867  -0.527  0.00  0.00    -0.001 C 
ENDROOT
BRANCH   1   3
ATOM      3  C   LIG    1        1.390  -0.276  -0.368  0.00  0.00    -0.016 A 
ATOM      4  C   LIG    1        0.968  -1.492   0.106  0.00  0.00    +0.009 A 
ATOM      5  C   LIG    1        1.834  -2.595   0.161  0.00  0.00    +0.004 A 
ATOM      6  C   LIG    1        3.140  -2.482  -0.260  0.00  0.00    -0.050 A 
ATOM      7  C   LIG    1        4.068  -3.635  -0.208  0.00  0.00    +0.044 C 
ATOM      8  C   LIG    1        3.538  -1.264  -0.725  0.00  0.00    +0.004 A 
ATOM      9  C   LIG    1        2.716  -0.177  -0.791  0.00  0.00    +0.009 A 
ENDBRANCH   1   3
BRANCH   1  10
ATOM     10  C   LIG    1        1.217   2.192   0.033  0.00  0.00    +0.071 A 
ATOM     11  N   LIG    1        2.511   2.167   0.393  0.00  0.00    -0.255 NA
ATOM     12  C   LIG    1        3.201   3.251   0.759  0.00  0.00    +0.111 A 
ATOM     13  C   LIG    1        2.593   4.485   0.783  0.00  0.00    +0.020 A 
ATOM     14  C   LIG    1        1.281   4.554   0.425  0.00  0.00    +0.004 A 
ATOM     15  C   LIG    1        0.572   3.408   0.044  0.00  0.00    +0.028 A 
ENDBRANCH   1  10
BRANCH   2  16
ATOM     16  C   LIG    1       -1.532  -0.288  -0.862  0.00  0.00    +0.112 C 
BRANCH  16  17
ATOM     17  N   LIG    1       -2.542  -0.657   0.089  0.00  0.00    -0.299 NA
ATOM     18  C   LIG    1       -3.516   0.394   0.316  0.00  0.00    +0.085 C 
ATOM     19  C   LIG    1       -4.849  -0.335   0.497  0.00  0.00    +0.017 C 
ATOM     20  C   LIG    1       -4.696  -1.446  -0.535  0.00  0.00    +0.017 C 
ATOM     21  C   LIG    1       -3.245  -1.807  -0.389  0.00  0.00    +0.085 C 
ENDBRANCH  16  17
ENDBRANCH   2  16
TORSDOF 4
