REMARK  Name = molecules/CBGUOGMQLZIXBE-XGQKBEPLSA-N.pdb
REMARK                            x       y       z     vdW  Elec       q    Type
REMARK                         _______ _______ _______ _____ _____    ______ ____
ROOT
ATOM      1  C   LIG    1        2.268   0.314  -0.678  0.00  0.00    +0.180 C 
ATOM      2  C   LIG    1        2.010   1.724  -0.440  0.00  0.00    +0.038 C 
ATOM      3  C   LIG    1        2.992   2.749  -0.838  0.00  0.00    +0.012 C 
ATOM      4  C   LIG    1        0.573   2.048  -0.895  0.00  0.00    +0.012 C 
ATOM      5  C   LIG    1       -0.045   0.830  -0.341  0.00  0.00    +0.006 C 
ATOM      6  C   LIG    1       -1.483   0.577  -0.586  0.00  0.00    +0.034 C 
ATOM      7  C   LIG    1       -1.796  -0.560   0.386  0.00  0.00    +0.153 C 
ATOM      8  F   LIG    1       -1.695   0.039   1.653  0.00  0.00    -0.238 F 
ATOM      9  C   LIG    1       -0.836  -1.668   0.351  0.00  0.00    +0.154 C 
ATOM     10  C   LIG    1        0.600  -1.391   0.194  0.00  0.00    +0.045 C 
ATOM     11  C   LIG    1       -3.221  -0.913   0.197  0.00  0.00    +0.044 C 
ATOM     12  C   LIG    1       -3.620  -2.108   0.927  0.00  0.00    -0.009 C 
ATOM     13  C   LIG    1       -4.542  -2.173   1.874  0.00  0.00    +0.047 C 
ATOM     14  C   LIG    1       -5.241  -0.977   2.251  0.00  0.00    +0.179 C 
ATOM     15  O   LIG    1       -6.126  -0.987   3.144  0.00  0.00    -0.288 OA
ATOM     16  C   LIG    1       -4.902   0.266   1.569  0.00  0.00    +0.051 C 
ATOM     17  C   LIG    1       -3.981   0.307   0.630  0.00  0.00    -0.053 C 
ATOM     18  C   LIG    1       -3.702   1.623   0.009  0.00  0.00    +0.032 C 
ATOM     19  C   LIG    1       -3.595  -1.097  -1.268  0.00  0.00    +0.023 C 
ATOM     20  C   LIG    1       -2.248   1.822  -0.304  0.00  0.00    +0.011 C 
ATOM     21  C   LIG    1        0.844  -0.279  -0.796  0.00  0.00    +0.021 C 
ATOM     22  C   LIG    1        0.590  -0.829  -2.138  0.00  0.00    +0.016 C 
ENDROOT
BRANCH   9  23
ATOM     23  O   LIG    1       -1.188  -2.737  -0.511  0.00  0.00    -0.389 OA
ATOM     24  H   LIG    1       -0.784  -3.583  -0.188  0.00  0.00    +0.210 HD
ENDBRANCH   9  23
BRANCH   1  25
ATOM     25  C   LIG    1        3.077  -0.166  -1.745  0.00  0.00    +0.192 C 
ATOM     26  O   LIG    1        3.768  -1.174  -1.416  0.00  0.00    -0.292 OA
BRANCH  25  27
ATOM     27  C   LIG    1        3.350   0.179  -3.136  0.00  0.00    +0.187 C 
ATOM     28 CL   LIG    1        2.645   1.595  -3.844  0.00  0.00    -0.117 Cl
ENDBRANCH  25  27
ENDBRANCH   1  25
BRANCH   1  29
ATOM     29  O   LIG    1        2.703  -0.295   0.571  0.00  0.00    -0.449 OA
BRANCH  29  30
ATOM     30  C   LIG    1        3.956  -0.162   1.079  0.00  0.00    +0.308 C 
ATOM     31  O   LIG    1        4.808   0.511   0.470  0.00  0.00    -0.251 OA
BRANCH  30  32
ATOM     32  C   LIG    1        4.358  -0.799   2.359  0.00  0.00    +0.117 C 
ATOM     33  C   LIG    1        4.343   0.162   3.517  0.00  0.00    +0.015 C 
ENDBRANCH  30  32
ENDBRANCH  29  30
ENDBRANCH   1  29
TORSDOF 6
