REMARK  Name = molecules/CBHCDHNUZWWAPP-OAHLLOKOSA-N.pdb
REMARK                            x       y       z     vdW  Elec       q    Type
REMARK                         _______ _______ _______ _____ _____    ______ ____
ROOT
ATOM      1  C   LIG    1       -2.312   3.096  -1.491  0.00  0.00    +0.002 A 
ATOM      2  C   LIG    1       -3.543   3.281  -0.908  0.00  0.00    +0.001 A 
ATOM      3  C   LIG    1       -4.056   2.260  -0.156  0.00  0.00    +0.017 A 
ATOM      4  C   LIG    1       -3.342   1.107  -0.008  0.00  0.00    +0.034 A 
ATOM      5  S   LIG    1       -4.093  -0.149   0.998  0.00  0.00    -0.089 S 
ATOM      6  C   LIG    1       -2.956  -1.510   0.997  0.00  0.00    +0.020 C 
ATOM      7  C   LIG    1       -3.343  -2.619   1.706  0.00  0.00    +0.013 C 
ATOM      8  C   LIG    1       -2.559  -3.725   1.772  0.00  0.00    +0.001 C 
ATOM      9  C   LIG    1       -1.365  -3.692   1.104  0.00  0.00    -0.002 C 
ATOM     10  C   LIG    1       -0.977  -2.573   0.390  0.00  0.00    +0.007 C 
ATOM     11  C   LIG    1       -1.754  -1.423   0.301  0.00  0.00    +0.115 C 
ATOM     12  N   LIG    1       -1.329  -0.296  -0.452  0.00  0.00    -0.313 N 
ATOM     13  C   LIG    1       -2.114   0.901  -0.581  0.00  0.00    +0.045 A 
ATOM     14  C   LIG    1       -1.587   1.922  -1.340  0.00  0.00    +0.024 A 
ENDROOT
BRANCH  12  15
ATOM     15  C   LIG    1       -0.008  -0.366  -1.093  0.00  0.00    +0.111 C 
BRANCH  15  16
ATOM     16  C   LIG    1        1.144  -0.235  -0.174  0.00  0.00    +0.020 C 
ATOM     17  C   LIG    1        1.136   1.114   0.574  0.00  0.00    +0.007 C 
ATOM     18  C   LIG    1        2.395   1.292   1.365  0.00  0.00    +0.016 C 
ATOM     19  C   LIG    1        3.643   0.994   0.570  0.00  0.00    +0.084 C 
ATOM     20  N   LIG    1        3.513  -0.285  -0.082  0.00  0.00    -0.305 NA
ATOM     21  C   LIG    1        4.712  -0.747  -0.696  0.00  0.00    +0.104 C 
ATOM     22  C   LIG    1        2.410  -0.124  -1.042  0.00  0.00    +0.089 C 
ENDBRANCH  15  16
ENDBRANCH  12  15
TORSDOF 2
