REMARK  Name = molecules/CBPNZQVSJQDFBE-QWRHTZMXSA-N.pdb
REMARK                            x       y       z     vdW  Elec       q    Type
REMARK                         _______ _______ _______ _____ _____    ______ ____
ROOT
ATOM      1  C   LIG    1       -3.459   3.252   0.084  0.00  0.00    +0.215 C 
ATOM      2  C   LIG    1       -3.149   4.577   0.734  0.00  0.00    +0.049 C 
ATOM      3  C   LIG    1       -3.135   4.543   2.218  0.00  0.00    +0.013 C 
ATOM      4  C   LIG    1       -3.991   5.663   0.122  0.00  0.00    +0.011 C 
ATOM      5  C   LIG    1       -5.436   5.281   0.151  0.00  0.00    +0.032 C 
ATOM      6  C   LIG    1       -5.640   3.874   0.663  0.00  0.00    +0.124 C 
ATOM      7  C   LIG    1       -7.078   3.493   0.390  0.00  0.00    +0.063 C 
ATOM      8  C   LIG    1       -7.205   2.408  -0.658  0.00  0.00    +0.127 C 
ATOM      9  C   LIG    1       -8.028   1.306  -0.040  0.00  0.00    +0.006 C 
ATOM     10  C   LIG    1       -7.494   0.461   0.840  0.00  0.00    +0.006 C 
ATOM     11  C   LIG    1       -6.130  -0.040   0.765  0.00  0.00    +0.000 C 
ATOM     12  C   LIG    1       -5.572  -0.413  -0.399  0.00  0.00    +0.000 C 
ATOM     13  C   LIG    1       -6.321  -1.169  -1.397  0.00  0.00    -0.000 C 
ATOM     14  C   LIG    1       -7.153  -2.164  -1.067  0.00  0.00    -0.001 C 
ATOM     15  C   LIG    1       -6.764  -3.146   0.008  0.00  0.00    -0.010 C 
ATOM     16  C   LIG    1       -7.885  -4.093   0.230  0.00  0.00    +0.008 C 
ATOM     17  C   LIG    1       -5.439  -3.756  -0.255  0.00  0.00    +0.014 C 
ATOM     18  C   LIG    1       -5.429  -5.238  -0.397  0.00  0.00    +0.055 C 
ATOM     19  C   LIG    1       -4.005  -5.669  -0.574  0.00  0.00    +0.167 C 
ATOM     20  C   LIG    1       -2.959  -5.432   0.461  0.00  0.00    +0.213 C 
ATOM     21  C   LIG    1       -2.099  -4.238   0.168  0.00  0.00    +0.157 C 
ATOM     22  C   LIG    1       -0.646  -4.541   0.266  0.00  0.00    +0.009 C 
ATOM     23  C   LIG    1        0.070  -4.374   1.362  0.00  0.00    +0.012 C 
ATOM     24  C   LIG    1       -0.159  -3.268   2.330  0.00  0.00    +0.056 C 
ATOM     25  C   LIG    1        0.705  -3.487   3.553  0.00  0.00    +0.016 C 
ATOM     26  C   LIG    1        0.132  -1.943   1.763  0.00  0.00    +0.140 C 
ATOM     27  O   LIG    1       -0.262  -0.957   2.364  0.00  0.00    -0.297 OA
ATOM     28  C   LIG    1        0.884  -1.751   0.495  0.00  0.00    +0.119 C 
ATOM     29  C   LIG    1        1.504  -0.356   0.408  0.00  0.00    +0.186 C 
ATOM     30  O   LIG    1        0.964   0.249  -0.712  0.00  0.00    -0.459 OA
ATOM     31  C   LIG    1        0.086   1.280  -0.879  0.00  0.00    +0.328 C 
ATOM     32  C   LIG    1        0.435   2.667  -0.651  0.00  0.00    +0.185 C 
ATOM     33  C   LIG    1        0.562   3.133   0.763  0.00  0.00    +0.034 C 
ATOM     34  C   LIG    1        1.368   4.437   0.690  0.00  0.00    +0.004 C 
ATOM     35  C   LIG    1        0.801   5.449  -0.234  0.00  0.00    +0.019 C 
ATOM     36  C   LIG    1        0.414   4.914  -1.584  0.00  0.00    +0.109 C 
ATOM     37  N   LIG    1       -0.348   3.668  -1.337  0.00  0.00    -0.285 N 
ATOM     38  C   LIG    1       -1.657   3.628  -1.799  0.00  0.00    +0.261 C 
ATOM     39  O   LIG    1       -1.771   4.173  -2.986  0.00  0.00    -0.272 OA
ATOM     40  O   LIG    1       -1.082   1.014  -1.252  0.00  0.00    -0.249 OA
ATOM     41  C   LIG    1        0.037  -5.067  -0.953  0.00  0.00    +0.015 C 
ATOM     42  O   LIG    1       -3.641  -6.241  -1.591  0.00  0.00    -0.294 OA
ATOM     43  C   LIG    1       -6.217  -5.715  -1.591  0.00  0.00    +0.015 C 
ATOM     44  C   LIG    1       -9.459   1.138  -0.399  0.00  0.00    +0.015 C 
ATOM     45  O   LIG    1       -4.823   2.954   0.091  0.00  0.00    -0.342 OA
ATOM     46  C   LIG    1       -2.880   3.127  -1.262  0.00  0.00    +0.277 C 
ATOM     47  O   LIG    1       -3.607   2.453  -2.090  0.00  0.00    -0.208 OA
ENDROOT
BRANCH   1  48
ATOM     48  O   LIG    1       -2.890   2.263   0.888  0.00  0.00    -0.362 OA
ATOM     49  H   LIG    1       -3.518   1.798   1.465  0.00  0.00    +0.213 HD
ENDBRANCH   1  48
BRANCH  20  50
ATOM     50  O   LIG    1       -3.598  -5.355   1.682  0.00  0.00    -0.370 OA
ATOM     51  C   LIG    1       -3.169  -6.380   2.557  0.00  0.00    +0.195 C 
ENDBRANCH  20  50
BRANCH  29  52
ATOM     52  C   LIG    1        3.023  -0.591   0.281  0.00  0.00    +0.027 C 
ATOM     53  C   LIG    1        3.458  -1.244   1.576  0.00  0.00    +0.011 C 
BRANCH  52  54
ATOM     54  C   LIG    1        3.737   0.691   0.090  0.00  0.00    +0.010 C 
BRANCH  54  55
ATOM     55  C   LIG    1        5.205   0.654  -0.059  0.00  0.00    -0.008 C 
ATOM     56  C   LIG    1        6.008   0.330   1.159  0.00  0.00    +0.039 C 
ATOM     57  C   LIG    1        7.447   0.779   0.822  0.00  0.00    +0.159 C 
ATOM     58  C   LIG    1        7.974  -0.272  -0.123  0.00  0.00    +0.205 C 
ATOM     59  C   LIG    1        6.915  -0.985  -0.889  0.00  0.00    +0.047 C 
ATOM     60  C   LIG    1        5.706  -0.159  -1.230  0.00  0.00    +0.007 C 
BRANCH  57  61
ATOM     61  O   LIG    1        8.200   0.933   1.961  0.00  0.00    -0.376 OA
ATOM     62  C   LIG    1        8.600   2.282   2.021  0.00  0.00    +0.194 C 
ENDBRANCH  57  61
BRANCH  58  63
ATOM     63  O   LIG    1        9.012   0.251  -0.951  0.00  0.00    -0.458 OA
BRANCH  63  64
ATOM     64  C   LIG    1       10.329  -0.175  -0.867  0.00  0.00    +0.318 C 
ATOM     65  O   LIG    1       10.559  -1.074   0.008  0.00  0.00    -0.250 OA
BRANCH  64  66
ATOM     66  C   LIG    1       11.413   0.352  -1.712  0.00  0.00    +0.111 C 
ATOM     67  C   LIG    1       11.197   0.103  -3.185  0.00  0.00    +0.027 C 
BRANCH  66  68
ATOM     68  C   LIG    1       12.710  -0.314  -1.319  0.00  0.00    +0.176 C 
BRANCH  68  69
ATOM     69  O   LIG    1       12.966  -0.036   0.005  0.00  0.00    -0.394 OA
ATOM     70  H   LIG    1       13.812   0.463   0.136  0.00  0.00    +0.209 HD
ENDBRANCH  68  69
ENDBRANCH  66  68
BRANCH  66  71
ATOM     71  C   LIG    1       11.612   1.853  -1.539  0.00  0.00    +0.176 C 
BRANCH  71  72
ATOM     72  O   LIG    1       11.932   2.140  -0.218  0.00  0.00    -0.394 OA
ATOM     73  H   LIG    1       11.299   1.722   0.412  0.00  0.00    +0.209 HD
ENDBRANCH  71  72
ENDBRANCH  66  71
ENDBRANCH  64  66
ENDBRANCH  63  64
ENDBRANCH  58  63
ENDBRANCH  54  55
ENDBRANCH  52  54
ENDBRANCH  29  52
BRANCH  21  74
ATOM     74  O   LIG    1       -2.335  -3.644  -1.046  0.00  0.00    -0.388 OA
ATOM     75  H   LIG    1       -2.337  -4.312  -1.777  0.00  0.00    +0.210 HD
ENDBRANCH  21  74
BRANCH   8  76
ATOM     76  O   LIG    1       -7.911   2.845  -1.771  0.00  0.00    -0.379 OA
ATOM     77  C   LIG    1       -7.118   2.642  -2.894  0.00  0.00    +0.194 C 
ENDBRANCH   8  76
TORSDOF 15
