REMARK  Name = molecules/CBQGYUDMJHNJBX-RTBURBONSA-N.pdb
REMARK                            x       y       z     vdW  Elec       q    Type
REMARK                         _______ _______ _______ _____ _____    ______ ____
ROOT
ATOM      1  C   LIG    1       -1.007   0.855  -0.451  0.00  0.00    +0.234 C 
ENDROOT
BRANCH   1   2
ATOM      2  C   LIG    1       -2.064  -0.194  -0.832  0.00  0.00    +0.177 C 
ATOM      3  O   LIG    1       -2.311  -0.965   0.247  0.00  0.00    -0.370 OA
ATOM      4  C   LIG    1       -2.385  -2.303   0.094  0.00  0.00    +0.175 C 
ATOM      5  C   LIG    1       -2.725  -2.841  -1.241  0.00  0.00    +0.109 C 
ATOM      6  N   LIG    1       -2.706  -1.903  -2.319  0.00  0.00    -0.311 NA
ATOM      7  H   LIG    1       -3.587  -1.349  -2.412  0.00  0.00    +0.122 HD
ATOM      8  C   LIG    1       -1.638  -0.937  -2.065  0.00  0.00    +0.116 C 
ENDBRANCH   1   2
BRANCH   1   9
ATOM      9  C   LIG    1       -1.566   1.701   0.661  0.00  0.00    -0.005 A 
ATOM     10  C   LIG    1       -1.624   1.178   1.928  0.00  0.00    +0.007 A 
ATOM     11  C   LIG    1       -2.131   1.923   2.977  0.00  0.00    +0.000 A 
ATOM     12  C   LIG    1       -2.580   3.202   2.734  0.00  0.00    +0.000 A 
ATOM     13  C   LIG    1       -2.530   3.744   1.468  0.00  0.00    +0.000 A 
ATOM     14  C   LIG    1       -2.018   2.979   0.434  0.00  0.00    +0.007 A 
ENDBRANCH   1   9
BRANCH   1  15
ATOM     15  O   LIG    1        0.163   0.217  -0.049  0.00  0.00    -0.478 OA
BRANCH  15  16
ATOM     16  C   LIG    1        1.385   0.339  -0.647  0.00  0.00    +0.163 A 
ATOM     17  C   LIG    1        2.441  -0.391  -0.083  0.00  0.00    +0.162 A 
ATOM     18  C   LIG    1        3.675  -0.285  -0.665  0.00  0.00    +0.049 A 
ATOM     19  C   LIG    1        3.893   0.514  -1.778  0.00  0.00    +0.004 A 
ATOM     20  C   LIG    1        2.838   1.218  -2.308  0.00  0.00    +0.004 A 
ATOM     21  C   LIG    1        1.559   1.141  -1.747  0.00  0.00    +0.049 A 
BRANCH  17  22
ATOM     22  O   LIG    1        2.186  -1.177   1.026  0.00  0.00    -0.489 OA
BRANCH  22  23
ATOM     23  C   LIG    1        3.148  -1.944   1.682  0.00  0.00    +0.226 C 
ATOM     24  C   LIG    1        4.288  -1.159   2.248  0.00  0.00    +0.048 C 
ENDBRANCH  22  23
ENDBRANCH  17  22
ENDBRANCH  15  16
ENDBRANCH   1  15
TORSDOF 6
