REMARK  Name = molecules/CBVCZFGXHXORBI-PXQQMZJSSA-N.pdb
REMARK                            x       y       z     vdW  Elec       q    Type
REMARK                         _______ _______ _______ _____ _____    ______ ____
ROOT
ATOM      1  C   LIG    1        0.238   1.418   0.953  0.00  0.00    +0.129 C 
ENDROOT
BRANCH   1   2
ATOM      2  O   LIG    1        0.261   1.733   2.317  0.00  0.00    -0.391 OA
ATOM      3  H   LIG    1        0.644   2.613   2.497  0.00  0.00    +0.210 HD
ENDBRANCH   1   2
BRANCH   1   4
ATOM      4  C   LIG    1        1.596   1.156   0.436  0.00  0.00    +0.045 C 
BRANCH   4   5
ATOM      5  C   LIG    1        2.296  -0.110   0.704  0.00  0.00    +0.082 C 
BRANCH   5   7
ATOM      6  N   LIG    1        3.830   0.199  -1.319  0.00  0.00    -0.306 N 
ATOM      7  C   LIG    1        3.682   0.019   0.059  0.00  0.00    +0.217 C 
ATOM      8  O   LIG    1        4.678  -0.037   0.807  0.00  0.00    -0.275 OA
ATOM      9  H   LIG    1        2.913   0.212  -1.882  0.00  0.00    +0.149 HD
BRANCH   6  10
ATOM     10  C   LIG    1        5.041   0.365  -2.052  0.00  0.00    +0.132 C 
ATOM     11  C   LIG    1        6.052   1.196  -1.304  0.00  0.00    -0.022 A 
ATOM     12  C   LIG    1        5.919   2.181  -0.356  0.00  0.00    +0.006 A 
ATOM     13  C   LIG    1        7.015   2.826   0.208  0.00  0.00    +0.000 A 
ATOM     14  C   LIG    1        8.262   2.436  -0.225  0.00  0.00    +0.000 A 
ATOM     15  C   LIG    1        8.396   1.453  -1.171  0.00  0.00    +0.004 A 
ATOM     16  C   LIG    1        7.312   0.814  -1.731  0.00  0.00    -0.040 A 
ATOM     17  C   LIG    1        7.175  -0.263  -2.773  0.00  0.00    +0.069 C 
ATOM     18  C   LIG    1        5.818  -0.867  -2.351  0.00  0.00    +0.143 C 
BRANCH  18  19
ATOM     19  O   LIG    1        6.137  -1.584  -1.171  0.00  0.00    -0.389 OA
ATOM     20  H   LIG    1        6.766  -1.018  -0.673  0.00  0.00    +0.210 HD
ENDBRANCH  18  19
ENDBRANCH   6  10
ENDBRANCH   5   7
BRANCH   5  21
ATOM     21  C   LIG    1        1.676  -1.304   0.053  0.00  0.00    +0.048 C 
BRANCH  21  22
ATOM     22  C   LIG    1        2.462  -2.560   0.262  0.00  0.00    -0.047 A 
ATOM     23  C   LIG    1        2.194  -3.255   1.446  0.00  0.00    +0.003 A 
ATOM     24  C   LIG    1        2.845  -4.439   1.736  0.00  0.00    +0.000 A 
ATOM     25  C   LIG    1        3.778  -4.962   0.857  0.00  0.00    +0.000 A 
ATOM     26  C   LIG    1        4.019  -4.255  -0.301  0.00  0.00    +0.000 A 
ATOM     27  C   LIG    1        3.374  -3.064  -0.608  0.00  0.00    +0.003 A 
ENDBRANCH  21  22
ENDBRANCH   5  21
ENDBRANCH   4   5
ENDBRANCH   1   4
BRANCH   1  28
ATOM     28  C   LIG    1       -0.886   0.534   0.530  0.00  0.00    +0.116 C 
BRANCH  28  29
ATOM     29  N   LIG    1       -2.196   1.185   0.739  0.00  0.00    -0.287 NA
ATOM     30  C   LIG    1       -2.564   1.055   2.155  0.00  0.00    +0.100 C 
ATOM     31  C   LIG    1       -3.825   1.813   2.437  0.00  0.00    +0.100 C 
ATOM     32  N   LIG    1       -4.898   1.487   1.552  0.00  0.00    -0.295 NA
ATOM     33  C   LIG    1       -4.525   1.166   0.236  0.00  0.00    +0.113 C 
ATOM     34  C   LIG    1       -3.232   0.393   0.073  0.00  0.00    +0.157 C 
BRANCH  34  35
ATOM     35  C   LIG    1       -2.997   0.235  -1.383  0.00  0.00    +0.232 C 
ATOM     36  O   LIG    1       -2.144   0.877  -2.011  0.00  0.00    -0.274 OA
ATOM     37  N   LIG    1       -3.787  -0.700  -2.099  0.00  0.00    -0.309 N 
ATOM     38  H   LIG    1       -4.512  -1.255  -1.605  0.00  0.00    +0.149 HD
BRANCH  37  39
ATOM     39  C   LIG    1       -3.624  -0.919  -3.524  0.00  0.00    +0.026 C 
ATOM     40  C   LIG    1       -2.218  -1.424  -3.747  0.00  0.00    +0.031 C 
ATOM     41  C   LIG    1       -4.582  -1.965  -4.038  0.00  0.00    +0.031 C 
ATOM     42  C   LIG    1       -3.773   0.360  -4.319  0.00  0.00    +0.031 C 
ENDBRANCH  37  39
ENDBRANCH  34  35
BRANCH  32  43
ATOM     43  C   LIG    1       -5.978   0.742   2.096  0.00  0.00    +0.121 C 
BRANCH  43  44
ATOM     44  C   LIG    1       -6.355   1.091   3.483  0.00  0.00    -0.015 A 
ATOM     45  C   LIG    1       -5.918   0.315   4.553  0.00  0.00    +0.115 A 
ATOM     46  N   LIG    1       -6.247   0.597   5.829  0.00  0.00    -0.263 NA
ATOM     47  C   LIG    1       -7.023   1.656   6.123  0.00  0.00    +0.111 A 
ATOM     48  C   LIG    1       -7.471   2.444   5.078  0.00  0.00    +0.020 A 
ATOM     49  C   LIG    1       -7.160   2.194   3.757  0.00  0.00    +0.008 A 
ENDBRANCH  43  44
ENDBRANCH  32  43
ENDBRANCH  28  29
ENDBRANCH   1  28
TORSDOF 14
