REMARK  Name = molecules/CDCHDCWJMGXXRH-UHFFFAOYSA-N.pdb
REMARK                            x       y       z     vdW  Elec       q    Type
REMARK                         _______ _______ _______ _____ _____    ______ ____
ROOT
ATOM      1 CL   LIG    1       -0.823   4.087  -1.671  0.00  0.00    -0.084 Cl
ATOM      2  C   LIG    1       -1.272   2.533  -0.951  0.00  0.00    +0.042 A 
ATOM      3  C   LIG    1       -2.550   2.319  -0.482  0.00  0.00    +0.022 A 
ATOM      4  C   LIG    1       -2.929   1.117   0.090  0.00  0.00    +0.028 A 
ATOM      5  C   LIG    1       -1.953   0.151   0.164  0.00  0.00    +0.058 A 
ATOM      6  N   LIG    1       -2.469  -1.098   0.681  0.00  0.00    -0.283 N 
ATOM      7  C   LIG    1       -3.466  -1.173   1.565  0.00  0.00    +0.230 A 
ATOM      8  N   LIG    1       -3.635  -2.486   1.771  0.00  0.00    -0.137 NA
ATOM      9  N   LIG    1       -2.757  -3.178   1.025  0.00  0.00    -0.132 NA
ATOM     10  C   LIG    1       -2.005  -2.312   0.324  0.00  0.00    +0.159 A 
ATOM     11  C   LIG    1       -0.915  -2.626  -0.646  0.00  0.00    +0.218 C 
ATOM     12  N   LIG    1        0.305  -1.854  -0.386  0.00  0.00    -0.275 NA
ATOM     13  C   LIG    1        0.447  -0.546  -0.225  0.00  0.00    +0.075 C 
ATOM     14  C   LIG    1       -0.677   0.361  -0.298  0.00  0.00    +0.026 A 
ATOM     15  C   LIG    1       -0.296   1.544  -0.870  0.00  0.00    +0.032 A 
ENDROOT
BRANCH  13  16
ATOM     16  C   LIG    1        1.785  -0.076   0.007  0.00  0.00    +0.001 A 
ATOM     17  C   LIG    1        2.185   1.173   0.351  0.00  0.00    +0.010 A 
ATOM     18  C   LIG    1        3.515   1.566   0.464  0.00  0.00    +0.001 A 
ATOM     19  C   LIG    1        4.511   0.652   0.219  0.00  0.00    +0.000 A 
ATOM     20  C   LIG    1        4.164  -0.616  -0.127  0.00  0.00    +0.001 A 
ATOM     21  C   LIG    1        2.844  -0.976  -0.232  0.00  0.00    +0.010 A 
ENDBRANCH  13  16
TORSDOF 1
