REMARK  Name = molecules/CDHVRXOLGDSJGX-UHFFFAOYSA-N.pdb
REMARK                            x       y       z     vdW  Elec       q    Type
REMARK                         _______ _______ _______ _____ _____    ______ ____
ROOT
ATOM      1  N   LIG    1       -0.663   1.014   0.223  0.00  0.00    -0.323 N 
ATOM      2  C   LIG    1       -0.097   0.498   1.326  0.00  0.00    +0.202 A 
ATOM      3  N   LIG    1       -0.944  -0.347   1.939  0.00  0.00    -0.218 NA
ATOM      4  C   LIG    1       -2.083  -0.383   1.221  0.00  0.00    +0.168 A 
ATOM      5  N   LIG    1       -3.249  -1.051   1.370  0.00  0.00    -0.280 N 
ATOM      6  C   LIG    1       -3.392  -1.931   2.506  0.00  0.00    +0.155 C 
ATOM      7  C   LIG    1       -4.222  -0.871   0.461  0.00  0.00    +0.333 A 
ATOM      8  O   LIG    1       -5.306  -1.514   0.630  0.00  0.00    -0.246 OA
ATOM      9  N   LIG    1       -4.083  -0.042  -0.605  0.00  0.00    -0.262 N 
ATOM     10  C   LIG    1       -2.932   0.631  -0.771  0.00  0.00    +0.282 A 
ATOM     11  O   LIG    1       -2.736   1.417  -1.738  0.00  0.00    -0.265 OA
ATOM     12  C   LIG    1       -5.157   0.121  -1.562  0.00  0.00    +0.157 C 
ATOM     13  C   LIG    1       -1.901   0.480   0.136  0.00  0.00    +0.151 A 
ENDROOT
BRANCH   1  14
ATOM     14  C   LIG    1       -0.082   1.954  -0.696  0.00  0.00    +0.138 C 
BRANCH  14  15
ATOM     15  C   LIG    1        0.661   1.306  -1.831  0.00  0.00    +0.103 C 
BRANCH  15  16
ATOM     16  N   LIG    1        1.751   0.477  -1.423  0.00  0.00    -0.310 NA
ATOM     17  H   LIG    1        2.099  -0.021  -2.285  0.00  0.00    +0.122 HD
BRANCH  16  18
ATOM     18  C   LIG    1        2.850   1.174  -0.836  0.00  0.00    +0.118 C 
BRANCH  18  19
ATOM     19  C   LIG    1        3.909   0.180  -0.479  0.00  0.00    -0.015 A 
ATOM     20  C   LIG    1        3.675  -0.805   0.456  0.00  0.00    +0.008 A 
ATOM     21  C   LIG    1        4.681  -1.693   0.759  0.00  0.00    +0.020 A 
ATOM     22  C   LIG    1        5.912  -1.625   0.154  0.00  0.00    +0.111 A 
ATOM     23  N   LIG    1        6.113  -0.650  -0.756  0.00  0.00    -0.263 NA
ATOM     24  C   LIG    1        5.166   0.244  -1.090  0.00  0.00    +0.115 A 
ENDBRANCH  18  19
ENDBRANCH  16  18
ENDBRANCH  15  16
ENDBRANCH  14  15
ENDBRANCH   1  14
TORSDOF 5
