REMARK  Name = molecules/CDXCCYNINPIWGE-AWEZNQCLSA-N.pdb
REMARK                            x       y       z     vdW  Elec       q    Type
REMARK                         _______ _______ _______ _____ _____    ______ ____
ROOT
ATOM      1  N   LIG    1        1.066   0.118   0.393  0.00  0.00    -0.300 N 
ATOM      2  C   LIG    1        1.702   1.360   0.178  0.00  0.00    +0.048 A 
ATOM      3  C   LIG    1        1.063   2.562   0.517  0.00  0.00    +0.024 A 
ATOM      4  C   LIG    1        1.679   3.789   0.328  0.00  0.00    +0.002 A 
ATOM      5  C   LIG    1        2.942   3.839  -0.203  0.00  0.00    +0.001 A 
ATOM      6  C   LIG    1        3.575   2.657  -0.538  0.00  0.00    +0.017 A 
ATOM      7  C   LIG    1        2.955   1.468  -0.345  0.00  0.00    +0.034 A 
ATOM      8  S   LIG    1        3.893   0.032  -0.841  0.00  0.00    -0.086 S 
ATOM      9  C   LIG    1        2.882  -1.365  -0.438  0.00  0.00    +0.034 A 
ATOM     10  C   LIG    1        3.404  -2.592  -0.678  0.00  0.00    +0.017 A 
ATOM     11  C   LIG    1        2.690  -3.758  -0.389  0.00  0.00    +0.001 A 
ATOM     12  C   LIG    1        1.436  -3.612   0.151  0.00  0.00    +0.002 A 
ATOM     13  C   LIG    1        0.937  -2.348   0.383  0.00  0.00    +0.024 A 
ATOM     14  C   LIG    1        1.640  -1.170   0.098  0.00  0.00    +0.048 A 
ENDROOT
BRANCH   1  15
ATOM     15  C   LIG    1       -0.306   0.070   0.904  0.00  0.00    +0.096 C 
BRANCH  15  17
ATOM     16  C   LIG    1       -1.087   0.887  -1.250  0.00  0.00    -0.011 C 
ATOM     17  C   LIG    1       -1.248  -0.241  -0.239  0.00  0.00    -0.052 C 
BRANCH  17  18
ATOM     18  N   LIG    1       -2.622  -0.324   0.193  0.00  0.00    +0.377 N 
ATOM     19  C   LIG    1       -2.797  -0.883   1.493  0.00  0.00    -0.092 C 
ATOM     20  C   LIG    1       -3.282   0.971   0.184  0.00  0.00    -0.092 C 
ATOM     21  C   LIG    1       -3.329  -1.167  -0.756  0.00  0.00    -0.092 C 
ENDBRANCH  17  18
ENDBRANCH  15  17
ENDBRANCH   1  15
TORSDOF 3
