REMARK  Name = molecules/CDZJOBWKHSYNMO-SCUQKFFVSA-N.pdb
REMARK                            x       y       z     vdW  Elec       q    Type
REMARK                         _______ _______ _______ _____ _____    ______ ____
ROOT
ATOM      1  C   LIG    1       -2.396  -0.284  -1.968  0.00  0.00    +0.016 C 
ATOM      2  C   LIG    1       -2.246  -0.544  -0.463  0.00  0.00    -0.007 C 
ATOM      3  C   LIG    1       -2.987   0.540   0.221  0.00  0.00    -0.049 C 
ATOM      4  C   LIG    1       -2.255   1.761   0.569  0.00  0.00    +0.120 C 
ATOM      5  C   LIG    1       -1.025   1.315   1.370  0.00  0.00    +0.020 C 
ATOM      6  C   LIG    1       -0.153   0.626   0.336  0.00  0.00    -0.002 C 
ATOM      7  C   LIG    1        1.177   0.241   0.828  0.00  0.00    +0.002 C 
ATOM      8  C   LIG    1        2.007   1.257   1.521  0.00  0.00    +0.008 C 
ATOM      9  C   LIG    1        3.336   0.487   1.611  0.00  0.00    +0.043 C 
ATOM     10  C   LIG    1        3.357  -0.378   0.354  0.00  0.00    +0.129 C 
ATOM     11  C   LIG    1        2.053  -0.147  -0.342  0.00  0.00    +0.007 C 
ATOM     12  C   LIG    1        1.447  -1.406  -0.920  0.00  0.00    +0.010 C 
ATOM     13  C   LIG    1        0.021  -1.157  -1.316  0.00  0.00    +0.005 C 
ATOM     14  C   LIG    1        2.204   0.923  -1.373  0.00  0.00    +0.015 C 
ATOM     15  C   LIG    1       -4.271   0.476   0.535  0.00  0.00    +0.046 C 
ATOM     16  C   LIG    1       -4.996  -0.730   0.187  0.00  0.00    +0.156 C 
ATOM     17  O   LIG    1       -6.245  -0.738   0.329  0.00  0.00    -0.293 OA
ATOM     18  C   LIG    1       -4.335  -1.932  -0.319  0.00  0.00    +0.080 C 
ATOM     19  C   LIG    1       -0.810  -0.645  -0.159  0.00  0.00    +0.002 C 
ATOM     20  C   LIG    1       -2.856  -1.919  -0.225  0.00  0.00    +0.019 C 
ENDROOT
BRANCH   4  21
ATOM     21  C   LIG    1       -3.021   2.825   1.254  0.00  0.00    +0.396 C 
ATOM     22  F   LIG    1       -3.484   2.480   2.497  0.00  0.00    -0.170 F 
ATOM     23  F   LIG    1       -2.118   3.879   1.480  0.00  0.00    -0.170 F 
ATOM     24  F   LIG    1       -3.966   3.335   0.411  0.00  0.00    -0.170 F 
ENDBRANCH   4  21
BRANCH  10  25
ATOM     25  C   LIG    1        4.552   0.038  -0.428  0.00  0.00    +0.162 C 
ATOM     26  O   LIG    1        4.723   1.190  -0.789  0.00  0.00    -0.295 OA
ATOM     27  C   LIG    1        5.622  -0.928  -0.824  0.00  0.00    +0.089 C 
ENDBRANCH  10  25
BRANCH  10  28
ATOM     28  O   LIG    1        3.439  -1.744   0.667  0.00  0.00    -0.381 OA
ATOM     29  H   LIG    1        4.366  -2.015   0.881  0.00  0.00    +0.211 HD
ENDBRANCH  10  28
TORSDOF 3
