REMARK  Name = molecules/CEIJFEGBUDEYSX-FZDBZEDMSA-N.pdb
REMARK                            x       y       z     vdW  Elec       q    Type
REMARK                         _______ _______ _______ _____ _____    ______ ____
ROOT
ATOM      1  C   LIG    1       -0.787  -0.402  -0.805  0.00  0.00    +0.021 C 
ENDROOT
BRANCH   1   2
ATOM      2  C   LIG    1       -1.598  -0.447   0.454  0.00  0.00    +0.116 C 
BRANCH   2   5
ATOM      3  O   LIG    1       -3.425   2.000   0.549  0.00  0.00    -0.275 OA
ATOM      4  C   LIG    1       -3.772   0.900   0.071  0.00  0.00    +0.226 C 
ATOM      5  N   LIG    1       -3.032  -0.313   0.149  0.00  0.00    -0.242 N 
ATOM      6  C   LIG    1       -3.947  -1.366  -0.131  0.00  0.00    +0.226 C 
ATOM      7  O   LIG    1       -3.851  -2.558   0.325  0.00  0.00    -0.275 OA
ATOM      8  C   LIG    1       -5.008  -0.823  -1.034  0.00  0.00    +0.091 C 
ATOM      9  C   LIG    1       -6.371  -1.266  -0.590  0.00  0.00    +0.002 C 
ATOM     10  C   LIG    1       -6.470  -0.515   0.749  0.00  0.00    +0.008 C 
ATOM     11  C   LIG    1       -6.268   0.882   0.140  0.00  0.00    +0.002 C 
ATOM     12  C   LIG    1       -7.434   0.910  -0.822  0.00  0.00    +0.004 C 
ATOM     13  C   LIG    1       -7.386  -0.496  -1.402  0.00  0.00    +0.004 C 
ATOM     14  C   LIG    1       -5.030   0.667  -0.668  0.00  0.00    +0.091 C 
ENDBRANCH   2   5
ENDBRANCH   1   2
BRANCH   1  15
ATOM     15  C   LIG    1        0.685  -0.526  -0.622  0.00  0.00    +0.017 C 
BRANCH  15  16
ATOM     16  C   LIG    1        1.194   0.588   0.228  0.00  0.00    +0.084 C 
BRANCH  16  17
ATOM     17  N   LIG    1        2.602   0.569   0.458  0.00  0.00    -0.299 NA
ATOM     18  C   LIG    1        3.124  -0.458   1.245  0.00  0.00    +0.103 C 
ATOM     19  C   LIG    1        4.489  -0.962   1.010  0.00  0.00    +0.123 C 
ATOM     20  N   LIG    1        5.208  -0.151   0.084  0.00  0.00    -0.297 N 
ATOM     21  C   LIG    1        4.528   0.412  -1.045  0.00  0.00    +0.123 C 
ATOM     22  C   LIG    1        3.397   1.245  -0.480  0.00  0.00    +0.103 C 
BRANCH  20  23
ATOM     23  C   LIG    1        6.591   0.099   0.266  0.00  0.00    +0.218 A 
ATOM     24  N   LIG    1        7.298  -0.419   1.275  0.00  0.00    -0.223 NA
ATOM     25  C   LIG    1        8.602  -0.202   1.468  0.00  0.00    +0.116 A 
ATOM     26  C   LIG    1        9.294   0.607   0.587  0.00  0.00    +0.039 A 
ATOM     27  C   LIG    1        8.561   1.139  -0.450  0.00  0.00    +0.116 A 
ATOM     28  N   LIG    1        7.255   0.896  -0.608  0.00  0.00    -0.223 NA
ENDBRANCH  20  23
ENDBRANCH  16  17
ENDBRANCH  15  16
ENDBRANCH   1  15
TORSDOF 6
