REMARK  Name = molecules/CESYKOGBSMNBPD-VIFPVBQESA-N.pdb
REMARK                            x       y       z     vdW  Elec       q    Type
REMARK                         _______ _______ _______ _____ _____    ______ ____
ROOT
ATOM      1  C   LIG    1       -3.261   1.504  -0.258  0.00  0.00    +0.134 C 
ATOM      2  N   LIG    1       -2.804   0.186  -0.632  0.00  0.00    -0.158 NA
ATOM      3  C   LIG    1       -2.582  -0.594   0.560  0.00  0.00    +0.177 C 
ATOM      4  N   LIG    1       -1.407  -0.263   1.285  0.00  0.00    -0.325 N 
ATOM      5  H   LIG    1       -1.456  -0.177   2.338  0.00  0.00    +0.148 HD
ATOM      6  C   LIG    1       -0.133  -0.028   0.711  0.00  0.00    +0.056 A 
ATOM      7  C   LIG    1        0.985  -0.068   1.516  0.00  0.00    +0.047 A 
ATOM      8  C   LIG    1        2.257   0.153   1.008  0.00  0.00    +0.069 A 
ATOM      9 CL   LIG    1        3.692   0.108   2.012  0.00  0.00    -0.081 Cl
ATOM     10  C   LIG    1        2.358   0.415  -0.337  0.00  0.00    +0.125 A 
ATOM     11  C   LIG    1        1.222   0.455  -1.153  0.00  0.00    +0.060 A 
ATOM     12  C   LIG    1       -0.012   0.236  -0.639  0.00  0.00    +0.128 A 
ATOM     13  S   LIG    1       -1.444   0.283  -1.654  0.00  0.00    +0.064 S 
ATOM     14  O   LIG    1       -1.530   1.595  -2.406  0.00  0.00    -0.153 OA
ATOM     15  O   LIG    1       -1.446  -0.881  -2.620  0.00  0.00    -0.153 OA
ENDROOT
BRANCH  10  16
ATOM     16  S   LIG    1        3.944   0.698  -1.007  0.00  0.00    +0.057 S 
ATOM     17  O   LIG    1        4.576   1.871  -0.296  0.00  0.00    -0.153 OA
ATOM     18  O   LIG    1        3.885   0.930  -2.486  0.00  0.00    -0.153 OA
BRANCH  16  19
ATOM     19  N   LIG    1        4.929  -0.697  -0.746  0.00  0.00    -0.203 NA
ATOM     20  H   LIG    1        4.480  -1.292  -0.015  0.00  0.00    +0.144 HD
ATOM     21  H   LIG    1        5.853  -0.408  -0.345  0.00  0.00    +0.144 HD
ENDBRANCH  16  19
ENDBRANCH  10  16
BRANCH   3  22
ATOM     22  C   LIG    1       -2.533  -2.089   0.214  0.00  0.00    +0.148 C 
ATOM     23 CL   LIG    1       -4.107  -2.534  -0.524  0.00  0.00    -0.122 Cl
ENDBRANCH   3  22
TORSDOF 3
