REMARK  Name = molecules/CEUORZQYGODEFX-UHFFFAOYSA-N.pdb
REMARK                            x       y       z     vdW  Elec       q    Type
REMARK                         _______ _______ _______ _____ _____    ______ ____
ROOT
ATOM      1  C   LIG    1        0.221  -0.419  -0.848  0.00  0.00    +0.019 C 
ENDROOT
BRANCH   1   2
ATOM      2  C   LIG    1        0.612  -0.635   0.563  0.00  0.00    +0.042 C 
BRANCH   2   3
ATOM      3  C   LIG    1        1.276   0.564   1.196  0.00  0.00    +0.229 C 
BRANCH   3   4
ATOM      4  O   LIG    1        2.447   0.932   0.585  0.00  0.00    -0.492 OA
BRANCH   4   5
ATOM      5  C   LIG    1        3.636   0.268   0.532  0.00  0.00    +0.122 A 
ATOM      6  C   LIG    1        3.915  -0.915   1.163  0.00  0.00    +0.046 A 
ATOM      7  C   LIG    1        5.158  -1.558   1.082  0.00  0.00    +0.009 A 
ATOM      8  C   LIG    1        6.140  -0.948   0.320  0.00  0.00    -0.025 A 
ATOM      9  C   LIG    1        7.433  -1.641   0.212  0.00  0.00    +0.046 C 
ATOM     10  C   LIG    1        8.542  -0.643   0.024  0.00  0.00    +0.101 C 
ATOM     11  C   LIG    1        8.217   0.195  -1.154  0.00  0.00    +0.218 C 
ATOM     12  N   LIG    1        6.968   0.866  -1.111  0.00  0.00    -0.285 N 
ATOM     13  H   LIG    1        6.781   1.753  -1.600  0.00  0.00    +0.155 HD
ATOM     14  O   LIG    1        9.012   0.279  -2.099  0.00  0.00    -0.275 OA
ATOM     15  C   LIG    1        5.923   0.236  -0.333  0.00  0.00    +0.040 A 
ATOM     16  C   LIG    1        4.691   0.827  -0.225  0.00  0.00    +0.069 A 
ENDBRANCH   4   5
ENDBRANCH   3   4
ENDBRANCH   2   3
ENDBRANCH   1   2
BRANCH   1  17
ATOM     17  C   LIG    1       -0.717   0.650  -1.214  0.00  0.00    +0.084 C 
BRANCH  17  18
ATOM     18  N   LIG    1       -2.038   0.629  -0.717  0.00  0.00    -0.299 NA
ATOM     19  C   LIG    1       -2.337   0.872   0.627  0.00  0.00    +0.103 C 
ATOM     20  C   LIG    1       -3.614   0.052   0.945  0.00  0.00    +0.120 C 
ATOM     21  N   LIG    1       -4.648   0.575   0.080  0.00  0.00    -0.326 N 
ATOM     22  C   LIG    1       -4.309   1.525  -0.935  0.00  0.00    +0.120 C 
ATOM     23  C   LIG    1       -3.005   1.207  -1.628  0.00  0.00    +0.103 C 
BRANCH  21  24
ATOM     24  C   LIG    1       -6.003   0.148   0.226  0.00  0.00    +0.050 A 
ATOM     25  C   LIG    1       -6.996   1.042   0.609  0.00  0.00    +0.025 A 
ATOM     26  C   LIG    1       -8.303   0.635   0.760  0.00  0.00    +0.003 A 
ATOM     27  C   LIG    1       -8.686  -0.676   0.537  0.00  0.00    +0.021 A 
ATOM     28  C   LIG    1       -7.708  -1.568   0.157  0.00  0.00    +0.061 A 
ATOM     29 CL   LIG    1       -8.169  -3.229  -0.134  0.00  0.00    -0.082 Cl
ATOM     30  C   LIG    1       -6.399  -1.152   0.007  0.00  0.00    +0.080 A 
ATOM     31 CL   LIG    1       -5.226  -2.348  -0.480  0.00  0.00    -0.080 Cl
ENDBRANCH  21  24
ENDBRANCH  17  18
ENDBRANCH   1  17
TORSDOF 7
