REMARK  Name = molecules/CFCUWKMKBJTWLW-BKHRDMLASA-N.pdb
REMARK                            x       y       z     vdW  Elec       q    Type
REMARK                         _______ _______ _______ _____ _____    ______ ____
ROOT
ATOM      1  O   LIG    1       -1.208  -1.242  -2.795  0.00  0.00    -0.289 OA
ATOM      2  C   LIG    1       -0.451  -1.502  -1.835  0.00  0.00    +0.196 C 
ATOM      3  C   LIG    1       -0.926  -2.405  -0.711  0.00  0.00    +0.198 C 
ATOM      4  C   LIG    1        0.177  -3.354  -0.457  0.00  0.00    +0.066 C 
ATOM      5  C   LIG    1        1.366  -2.647   0.108  0.00  0.00    +0.045 C 
ATOM      6  C   LIG    1        1.750  -1.535  -0.814  0.00  0.00    -0.032 A 
ATOM      7  C   LIG    1        3.032  -1.034  -0.733  0.00  0.00    +0.013 A 
ATOM      8  C   LIG    1        3.442  -0.003  -1.552  0.00  0.00    -0.007 A 
ATOM      9  C   LIG    1        4.747   0.494  -1.457  0.00  0.00    +0.055 A 
ATOM     10  C   LIG    1        5.194   1.520  -2.254  0.00  0.00    +0.131 A 
ATOM     11  C   LIG    1        4.341   2.077  -3.173  0.00  0.00    +0.033 A 
ATOM     12  C   LIG    1        3.042   1.609  -3.291  0.00  0.00    +0.134 A 
ATOM     13  C   LIG    1        4.852   3.162  -4.041  0.00  0.00    +0.051 C 
ATOM     14  C   LIG    1        2.608   0.569  -2.472  0.00  0.00    +0.066 A 
ATOM     15  C   LIG    1        1.305   0.072  -2.565  0.00  0.00    +0.139 A 
ATOM     16  C   LIG    1        0.894  -0.974  -1.735  0.00  0.00    +0.065 A 
ENDROOT
BRANCH  15  17
ATOM     17  O   LIG    1        0.513   0.671  -3.494  0.00  0.00    -0.505 OA
ATOM     18  H   LIG    1       -0.393   0.501  -3.789  0.00  0.00    +0.292 HD
ENDBRANCH  15  17
BRANCH  12  19
ATOM     19  O   LIG    1        2.164   2.159  -4.216  0.00  0.00    -0.506 OA
ATOM     20  H   LIG    1        2.425   2.910  -4.838  0.00  0.00    +0.292 HD
ENDBRANCH  12  19
BRANCH  10  21
ATOM     21  O   LIG    1        6.482   2.008  -2.152  0.00  0.00    -0.463 OA
BRANCH  21  22
ATOM     22  C   LIG    1        7.446   1.452  -1.297  0.00  0.00    +0.310 C 
ATOM     23  O   LIG    1        7.300   2.143  -0.058  0.00  0.00    -0.336 OA
ATOM     24  C   LIG    1        7.884   1.354   0.947  0.00  0.00    +0.150 C 
ATOM     25  C   LIG    1        7.993   2.175   2.189  0.00  0.00    +0.041 C 
ATOM     26  C   LIG    1        9.191   0.774   0.467  0.00  0.00    +0.172 C 
ATOM     27  C   LIG    1        9.787   1.617  -0.654  0.00  0.00    +0.158 C 
ATOM     28  C   LIG    1        8.819   1.808  -1.784  0.00  0.00    +0.109 C 
BRANCH  26  29
ATOM     29  O   LIG    1        9.045  -0.555   0.093  0.00  0.00    -0.387 OA
ATOM     30  H   LIG    1        8.911  -1.082   0.930  0.00  0.00    +0.210 HD
ENDBRANCH  26  29
BRANCH  27  31
ATOM     31  O   LIG    1       10.247   2.828  -0.150  0.00  0.00    -0.345 OA
BRANCH  31  32
ATOM     32  C   LIG    1       11.622   2.909  -0.212  0.00  0.00    +0.254 C 
ATOM     33  O   LIG    1       12.180   2.927   1.079  0.00  0.00    -0.346 OA
ATOM     34  C   LIG    1       13.475   2.426   0.965  0.00  0.00    +0.149 C 
ATOM     35  C   LIG    1       14.043   2.224   2.335  0.00  0.00    +0.041 C 
ATOM     36  C   LIG    1       14.328   3.311   0.079  0.00  0.00    +0.172 C 
ATOM     37  C   LIG    1       13.544   4.408  -0.562  0.00  0.00    +0.150 C 
ATOM     38  C   LIG    1       12.158   4.069  -0.985  0.00  0.00    +0.095 C 
BRANCH  37  39
ATOM     39  O   LIG    1       13.501   5.564   0.222  0.00  0.00    -0.389 OA
ATOM     40  H   LIG    1       13.892   6.354  -0.228  0.00  0.00    +0.210 HD
ENDBRANCH  37  39
BRANCH  36  41
ATOM     41  O   LIG    1       15.090   2.585  -0.833  0.00  0.00    -0.387 OA
ATOM     42  H   LIG    1       15.980   3.015  -0.907  0.00  0.00    +0.210 HD
ENDBRANCH  36  41
ENDBRANCH  31  32
ENDBRANCH  27  31
ENDBRANCH  21  22
ENDBRANCH  10  21
BRANCH   3  43
ATOM     43  O   LIG    1       -2.124  -3.006  -1.122  0.00  0.00    -0.340 OA
BRANCH  43  44
ATOM     44  C   LIG    1       -3.139  -2.619  -0.286  0.00  0.00    +0.254 C 
ATOM     45  O   LIG    1       -3.616  -3.692   0.473  0.00  0.00    -0.346 OA
ATOM     46  C   LIG    1       -4.498  -4.519  -0.169  0.00  0.00    +0.149 C 
ATOM     47  C   LIG    1       -5.810  -3.808  -0.473  0.00  0.00    +0.172 C 
ATOM     48  C   LIG    1       -5.537  -2.304  -0.211  0.00  0.00    +0.157 C 
ATOM     49  C   LIG    1       -4.005  -5.167  -1.422  0.00  0.00    +0.041 C 
ATOM     50  C   LIG    1       -4.290  -1.898  -0.969  0.00  0.00    +0.095 C 
BRANCH  47  51
ATOM     51  O   LIG    1       -6.732  -4.184   0.491  0.00  0.00    -0.387 OA
ATOM     52  H   LIG    1       -6.806  -5.162   0.590  0.00  0.00    +0.210 HD
ENDBRANCH  47  51
BRANCH  48  53
ATOM     53  O   LIG    1       -6.612  -1.568  -0.570  0.00  0.00    -0.345 OA
BRANCH  53  54
ATOM     54  C   LIG    1       -7.119  -0.899   0.564  0.00  0.00    +0.254 C 
ATOM     55  O   LIG    1       -8.341  -1.595   0.816  0.00  0.00    -0.346 OA
ATOM     56  C   LIG    1       -8.818  -1.155   2.056  0.00  0.00    +0.149 C 
ATOM     57  C   LIG    1      -10.137  -1.849   2.289  0.00  0.00    +0.041 C 
ATOM     58  C   LIG    1       -8.971   0.302   2.159  0.00  0.00    +0.172 C 
ATOM     59  C   LIG    1       -8.220   1.202   1.255  0.00  0.00    +0.157 C 
ATOM     60  C   LIG    1       -7.384   0.516   0.231  0.00  0.00    +0.095 C 
BRANCH  58  61
ATOM     61  O   LIG    1      -10.365   0.573   2.025  0.00  0.00    -0.387 OA
ATOM     62  H   LIG    1      -10.748   0.108   1.259  0.00  0.00    +0.210 HD
ENDBRANCH  58  61
BRANCH  59  63
ATOM     63  O   LIG    1       -9.168   2.045   0.635  0.00  0.00    -0.345 OA
BRANCH  63  64
ATOM     64  C   LIG    1       -8.915   3.374   0.921  0.00  0.00    +0.254 C 
ATOM     65  O   LIG    1       -9.921   3.951   1.690  0.00  0.00    -0.346 OA
ATOM     66  C   LIG    1      -11.002   4.373   0.932  0.00  0.00    +0.149 C 
ATOM     67  C   LIG    1      -12.324   4.111   1.594  0.00  0.00    +0.041 C 
ATOM     68  C   LIG    1      -11.035   3.814  -0.451  0.00  0.00    +0.174 C 
ATOM     69  C   LIG    1       -9.823   4.326  -1.201  0.00  0.00    +0.096 C 
ATOM     70  C   LIG    1       -9.670   3.626  -2.539  0.00  0.00    +0.044 C 
ATOM     71  C   LIG    1       -8.623   4.165  -0.326  0.00  0.00    +0.098 C 
BRANCH  69  72
ATOM     72  O   LIG    1      -10.044   5.686  -1.428  0.00  0.00    -0.386 OA
ATOM     73  H   LIG    1       -9.209   6.190  -1.552  0.00  0.00    +0.210 HD
ENDBRANCH  69  72
BRANCH  68  74
ATOM     74  O   LIG    1      -12.184   4.341  -1.087  0.00  0.00    -0.386 OA
ATOM     75  H   LIG    1      -11.965   5.298  -1.264  0.00  0.00    +0.210 HD
ENDBRANCH  68  74
ENDBRANCH  63  64
ENDBRANCH  59  63
ENDBRANCH  53  54
ENDBRANCH  48  53
ENDBRANCH  43  44
ENDBRANCH   3  43
BRANCH   4  76
ATOM     76  C   LIG    1       -0.186  -4.614   0.324  0.00  0.00    +0.193 C 
BRANCH  76  77
ATOM     77  O   LIG    1       -0.820  -5.474  -0.445  0.00  0.00    -0.372 OA
ATOM     78  C   LIG    1       -0.335  -6.681  -0.833  0.00  0.00    +0.194 C 
ENDBRANCH  76  77
BRANCH  76  79
ATOM     79  C   LIG    1       -0.696  -4.318   1.666  0.00  0.00    +0.193 C 
ATOM     80  O   LIG    1       -0.407  -3.240   2.189  0.00  0.00    -0.292 OA
BRANCH  79  81
ATOM     81  C   LIG    1       -1.534  -5.214   2.473  0.00  0.00    +0.211 C 
BRANCH  81  82
ATOM     82  O   LIG    1       -1.546  -6.478   1.966  0.00  0.00    -0.382 OA
ATOM     83  H   LIG    1       -1.171  -7.174   2.552  0.00  0.00    +0.210 HD
ENDBRANCH  81  82
BRANCH  81  84
ATOM     84  C   LIG    1       -1.003  -5.136   3.910  0.00  0.00    +0.147 C 
ATOM     85  C   LIG    1        0.466  -5.523   3.867  0.00  0.00    +0.041 C 
BRANCH  84  86
ATOM     86  O   LIG    1       -1.113  -3.775   4.265  0.00  0.00    -0.389 OA
ATOM     87  H   LIG    1       -0.251  -3.364   4.500  0.00  0.00    +0.210 HD
ENDBRANCH  84  86
ENDBRANCH  81  84
ENDBRANCH  79  81
ENDBRANCH  76  79
ENDBRANCH   4  76
TORSDOF 26
