REMARK  Name = molecules/CFJMRBQWBDQYMK-UHFFFAOYSA-N.pdb
REMARK                            x       y       z     vdW  Elec       q    Type
REMARK                         _______ _______ _______ _____ _____    ______ ____
ROOT
ATOM      1  C   LIG    1       -2.182  -0.203  -0.789  0.00  0.00    +0.318 C 
ATOM      2  O   LIG    1       -1.596  -0.463  -1.873  0.00  0.00    -0.250 OA
ENDROOT
BRANCH   1   3
ATOM      3  C   LIG    1       -3.621  -0.541  -0.546  0.00  0.00    +0.093 C 
ATOM      4  C   LIG    1       -3.682  -1.312   0.776  0.00  0.00    +0.023 C 
ATOM      5  C   LIG    1       -3.424  -2.748   0.384  0.00  0.00    +0.001 C 
ATOM      6  C   LIG    1       -3.389  -2.787  -1.135  0.00  0.00    +0.001 C 
ATOM      7  C   LIG    1       -4.160  -1.513  -1.535  0.00  0.00    +0.023 C 
BRANCH   3   8
ATOM      8  C   LIG    1       -4.391   0.681  -0.355  0.00  0.00    -0.031 A 
ATOM      9  C   LIG    1       -4.003   1.674   0.510  0.00  0.00    +0.005 A 
ATOM     10  C   LIG    1       -4.753   2.828   0.692  0.00  0.00    +0.000 A 
ATOM     11  C   LIG    1       -5.919   2.963  -0.026  0.00  0.00    +0.000 A 
ATOM     12  C   LIG    1       -6.320   1.971  -0.901  0.00  0.00    +0.000 A 
ATOM     13  C   LIG    1       -5.569   0.837  -1.069  0.00  0.00    +0.005 A 
ENDBRANCH   3   8
ENDBRANCH   1   3
BRANCH   1  14
ATOM     14  O   LIG    1       -1.424   0.411   0.171  0.00  0.00    -0.462 OA
BRANCH  14  15
ATOM     15  C   LIG    1       -0.084   0.771   0.063  0.00  0.00    +0.260 C 
BRANCH  15  16
ATOM     16  C   LIG    1        0.861  -0.341  -0.189  0.00  0.00    +0.201 C 
BRANCH  16  17
ATOM     17  O   LIG    1        2.155   0.150  -0.277  0.00  0.00    -0.375 OA
BRANCH  17  18
ATOM     18  C   LIG    1        2.615   0.774   0.860  0.00  0.00    +0.175 C 
BRANCH  18  19
ATOM     19  C   LIG    1        4.050   1.224   0.573  0.00  0.00    +0.112 C 
BRANCH  19  20
ATOM     20  N   LIG    1        4.865   0.083   0.255  0.00  0.00    -0.301 NA
BRANCH  20  21
ATOM     21  C   LIG    1        5.014  -0.731   1.422  0.00  0.00    +0.081 C 
ATOM     22  C   LIG    1        5.913  -1.925   1.065  0.00  0.00    +0.020 C 
ENDBRANCH  20  21
BRANCH  20  23
ATOM     23  C   LIG    1        6.159   0.489  -0.255  0.00  0.00    +0.081 C 
ATOM     24  C   LIG    1        6.028   1.133  -1.617  0.00  0.00    +0.020 C 
ENDBRANCH  20  23
ENDBRANCH  19  20
ENDBRANCH  18  19
ENDBRANCH  17  18
ENDBRANCH  16  17
ENDBRANCH  15  16
ENDBRANCH  14  15
ENDBRANCH   1  14
TORSDOF 11
