REMARK  Name = molecules/CFOYBMUYCBSDAL-UHFFFAOYSA-N.pdb
REMARK                            x       y       z     vdW  Elec       q    Type
REMARK                         _______ _______ _______ _____ _____    ______ ____
ROOT
ATOM      1 CL   LIG    1       -4.256  -4.673  -2.078  0.00  0.00    -0.107 Cl
ATOM      2  C   LIG    1       -4.607  -3.119  -1.354  0.00  0.00    +0.110 C 
ATOM      3  C   LIG    1       -3.594  -2.212  -1.031  0.00  0.00    +0.026 C 
ATOM      4  C   LIG    1       -3.838  -0.971  -0.459  0.00  0.00    +0.046 C 
ATOM      5  N   LIG    1       -2.711  -0.155  -0.173  0.00  0.00    -0.298 N 
ATOM      6  C   LIG    1       -2.817   1.145   0.434  0.00  0.00    +0.048 A 
ATOM      7  C   LIG    1       -4.010   1.727   0.796  0.00  0.00    +0.034 A 
ATOM      8  C   LIG    1       -4.099   2.956   1.359  0.00  0.00    +0.017 A 
ATOM      9  C   LIG    1       -2.973   3.703   1.605  0.00  0.00    +0.001 A 
ATOM     10  C   LIG    1       -1.755   3.178   1.268  0.00  0.00    +0.002 A 
ATOM     11  S   LIG    1       -5.555   0.891   0.527  0.00  0.00    -0.086 S 
ATOM     12  C   LIG    1       -1.684   1.906   0.686  0.00  0.00    +0.024 A 
ATOM     13  C   LIG    1       -5.143  -0.668  -0.219  0.00  0.00    +0.034 C 
ATOM     14  C   LIG    1       -6.163  -1.519  -0.516  0.00  0.00    +0.015 C 
ATOM     15  C   LIG    1       -5.911  -2.746  -1.083  0.00  0.00    +0.003 C 
ENDROOT
BRANCH   5  16
ATOM     16  C   LIG    1       -1.370  -0.607  -0.479  0.00  0.00    +0.112 C 
BRANCH  16  17
ATOM     17  C   LIG    1       -0.630  -1.192   0.686  0.00  0.00    +0.035 C 
BRANCH  17  18
ATOM     18  C   LIG    1        0.743  -1.605   0.208  0.00  0.00    +0.086 C 
BRANCH  18  19
ATOM     19  N   LIG    1        1.461  -0.474  -0.252  0.00  0.00    -0.302 NA
ATOM     20  C   LIG    1        1.894   0.459   0.727  0.00  0.00    +0.087 C 
ATOM     21  C   LIG    1        3.345   0.231   1.100  0.00  0.00    +0.052 C 
ATOM     22  C   LIG    1        4.166   0.343  -0.158  0.00  0.00    +0.083 C 
ATOM     23  N   LIG    1        5.184   1.336   0.014  0.00  0.00    -0.300 N 
ATOM     24  H   LIG    1        5.016   2.218   0.587  0.00  0.00    +0.150 HD
ATOM     25  C   LIG    1        6.389   1.052  -0.622  0.00  0.00    +0.224 C 
ATOM     26  C   LIG    1        6.811  -0.366  -0.525  0.00  0.00    +0.167 C 
ATOM     27  O   LIG    1        7.091   1.924  -1.242  0.00  0.00    -0.275 OA
ATOM     28  S   LIG    1        5.195  -1.170  -0.274  0.00  0.00    -0.126 S 
ATOM     29  C   LIG    1        3.324   0.503  -1.391  0.00  0.00    +0.052 C 
ATOM     30  C   LIG    1        2.310  -0.648  -1.377  0.00  0.00    +0.087 C 
ENDBRANCH  18  19
ENDBRANCH  17  18
ENDBRANCH  16  17
ENDBRANCH   5  16
TORSDOF 4
