REMARK  Name = molecules/CFOYWRHIYXMDOT-UHFFFAOYSA-N.pdb
REMARK                            x       y       z     vdW  Elec       q    Type
REMARK                         _______ _______ _______ _____ _____    ______ ____
ROOT
ATOM      1  C   LIG    1       -0.790  -1.067   0.644  0.00  0.00    +0.421 C 
ATOM      2  O   LIG    1       -1.228  -2.128   1.102  0.00  0.00    -0.223 OA
ATOM      3  N   LIG    1        0.601  -0.861   0.402  0.00  0.00    -0.231 N 
ATOM      4  C   LIG    1        1.579  -1.766   0.634  0.00  0.00    +0.117 A 
ATOM      5  C   LIG    1        2.766  -1.164   0.264  0.00  0.00    +0.106 A 
ATOM      6  N   LIG    1        2.500   0.088  -0.183  0.00  0.00    -0.329 N 
ATOM      7  C   LIG    1        3.416   1.083  -0.672  0.00  0.00    +0.151 C 
ATOM      8  C   LIG    1        1.183   0.244  -0.089  0.00  0.00    +0.169 A 
ATOM      9  S   LIG    1        0.338   1.596  -0.507  0.00  0.00    -0.012 S 
ENDROOT
BRANCH   1  10
ATOM     10  O   LIG    1       -1.675  -0.050   0.359  0.00  0.00    -0.448 OA
BRANCH  10  11
ATOM     11  C   LIG    1       -3.068  -0.139   0.556  0.00  0.00    +0.230 C 
ATOM     12  C   LIG    1       -3.684   1.168   0.129  0.00  0.00    +0.048 C 
ENDBRANCH  10  11
ENDBRANCH   1  10
TORSDOF 2
