REMARK  Name = molecules/CGIGDMFJXJATDK-UHFFFAOYSA-N.pdb
REMARK                            x       y       z     vdW  Elec       q    Type
REMARK                         _______ _______ _______ _____ _____    ______ ____
ROOT
ATOM      1  C   LIG    1        1.689   1.219   0.752  0.00  0.00    +0.263 C 
ATOM      2  O   LIG    1        1.583   2.298   1.449  0.00  0.00    -0.267 OA
ATOM      3  N   LIG    1        0.528   0.481   0.425  0.00  0.00    -0.280 N 
ATOM      4  C   LIG    1       -0.708   0.837   0.917  0.00  0.00    +0.057 A 
ATOM      5  C   LIG    1       -1.160   1.828   1.769  0.00  0.00    +0.030 A 
ATOM      6  C   LIG    1       -2.525   1.914   2.075  0.00  0.00    +0.048 A 
ATOM      7  C   LIG    1       -3.446   1.043   1.556  0.00  0.00    +0.121 A 
ATOM      8  C   LIG    1       -3.014   0.058   0.712  0.00  0.00    +0.056 A 
ATOM      9  C   LIG    1       -1.654  -0.030   0.406  0.00  0.00    +0.008 A 
ATOM     10  C   LIG    1       -0.982  -0.919  -0.405  0.00  0.00    -0.008 A 
ATOM     11  C   LIG    1        0.353  -0.579  -0.373  0.00  0.00    +0.028 A 
ATOM     12  C   LIG    1        1.371  -1.290  -1.146  0.00  0.00    +0.064 C 
ENDROOT
BRANCH   1  13
ATOM     13  C   LIG    1        3.046   0.893   0.381  0.00  0.00    +0.040 A 
ATOM     14  C   LIG    1        3.658  -0.300   0.691  0.00  0.00    +0.015 A 
ATOM     15  C   LIG    1        4.966  -0.559   0.374  0.00  0.00    +0.021 A 
ATOM     16  C   LIG    1        5.713   0.416  -0.284  0.00  0.00    +0.041 A 
ATOM     17  C   LIG    1        5.125   1.618  -0.605  0.00  0.00    +0.021 A 
ATOM     18 CL   LIG    1        7.376   0.103  -0.692  0.00  0.00    -0.084 Cl
ATOM     19  C   LIG    1        3.815   1.851  -0.277  0.00  0.00    +0.015 A 
ENDBRANCH   1  13
BRANCH   7  20
ATOM     20  O   LIG    1       -4.771   1.162   1.879  0.00  0.00    -0.495 OA
ATOM     21  C   LIG    1       -5.838   0.385   1.459  0.00  0.00    +0.277 C 
ENDBRANCH   7  20
BRANCH  10  22
ATOM     22  C   LIG    1       -1.563  -2.036  -1.177  0.00  0.00    +0.158 C 
BRANCH  22  23
ATOM     23  C   LIG    1       -1.686  -1.756  -2.605  0.00  0.00    +0.309 C 
ATOM     24  O   LIG    1       -1.329  -0.671  -3.107  0.00  0.00    -0.251 OA
BRANCH  23  25
ATOM     25  O   LIG    1       -2.215  -2.716  -3.453  0.00  0.00    -0.480 OA
ATOM     26  H   LIG    1       -1.658  -3.143  -4.193  0.00  0.00    +0.295 HD
ENDBRANCH  23  25
ENDBRANCH  22  23
ENDBRANCH  10  22
TORSDOF 5
