REMARK  Name = molecules/CGNHCKZJGQDWBG-ZDUSSCGKSA-N.pdb
REMARK                            x       y       z     vdW  Elec       q    Type
REMARK                         _______ _______ _______ _____ _____    ______ ____
ROOT
ATOM      1  N   LIG    1       -0.679   0.079   0.160  0.00  0.00    -0.309 N 
ATOM      2  C   LIG    1       -1.433  -1.116   0.428  0.00  0.00    +0.115 C 
ATOM      3  C   LIG    1       -0.793  -2.221   1.018  0.00  0.00    +0.007 C 
ATOM      4  C   LIG    1       -1.473  -3.374   1.355  0.00  0.00    -0.002 C 
ATOM      5  C   LIG    1       -2.819  -3.453   1.109  0.00  0.00    +0.001 C 
ATOM      6  C   LIG    1       -3.441  -2.377   0.536  0.00  0.00    +0.013 C 
ATOM      7  C   LIG    1       -2.780  -1.244   0.203  0.00  0.00    +0.020 C 
ATOM      8  S   LIG    1       -3.728   0.037  -0.537  0.00  0.00    -0.089 S 
ATOM      9  C   LIG    1       -2.623   1.428  -0.683  0.00  0.00    +0.034 A 
ATOM     10  C   LIG    1       -3.200   2.604  -1.145  0.00  0.00    +0.017 A 
ATOM     11  C   LIG    1       -2.419   3.711  -1.315  0.00  0.00    +0.001 A 
ATOM     12  C   LIG    1       -1.083   3.650  -1.029  0.00  0.00    +0.002 A 
ATOM     13  C   LIG    1       -0.556   2.447  -0.568  0.00  0.00    +0.024 A 
ATOM     14  C   LIG    1       -1.308   1.289  -0.378  0.00  0.00    +0.045 A 
ENDROOT
BRANCH   1  16
ATOM     15  C   LIG    1        1.058   1.102   1.476  0.00  0.00    +0.029 C 
ATOM     16  C   LIG    1        0.717   0.183   0.335  0.00  0.00    +0.086 C 
BRANCH  16  17
ATOM     17  C   LIG    1        1.714  -0.889   0.244  0.00  0.00    +0.106 C 
BRANCH  17  18
ATOM     18  N   LIG    1        3.068  -0.253  -0.084  0.00  0.00    -0.307 NA
ATOM     19  C   LIG    1        4.056  -1.309  -0.047  0.00  0.00    +0.104 C 
ATOM     20  C   LIG    1        3.019   0.276  -1.415  0.00  0.00    +0.104 C 
ENDBRANCH  17  18
ENDBRANCH  16  17
ENDBRANCH   1  16
TORSDOF 3
