REMARK  Name = molecules/CGNMLOKEMNBUAI-HXUWFJFHSA-N.pdb
REMARK                            x       y       z     vdW  Elec       q    Type
REMARK                         _______ _______ _______ _____ _____    ______ ____
ROOT
ATOM      1  C   LIG    1       -0.519   0.311  -1.109  0.00  0.00    +0.126 C 
ENDROOT
BRANCH   1   2
ATOM      2  C   LIG    1       -0.766   1.523  -0.319  0.00  0.00    -0.029 A 
ATOM      3  C   LIG    1       -0.117   1.882   0.837  0.00  0.00    +0.005 A 
ATOM      4  C   LIG    1       -0.396   3.043   1.552  0.00  0.00    +0.000 A 
ATOM      5  C   LIG    1       -1.376   3.900   1.095  0.00  0.00    +0.000 A 
ATOM      6  C   LIG    1       -2.053   3.584  -0.055  0.00  0.00    +0.000 A 
ATOM      7  C   LIG    1       -1.750   2.433  -0.730  0.00  0.00    +0.005 A 
ENDBRANCH   1   2
BRANCH   1   8
ATOM      8  C   LIG    1       -1.305  -0.812  -0.515  0.00  0.00    -0.029 A 
ATOM      9  C   LIG    1       -0.911  -1.402   0.667  0.00  0.00    +0.005 A 
ATOM     10  C   LIG    1       -1.629  -2.442   1.212  0.00  0.00    +0.000 A 
ATOM     11  C   LIG    1       -2.765  -2.949   0.625  0.00  0.00    +0.000 A 
ATOM     12  C   LIG    1       -3.157  -2.358  -0.555  0.00  0.00    +0.000 A 
ATOM     13  C   LIG    1       -2.449  -1.320  -1.110  0.00  0.00    +0.005 A 
ENDBRANCH   1   8
BRANCH   1  14
ATOM     14  S   LIG    1        1.113  -0.082  -1.565  0.00  0.00    -0.022 S 
ATOM     15  O   LIG    1        1.113  -0.917  -2.837  0.00  0.00    -0.161 OA
BRANCH  14  16
ATOM     16  C   LIG    1        2.243  -0.663  -0.366  0.00  0.00    +0.188 C 
BRANCH  16  17
ATOM     17  C   LIG    1        3.574  -0.924  -1.031  0.00  0.00    +0.247 C 
ATOM     18  N   LIG    1        4.682  -1.399  -0.318  0.00  0.00    -0.197 N 
ATOM     19  H   LIG    1        4.592  -1.581   0.703  0.00  0.00    +0.182 HD
ATOM     20  O   LIG    1        3.643  -0.693  -2.259  0.00  0.00    -0.273 OA
BRANCH  18  21
ATOM     21  O   LIG    1        5.845  -1.613  -0.969  0.00  0.00    -0.295 OA
ATOM     22  H   LIG    1        6.525  -0.952  -0.721  0.00  0.00    +0.241 HD
ENDBRANCH  18  21
ENDBRANCH  16  17
ENDBRANCH  14  16
ENDBRANCH   1  14
TORSDOF 6
