REMARK  Name = molecules/CGYQGGSMYNXXIV-IBGZPJMESA-N.pdb
REMARK                            x       y       z     vdW  Elec       q    Type
REMARK                         _______ _______ _______ _____ _____    ______ ____
ROOT
ATOM      1  C   LIG    1       -1.739   0.645  -0.571  0.00  0.00    +0.197 C 
ENDROOT
BRANCH   1   2
ATOM      2  C   LIG    1       -2.146   1.930   0.027  0.00  0.00    -0.020 A 
ATOM      3  C   LIG    1       -2.562   1.958   1.333  0.00  0.00    +0.006 A 
ATOM      4  C   LIG    1       -2.952   3.146   1.929  0.00  0.00    +0.000 A 
ATOM      5  C   LIG    1       -2.910   4.296   1.177  0.00  0.00    +0.000 A 
ATOM      6  C   LIG    1       -2.498   4.308  -0.138  0.00  0.00    +0.000 A 
ATOM      7  C   LIG    1       -2.120   3.100  -0.686  0.00  0.00    +0.006 A 
ENDBRANCH   1   2
BRANCH   1   8
ATOM      8  N   LIG    1       -2.635  -0.424  -0.276  0.00  0.00    -0.286 NA
ATOM      9  C   LIG    1       -4.016  -0.103  -0.460  0.00  0.00    +0.085 C 
ATOM     10  C   LIG    1       -4.802  -0.963   0.532  0.00  0.00    +0.015 C 
ATOM     11  C   LIG    1       -4.234  -2.371   0.473  0.00  0.00    +0.002 C 
ATOM     12  C   LIG    1       -3.567  -2.574  -0.866  0.00  0.00    +0.015 C 
ATOM     13  C   LIG    1       -2.348  -1.670  -0.940  0.00  0.00    +0.085 C 
ENDBRANCH   1   8
BRANCH   1  14
ATOM     14  C   LIG    1       -0.333   0.384  -0.119  0.00  0.00    +0.329 C 
ATOM     15  O   LIG    1        0.566   1.260  -0.303  0.00  0.00    -0.249 OA
BRANCH  14  16
ATOM     16  O   LIG    1        0.035  -0.787   0.500  0.00  0.00    -0.462 OA
BRANCH  16  17
ATOM     17  C   LIG    1        1.326  -1.094   0.947  0.00  0.00    +0.247 C 
BRANCH  17  18
ATOM     18  C   LIG    1        2.291  -1.097  -0.193  0.00  0.00    +0.125 C 
BRANCH  18  19
ATOM     19  N   LIG    1        3.652  -1.427   0.277  0.00  0.00    -0.299 NA
ATOM     20  C   LIG    1        4.162  -0.350   1.107  0.00  0.00    +0.084 C 
ATOM     21  C   LIG    1        5.668  -0.291   1.093  0.00  0.00    +0.015 C 
ATOM     22  C   LIG    1        6.210  -0.032  -0.294  0.00  0.00    +0.002 C 
ATOM     23  C   LIG    1        5.062  -0.231  -1.258  0.00  0.00    +0.015 C 
ATOM     24  C   LIG    1        4.453  -1.586  -0.940  0.00  0.00    +0.084 C 
ENDBRANCH  18  19
ENDBRANCH  17  18
ENDBRANCH  16  17
ENDBRANCH  14  16
ENDBRANCH   1  14
TORSDOF 7
