REMARK  Name = molecules/CHHXEZSCHQVSRE-FQEVSTJZSA-N.pdb
REMARK                            x       y       z     vdW  Elec       q    Type
REMARK                         _______ _______ _______ _____ _____    ______ ____
ROOT
ATOM      1  C   LIG    1       -0.570  -0.097  -2.968  0.00  0.00    +0.147 C 
ENDROOT
BRANCH   1   2
ATOM      2  N   LIG    1        0.700  -0.154  -2.267  0.00  0.00    -0.315 N 
ATOM      3  C   LIG    1        0.736  -0.214  -0.849  0.00  0.00    +0.131 C 
BRANCH   2   6
ATOM      4  C   LIG    1        4.248  -0.128  -3.286  0.00  0.00    +0.225 A 
ATOM      5  C   LIG    1        3.138  -0.141  -2.453  0.00  0.00    +0.111 A 
ATOM      6  C   LIG    1        1.893  -0.140  -3.039  0.00  0.00    +0.128 A 
ATOM      7  N   LIG    1        1.837  -0.126  -4.390  0.00  0.00    -0.221 NA
ATOM      8  C   LIG    1        2.895  -0.113  -5.190  0.00  0.00    +0.227 A 
ATOM      9  N   LIG    1        4.113  -0.115  -4.620  0.00  0.00    -0.201 NA
BRANCH   4  10
ATOM     10  O   LIG    1        5.506  -0.130  -2.711  0.00  0.00    -0.438 OA
BRANCH  10  15
ATOM     11  C   LIG    1        5.847   0.856   0.792  0.00  0.00    +0.049 A 
ATOM     12  C   LIG    1        5.922  -0.363   1.389  0.00  0.00    +0.120 A 
ATOM     13  C   LIG    1        5.859  -1.501   0.624  0.00  0.00    +0.049 A 
ATOM     14  C   LIG    1        5.720  -1.399  -0.745  0.00  0.00    +0.050 A 
ATOM     15  C   LIG    1        5.646  -0.147  -1.332  0.00  0.00    +0.131 A 
ATOM     16  C   LIG    1        5.707   1.003  -0.587  0.00  0.00    +0.050 A 
BRANCH  12  17
ATOM     17  O   LIG    1        6.063  -0.490   2.766  0.00  0.00    -0.495 OA
ATOM     18  C   LIG    1        6.137   0.621   3.635  0.00  0.00    +0.277 C 
ENDBRANCH  12  17
ENDBRANCH  10  15
ENDBRANCH   4  10
ENDBRANCH   2   6
ENDBRANCH   1   2
BRANCH   1  19
ATOM     19  C   LIG    1       -1.181   1.258  -2.703  0.00  0.00    +0.248 C 
BRANCH  19  20
ATOM     20  O   LIG    1       -1.415   1.470  -1.372  0.00  0.00    -0.490 OA
BRANCH  20  21
ATOM     21  C   LIG    1       -2.320   0.805  -0.586  0.00  0.00    +0.121 A 
ATOM     22  C   LIG    1       -2.380   1.145   0.786  0.00  0.00    +0.046 A 
ATOM     23  C   LIG    1       -3.260   0.527   1.632  0.00  0.00    +0.007 A 
ATOM     24  C   LIG    1       -4.139  -0.454   1.223  0.00  0.00    -0.046 A 
ATOM     25  C   LIG    1       -4.088  -0.791  -0.108  0.00  0.00    +0.007 A 
ATOM     26  C   LIG    1       -3.197  -0.171  -0.985  0.00  0.00    +0.046 A 
BRANCH  24  27
ATOM     27  C   LIG    1       -5.072  -1.085   2.192  0.00  0.00    +0.059 C 
BRANCH  27  28
ATOM     28  C   LIG    1       -6.348  -0.308   2.206  0.00  0.00    +0.146 C 
ATOM     29  C   LIG    1       -7.365  -0.847   3.148  0.00  0.00    +0.234 C 
ATOM     30  N   LIG    1       -8.250   0.127   3.608  0.00  0.00    -0.246 N 
ATOM     31  C   LIG    1       -7.651   1.378   3.903  0.00  0.00    +0.279 C 
ATOM     32  O   LIG    1       -8.079   2.315   4.652  0.00  0.00    -0.263 OA
ATOM     33  H   LIG    1       -9.293  -0.061   3.727  0.00  0.00    +0.158 HD
ATOM     34  O   LIG    1       -7.380  -2.078   3.468  0.00  0.00    -0.274 OA
ATOM     35  S   LIG    1       -6.111   1.353   2.958  0.00  0.00    -0.054 S 
ENDBRANCH  27  28
ENDBRANCH  24  27
ENDBRANCH  20  21
ENDBRANCH  19  20
ENDBRANCH   1  19
TORSDOF 10
