REMARK  Name = molecules/CHNUOJQWGUIOLD-NFZZJPOKSA-N.pdb
REMARK                            x       y       z     vdW  Elec       q    Type
REMARK                         _______ _______ _______ _____ _____    ______ ____
ROOT
ATOM      1  C   LIG    1        0.508  -0.379   0.717  0.00  0.00    +0.023 C 
ATOM      2  C   LIG    1        1.607  -0.013   0.129  0.00  0.00    +0.077 C 
ATOM      3  C   LIG    1        2.941   0.023   0.670  0.00  0.00    +0.259 C 
ATOM      4  O   LIG    1        3.137  -0.209   1.918  0.00  0.00    -0.269 OA
ATOM      5  N   LIG    1        3.954   0.318  -0.230  0.00  0.00    -0.244 N 
ATOM      6  C   LIG    1        3.562   0.548  -1.571  0.00  0.00    +0.121 C 
ATOM      7  S   LIG    1        4.455   0.789  -2.904  0.00  0.00    -0.027 S 
ATOM      8  S   LIG    1        1.776   0.528  -1.551  0.00  0.00    -0.061 S 
ENDROOT
BRANCH   1  10
ATOM      9  C   LIG    1       -1.857  -0.790   0.780  0.00  0.00    +0.011 C 
ATOM     10  C   LIG    1       -0.817  -0.384   0.090  0.00  0.00    -0.049 C 
ATOM     11  C   LIG    1       -1.059   0.102  -1.282  0.00  0.00    +0.044 C 
BRANCH   9  16
ATOM     12  C   LIG    1       -4.980  -1.484  -1.153  0.00  0.00    +0.001 A 
ATOM     13  C   LIG    1       -5.954  -0.957  -0.334  0.00  0.00    +0.000 A 
ATOM     14  C   LIG    1       -5.534  -0.373   0.842  0.00  0.00    +0.001 A 
ATOM     15  C   LIG    1       -4.198  -0.325   1.169  0.00  0.00    +0.008 A 
ATOM     16  C   LIG    1       -3.226  -0.865   0.323  0.00  0.00    -0.025 A 
ATOM     17  C   LIG    1       -3.635  -1.449  -0.848  0.00  0.00    +0.008 A 
ENDBRANCH   9  16
ENDBRANCH   1  10
BRANCH   5  18
ATOM     18  C   LIG    1        5.385   0.394   0.173  0.00  0.00    +0.235 C 
BRANCH  18  19
ATOM     19  C   LIG    1        5.693   1.767   0.576  0.00  0.00    +0.323 C 
ATOM     20  O   LIG    1        6.849   2.072   0.962  0.00  0.00    -0.249 OA
BRANCH  19  21
ATOM     21  O   LIG    1        4.738   2.771   0.548  0.00  0.00    -0.480 OA
ATOM     22  H   LIG    1        4.988   3.753   0.551  0.00  0.00    +0.295 HD
ENDBRANCH  19  21
ENDBRANCH  18  19
ENDBRANCH   5  18
TORSDOF 5
