REMARK  Name = molecules/CHQOEHPMXSHGCL-YRKFHGTDSA-N.pdb
REMARK                            x       y       z     vdW  Elec       q    Type
REMARK                         _______ _______ _______ _____ _____    ______ ____
ROOT
ATOM      1  C   LIG    1        0.132  -1.500   0.523  0.00  0.00    +0.306 C 
ATOM      2  O   LIG    1        0.293  -2.590   1.166  0.00  0.00    -0.252 OA
ATOM      3  N   LIG    1       -0.945  -0.543   0.714  0.00  0.00    -0.275 N 
ATOM      4  C   LIG    1       -0.415   0.669   0.219  0.00  0.00    +0.111 C 
ATOM      5  C   LIG    1       -1.307   1.643  -0.436  0.00  0.00    +0.059 C 
ATOM      6  C   LIG    1       -1.855   2.718   0.448  0.00  0.00    +0.016 C 
ATOM      7  C   LIG    1       -0.718   3.472   1.040  0.00  0.00    +0.011 C 
ATOM      8  C   LIG    1        0.243   3.836  -0.043  0.00  0.00    +0.059 C 
ATOM      9  S   LIG    1       -0.044   2.604  -1.322  0.00  0.00    -0.201 S 
ATOM     10  C   LIG    1        1.264   1.351  -1.246  0.00  0.00    +0.083 C 
ATOM     11  C   LIG    1        0.390   0.165  -0.993  0.00  0.00    +0.108 C 
ATOM     12  N   LIG    1        0.980  -1.013  -0.507  0.00  0.00    -0.276 N 
ENDROOT
BRANCH   3  13
ATOM     13  C   LIG    1       -2.200  -0.936   1.299  0.00  0.00    +0.144 C 
BRANCH  13  14
ATOM     14  C   LIG    1       -3.185  -1.406   0.324  0.00  0.00    -0.030 A 
ATOM     15  C   LIG    1       -3.188  -2.732  -0.053  0.00  0.00    +0.005 A 
ATOM     16  C   LIG    1       -4.096  -3.226  -0.969  0.00  0.00    +0.000 A 
ATOM     17  C   LIG    1       -5.010  -2.351  -1.504  0.00  0.00    +0.000 A 
ATOM     18  C   LIG    1       -5.029  -1.039  -1.150  0.00  0.00    +0.000 A 
ATOM     19  C   LIG    1       -4.110  -0.552  -0.226  0.00  0.00    +0.005 A 
ENDBRANCH  13  14
ENDBRANCH   3  13
BRANCH  12  20
ATOM     20  C   LIG    1        2.198  -1.628  -0.952  0.00  0.00    +0.144 C 
BRANCH  20  21
ATOM     21  C   LIG    1        3.408  -1.175  -0.222  0.00  0.00    -0.030 A 
ATOM     22  C   LIG    1        3.768  -1.783   0.964  0.00  0.00    +0.005 A 
ATOM     23  C   LIG    1        4.887  -1.395   1.679  0.00  0.00    +0.000 A 
ATOM     24  C   LIG    1        5.698  -0.374   1.231  0.00  0.00    +0.000 A 
ATOM     25  C   LIG    1        5.350   0.234   0.058  0.00  0.00    +0.000 A 
ATOM     26  C   LIG    1        4.237  -0.149  -0.658  0.00  0.00    +0.005 A 
ENDBRANCH  20  21
ENDBRANCH  12  20
TORSDOF 4
