REMARK  Name = molecules/CIDUJQMULVCIBT-MQDUPKMGSA-N.pdb
REMARK                            x       y       z     vdW  Elec       q    Type
REMARK                         _______ _______ _______ _____ _____    ______ ____
ROOT
ATOM      1  C   LIG    1        0.633   1.292   0.028  0.00  0.00    +0.169 C 
ATOM      2  C   LIG    1       -0.658   1.456   0.743  0.00  0.00    +0.175 C 
ATOM      3  C   LIG    1       -1.872   1.165  -0.043  0.00  0.00    +0.170 C 
ATOM      4  C   LIG    1       -1.798   1.512  -1.517  0.00  0.00    +0.084 C 
ATOM      5  C   LIG    1       -0.455   1.440  -2.112  0.00  0.00    +0.042 C 
ATOM      6  C   LIG    1        0.615   2.094  -1.274  0.00  0.00    +0.087 C 
ENDROOT
BRANCH   4   7
ATOM      7  N   LIG    1       -2.427   2.779  -1.821  0.00  0.00    -0.325 NA
ATOM      8  H   LIG    1       -3.064   3.087  -1.024  0.00  0.00    +0.119 HD
ATOM      9  H   LIG    1       -3.043   2.756  -2.658  0.00  0.00    +0.119 HD
ENDBRANCH   4   7
BRANCH   2  10
ATOM     10  O   LIG    1       -0.703   2.713   1.331  0.00  0.00    -0.387 OA
ATOM     11  H   LIG    1       -0.143   2.697   2.142  0.00  0.00    +0.210 HD
ENDBRANCH   2  10
BRANCH   6  12
ATOM     12  N   LIG    1        0.439   3.485  -1.058  0.00  0.00    -0.311 NA
ATOM     13  H   LIG    1       -0.511   3.830  -0.897  0.00  0.00    +0.122 HD
BRANCH  12  14
ATOM     14  C   LIG    1        1.483   4.136  -0.348  0.00  0.00    +0.078 C 
ATOM     15  C   LIG    1        1.144   5.620  -0.116  0.00  0.00    +0.020 C 
ENDBRANCH  12  14
ENDBRANCH   6  12
BRANCH   1  16
ATOM     16  O   LIG    1        0.934  -0.025  -0.275  0.00  0.00    -0.341 OA
BRANCH  16  17
ATOM     17  C   LIG    1        2.236  -0.319   0.160  0.00  0.00    +0.281 C 
ATOM     18  O   LIG    1        2.179  -1.042   1.359  0.00  0.00    -0.346 OA
ATOM     19  C   LIG    1        2.948  -2.143   1.460  0.00  0.00    +0.199 C 
ATOM     20  C   LIG    1        4.350  -1.912   1.001  0.00  0.00    +0.104 C 
ATOM     21  C   LIG    1        5.052  -3.277   1.029  0.00  0.00    +0.045 C 
ATOM     22  C   LIG    1        4.420  -1.373  -0.378  0.00  0.00    +0.121 C 
ATOM     23  C   LIG    1        3.054  -0.999  -0.866  0.00  0.00    +0.190 C 
BRANCH  22  24
ATOM     24  N   LIG    1        5.371  -0.319  -0.571  0.00  0.00    -0.311 NA
ATOM     25  H   LIG    1        5.526   0.314   0.211  0.00  0.00    +0.122 HD
ATOM     26  C   LIG    1        6.620  -0.798  -1.148  0.00  0.00    +0.101 C 
ENDBRANCH  22  24
BRANCH  20  27
ATOM     27  O   LIG    1        5.033  -1.028   1.842  0.00  0.00    -0.385 OA
ATOM     28  H   LIG    1        5.891  -1.440   2.188  0.00  0.00    +0.210 HD
ENDBRANCH  20  27
BRANCH  23  29
ATOM     29  O   LIG    1        2.405  -2.161  -1.353  0.00  0.00    -0.385 OA
ATOM     30  H   LIG    1        1.482  -2.096  -1.007  0.00  0.00    +0.210 HD
ENDBRANCH  23  29
ENDBRANCH  16  17
ENDBRANCH   1  16
BRANCH   3  31
ATOM     31  O   LIG    1       -2.282  -0.148   0.128  0.00  0.00    -0.333 OA
BRANCH  31  32
ATOM     32  C   LIG    1       -3.595  -0.224   0.593  0.00  0.00    +0.324 C 
ATOM     33  C   LIG    1       -3.777  -0.940   1.872  0.00  0.00    +0.124 C 
ATOM     34  C   LIG    1       -5.280  -0.954   2.193  0.00  0.00    +0.055 C 
ATOM     35  C   LIG    1       -5.855  -1.819   1.090  0.00  0.00    +0.017 C 
ATOM     36  C   LIG    1       -5.408  -1.654  -0.147  0.00  0.00    +0.111 C 
ATOM     37  O   LIG    1       -4.442  -0.708  -0.399  0.00  0.00    -0.465 OA
BRANCH  33  38
ATOM     38  N   LIG    1       -3.427  -2.350   1.678  0.00  0.00    -0.322 NA
ATOM     39  H   LIG    1       -3.569  -2.915   2.549  0.00  0.00    +0.119 HD
ATOM     40  H   LIG    1       -2.495  -2.471   1.265  0.00  0.00    +0.119 HD
ENDBRANCH  33  38
BRANCH  36  41
ATOM     41  C   LIG    1       -5.965  -2.500  -1.249  0.00  0.00    +0.152 C 
BRANCH  41  42
ATOM     42  N   LIG    1       -6.967  -3.412  -0.759  0.00  0.00    -0.324 NA
ATOM     43  H   LIG    1       -6.550  -4.044  -0.035  0.00  0.00    +0.119 HD
ATOM     44  H   LIG    1       -7.747  -2.882  -0.317  0.00  0.00    +0.119 HD
ENDBRANCH  41  42
ENDBRANCH  36  41
ENDBRANCH  31  32
ENDBRANCH   3  31
TORSDOF 14
