REMARK  Name = molecules/CIJVBYRUFLGDHY-LBPRGKRZSA-N.pdb
REMARK                            x       y       z     vdW  Elec       q    Type
REMARK                         _______ _______ _______ _____ _____    ______ ____
ROOT
ATOM      1  O   LIG    1        0.676  -0.527   0.409  0.00  0.00    -0.486 OA
ENDROOT
BRANCH   1   2
ATOM      2  C   LIG    1        2.051  -0.331   0.463  0.00  0.00    +0.163 A 
ATOM      3  C   LIG    1        2.686  -0.230   1.675  0.00  0.00    +0.050 A 
ATOM      4  C   LIG    1        4.039  -0.040   1.681  0.00  0.00    +0.008 A 
ATOM      5  C   LIG    1        4.758   0.051   0.519  0.00  0.00    -0.040 A 
ATOM      6  C   LIG    1        6.217   0.256   0.505  0.00  0.00    +0.044 C 
ATOM      7  C   LIG    1        4.101  -0.052  -0.702  0.00  0.00    +0.024 A 
ATOM      8  C   LIG    1        4.767   0.035  -1.902  0.00  0.00    +0.019 A 
ATOM      9  C   LIG    1        4.093  -0.067  -3.098  0.00  0.00    +0.092 A 
ATOM     10  C   LIG    1        2.740  -0.258  -3.040  0.00  0.00    +0.337 A 
ATOM     11  O   LIG    1        2.130  -0.338  -1.884  0.00  0.00    -0.418 OA
ATOM     12  O   LIG    1        2.067  -0.359  -4.113  0.00  0.00    -0.245 OA
ATOM     13  C   LIG    1        2.736  -0.245  -0.726  0.00  0.00    +0.181 A 
ENDBRANCH   1   2
BRANCH   1  14
ATOM     14  C   LIG    1       -0.064  -0.603   1.616  0.00  0.00    +0.261 C 
BRANCH  14  15
ATOM     15  C   LIG    1       -1.531  -0.818   1.169  0.00  0.00    +0.166 C 
BRANCH  15  16
ATOM     16  O   LIG    1       -2.356  -0.811   2.239  0.00  0.00    -0.387 OA
ATOM     17  H   LIG    1       -2.010  -0.379   3.064  0.00  0.00    +0.210 HD
ENDBRANCH  15  16
BRANCH  15  18
ATOM     18  C   LIG    1       -1.753   0.070   0.025  0.00  0.00    +0.116 C 
BRANCH  18  19
ATOM     19  N   LIG    1       -2.949  -0.041  -0.667  0.00  0.00    -0.309 NA
ATOM     20  H   LIG    1       -2.902  -0.716  -1.449  0.00  0.00    +0.123 HD
BRANCH  19  21
ATOM     21  C   LIG    1       -4.194   0.385  -0.227  0.00  0.00    +0.011 C 
ATOM     22  C   LIG    1       -4.826  -0.234   0.978  0.00  0.00    +0.027 C 
ATOM     23  C   LIG    1       -4.242   1.902   0.046  0.00  0.00    +0.027 C 
ATOM     24  C   LIG    1       -5.162   0.127  -1.423  0.00  0.00    +0.027 C 
ENDBRANCH  19  21
ENDBRANCH  18  19
ENDBRANCH  15  18
ENDBRANCH  14  15
ENDBRANCH   1  14
TORSDOF 7
