REMARK  Name = molecules/CIKWKGFPFXJVGW-UHFFFAOYSA-N.pdb
REMARK                            x       y       z     vdW  Elec       q    Type
REMARK                         _______ _______ _______ _____ _____    ______ ____
ROOT
ATOM      1  C   LIG    1        0.907   1.107  -0.541  0.00  0.00    +0.043 A 
ATOM      2  C   LIG    1       -0.229   0.447  -0.098  0.00  0.00    +0.025 A 
ATOM      3  C   LIG    1       -0.074  -0.775   0.524  0.00  0.00    +0.074 A 
ATOM      4  C   LIG    1       -1.192  -1.477   0.987  0.00  0.00    +0.032 A 
ATOM      5  C   LIG    1       -2.460  -0.959   0.829  0.00  0.00    +0.048 A 
ATOM      6  C   LIG    1       -2.608   0.261   0.208  0.00  0.00    +0.121 A 
ATOM      7  N   LIG    1        1.140  -1.312   0.697  0.00  0.00    -0.247 NA
ATOM      8  C   LIG    1        2.284  -0.716   0.286  0.00  0.00    +0.075 A 
ATOM      9  C   LIG    1        3.526  -1.287   0.474  0.00  0.00    +0.051 A 
ATOM     10  C   LIG    1        4.684  -0.665   0.049  0.00  0.00    +0.027 A 
ATOM     11  C   LIG    1        4.537   0.560  -0.575  0.00  0.00    +0.023 A 
ATOM     12  C   LIG    1        3.293   1.127  -0.761  0.00  0.00    +0.013 A 
ATOM     13  C   LIG    1       -1.488   0.961  -0.255  0.00  0.00    +0.057 A 
ATOM     14  C   LIG    1        2.133   0.509  -0.338  0.00  0.00    +0.022 A 
ENDROOT
BRANCH   1  15
ATOM     15  N   LIG    1        0.767   2.361  -1.181  0.00  0.00    -0.357 N 
ATOM     16  H   LIG    1        0.137   3.062  -0.759  0.00  0.00    +0.142 HD
ATOM     17  H   LIG    1        1.288   2.561  -2.050  0.00  0.00    +0.142 HD
ENDBRANCH   1  15
BRANCH  10  18
ATOM     18  N   LIG    1        5.969  -1.257   0.244  0.00  0.00    -0.358 N 
ATOM     19  H   LIG    1        6.578  -0.950   1.030  0.00  0.00    +0.142 HD
ATOM     20  H   LIG    1        6.333  -2.003  -0.384  0.00  0.00    +0.142 HD
ENDBRANCH  10  18
BRANCH   6  21
ATOM     21  O   LIG    1       -3.867   0.815   0.030  0.00  0.00    -0.492 OA
BRANCH  21  22
ATOM     22  C   LIG    1       -5.067   0.219   0.444  0.00  0.00    +0.225 C 
ATOM     23  C   LIG    1       -5.353  -1.112  -0.166  0.00  0.00    +0.048 C 
ENDBRANCH  21  22
ENDBRANCH   6  21
TORSDOF 4
