REMARK  Name = molecules/CILIXQOJUNDIDU-ASQIGDHWSA-N.pdb
REMARK                            x       y       z     vdW  Elec       q    Type
REMARK                         _______ _______ _______ _____ _____    ______ ____
ROOT
ATOM      1  N   LIG    1       68.332  27.497   0.000  0.00  0.00    -0.130 NA
ATOM      2  C   LIG    1       69.758  27.033   0.000  0.00  0.00    +0.186 C 
ENDROOT
BRANCH   2   3
ATOM      3  C   LIG    1       70.222  28.459   0.000  0.00  0.00    +0.256 C 
ATOM      4  O   LIG    1       69.218  29.574   0.000  0.00  0.00    -0.272 OA
BRANCH   3   5
ATOM      5  N   LIG    1       71.689  28.771   0.000  0.00  0.00    -0.195 NA
ATOM      6  C   LIG    1       72.153  30.198   0.000  0.00  0.00    +0.127 C 
ENDBRANCH   3   5
ENDBRANCH   2   3
BRANCH   2   7
ATOM      7  C   LIG    1       69.295  25.606   0.000  0.00  0.00    +0.088 C 
BRANCH   7   8
ATOM      8  C   LIG    1       68.831  24.180   0.000  0.00  0.00    +0.063 A 
ATOM      9  C   LIG    1       69.713  22.966   0.000  0.00  0.00    +0.135 A 
ATOM     10  N   LIG    1       68.831  21.753   0.000  0.00  0.00    -0.242 NA
ATOM     11  C   LIG    1       67.405  22.216   0.000  0.00  0.00    +0.221 A 
ATOM     12  N   LIG    1       67.405  23.716   0.000  0.00  0.00    -0.239 NA
ENDBRANCH   7   8
ENDBRANCH   2   7
TORSDOF 4
REMARK  Name = molecules/CILIXQOJUNDIDU-ASQIGDHWSA-N.pdb
REMARK                            x       y       z     vdW  Elec       q    Type
REMARK                         _______ _______ _______ _____ _____    ______ ____
ROOT
ATOM      1  N   LIG    1       71.612  32.739   0.000  0.00  0.00    -0.129 NA
ATOM      2  C   LIG    1       72.076  34.166   0.000  0.00  0.00    +0.195 C 
ENDROOT
BRANCH   2   3
ATOM      3  C   LIG    1       70.649  34.629   0.000  0.00  0.00    +0.257 C 
ATOM      4  O   LIG    1       69.421  33.769   0.000  0.00  0.00    -0.272 OA
BRANCH   3   5
ATOM      5  N   LIG    1       70.337  36.097   0.000  0.00  0.00    -0.195 NA
ATOM      6  C   LIG    1       68.911  36.560   0.000  0.00  0.00    +0.127 C 
ENDBRANCH   3   5
ENDBRANCH   2   3
BRANCH   2   7
ATOM      7  C   LIG    1       73.502  33.702   0.000  0.00  0.00    +0.146 C 
BRANCH   7   8
ATOM      8  C   LIG    1       74.929  33.239   0.000  0.00  0.00    +0.349 C 
ATOM      9  O   LIG    1       76.044  34.242   0.000  0.00  0.00    -0.247 OA
BRANCH   8  10
ATOM     10  O   LIG    1       75.241  31.772   0.000  0.00  0.00    -0.299 OA
BRANCH  10  11
ATOM     11  O   LIG    1       74.083  31.936   0.000  0.00  0.00    -0.198 OA
ATOM     12  H   LIG    1       73.398  32.206   0.000  0.00  0.00    +0.268 HD
ENDBRANCH  10  11
ENDBRANCH   8  10
ENDBRANCH   7   8
ENDBRANCH   2   7
TORSDOF 6
REMARK  Name = molecules/CILIXQOJUNDIDU-ASQIGDHWSA-N.pdb
REMARK                            x       y       z     vdW  Elec       q    Type
REMARK                         _______ _______ _______ _____ _____    ______ ____
ROOT
ATOM      1  N   LIG    1       63.012  34.745   0.000  0.00  0.00    -0.278 NA
ATOM      2  C   LIG    1       62.549  33.319   0.000  0.00  0.00    +0.106 C 
ENDROOT
BRANCH   2   3
ATOM      3  C   LIG    1       63.975  32.855   0.000  0.00  0.00    +0.028 C 
ATOM      4  C   LIG    1       65.402  32.391   0.000  0.00  0.00    -0.016 C 
BRANCH   4   5
ATOM      5  C   LIG    1       65.714  30.924   0.000  0.00  0.00    +0.008 C 
ATOM      6  C   LIG    1       67.140  30.461   0.000  0.00  0.00    +0.000 C 
BRANCH   6   7
ATOM      7  C   LIG    1       68.255  31.464   0.000  0.00  0.00    -0.004 C 
ATOM      8  C   LIG    1       67.943  32.932   0.000  0.00  0.00    -0.022 C 
ATOM      9  C   LIG    1       66.517  33.395   0.000  0.00  0.00    +0.026 C 
ENDBRANCH   6   7
ENDBRANCH   4   5
ENDBRANCH   2   3
BRANCH   1  10
ATOM     10  C   LIG    1       64.479  35.057   0.000  0.00  0.00    +0.139 C 
BRANCH  10  11
ATOM     11  CA  LIG    1       64.943  36.483   0.000  0.00  0.00    +0.141 C 
BRANCH  11  12
ATOM     12  N   LIG    1       66.370  36.020   0.000  0.00  0.00    -0.219 NA
ATOM     13  C   LIG    1       67.484  37.024   0.000  0.00  0.00    +0.107 C 
ENDBRANCH  11  12
BRANCH  11  14
ATOM     14  C   LIG    1       65.406  37.910   0.000  0.00  0.00    +0.211 C 
ATOM     15  O   LIG    1       65.870  39.337   0.000  0.00  0.00    -0.227 OA
ENDBRANCH  11  14
ENDBRANCH  10  11
ENDBRANCH   1  10
TORSDOF 7
REMARK  Name = molecules/CILIXQOJUNDIDU-ASQIGDHWSA-N.pdb
REMARK                            x       y       z     vdW  Elec       q    Type
REMARK                         _______ _______ _______ _____ _____    ______ ____
ROOT
ATOM      1  N   GLY A  1       60.007  32.778   0.000  0.00  0.00    -0.134 NA
ATOM      2  CA  GLY A  1       58.581  33.242   0.000  0.00  0.00    +0.160 C 
ATOM      3  C   GLY A  1       59.044  34.668   0.000  0.00  0.00    +0.269 C 
ATOM      4  O   GLY A  1       59.508  36.095   0.000  0.00  0.00    -0.295 OA
ENDROOT
TORSDOF 0
REMARK  Name = molecules/CILIXQOJUNDIDU-ASQIGDHWSA-N.pdb
REMARK                            x       y       z     vdW  Elec       q    Type
REMARK                         _______ _______ _______ _____ _____    ______ ____
ROOT
ATOM      1  C   LIG    1       52.219  30.000   0.000  0.00  0.00    +0.159 C 
ENDROOT
BRANCH   1   3
ATOM      2  C   LIG    1       54.760  30.540   0.000  0.00  0.00    +0.083 C 
ATOM      3  N   LIG    1       53.645  29.537   0.000  0.00  0.00    -0.275 NA
BRANCH   2   5
ATOM      4  N   LIG    1       56.650  31.503   0.000  0.00  0.00    -0.129 NA
ATOM      5  C   LIG    1       56.187  30.077   0.000  0.00  0.00    +0.169 C 
BRANCH   5   6
ATOM      6  C   LIG    1       57.613  29.613   0.000  0.00  0.00    +0.055 C 
ATOM      7  C   LIG    1       59.040  29.150   0.000  0.00  0.00    +0.223 C 
ATOM      8  O   LIG    1       59.352  27.683   0.000  0.00  0.00    -0.284 OA
ENDBRANCH   5   6
ENDBRANCH   2   5
ENDBRANCH   1   3
BRANCH   1   9
ATOM      9  C   LIG    1       51.755  28.574   0.000  0.00  0.00    +0.084 C 
ATOM     10  N   LIG    1       50.288  28.262   0.000  0.00  0.00    -0.280 NA
BRANCH  10  11
ATOM     11  C   LIG    1       49.824  26.835   0.000  0.00  0.00    +0.118 C 
ATOM     12  C   LIG    1       48.398  27.299   0.000  0.00  0.00    +0.020 C 
BRANCH  11  13
ATOM     13  C   LIG    1       51.251  26.372   0.000  0.00  0.00    +0.030 C 
BRANCH  13  14
ATOM     14  C   LIG    1       52.678  25.908   0.000  0.00  0.00    +0.074 C 
BRANCH  14  15
ATOM     15  S   LIG    1       54.104  25.445   0.000  0.00  0.00    -0.164 S 
ATOM     16  C   LIG    1       54.416  23.977   0.000  0.00  0.00    +0.084 C 
ENDBRANCH  14  15
ENDBRANCH  13  14
ENDBRANCH  11  13
ENDBRANCH  10  11
ENDBRANCH   1   9
BRANCH   1  17
ATOM     17  C   LIG    1       52.682  31.427   0.000  0.00  0.00    +0.036 C 
BRANCH  17  18
ATOM     18  C   LIG    1       53.146  32.853   0.000  0.00  0.00    +0.131 C 
BRANCH  18  19
ATOM     19  C   LIG    1       53.609  34.280   0.000  0.00  0.00    +0.356 C 
ATOM     20  O   LIG    1       52.605  35.395   0.000  0.00  0.00    -0.246 OA
ATOM     21  O   LIG    1       55.076  34.592   0.000  0.00  0.00    -0.246 OA
ENDBRANCH  18  19
ENDBRANCH  17  18
ENDBRANCH   1  17
TORSDOF 11
REMARK  Name = molecules/CILIXQOJUNDIDU-ASQIGDHWSA-N.pdb
REMARK                            x       y       z     vdW  Elec       q    Type
REMARK                         _______ _______ _______ _____ _____    ______ ____
ROOT
ATOM      1  C   LIG    1       46.783  29.612   0.000  0.00  0.00    +0.254 C 
ATOM      2  N   LIG    1       48.251  29.924   0.000  0.00  0.00    -0.231 NA
ATOM      3  H   LIG    1       49.156  29.246   0.000  0.00  0.00    +0.173 HD
ATOM      4  O   LIG    1       45.780  30.726   0.000  0.00  0.00    -0.269 OA
ENDROOT
BRANCH   1   7
ATOM      5  N   LIG    1       47.283  26.295   0.000  0.00  0.00    -0.138 NA
ATOM      6  C   LIG    1       45.856  26.759   0.000  0.00  0.00    +0.123 C 
ATOM      7  C   LIG    1       46.320  28.185   0.000  0.00  0.00    +0.087 C 
ENDBRANCH   1   7
TORSDOF 1
REMARK  Name = molecules/CILIXQOJUNDIDU-ASQIGDHWSA-N.pdb
REMARK                            x       y       z     vdW  Elec       q    Type
REMARK                         _______ _______ _______ _____ _____    ______ ____
ROOT
ATOM      1  N   LIG    1       43.926  25.020   0.000  0.00  0.00    -0.244 NA
ATOM      2  C   LIG    1       45.393  25.332   0.000  0.00  0.00    +0.103 C 
ATOM      3  H   LIG    1       44.288  24.277   0.000  0.00  0.00    +0.141 HD
ENDROOT
TORSDOF 0
REMARK  Name = molecules/CILIXQOJUNDIDU-ASQIGDHWSA-N.pdb
REMARK                            x       y       z     vdW  Elec       q    Type
REMARK                         _______ _______ _______ _____ _____    ______ ____
ROOT
ATOM      1  C   LIG    1       41.384  24.480   0.000  0.00  0.00    +0.096 C 
ENDROOT
BRANCH   1   2
ATOM      2  C   LIG    1       42.036  24.057   0.000  0.00  0.00    -0.003 C 
ATOM      3  C   LIG    1       42.811  24.016   0.000  0.00  0.00    -0.037 C 
ATOM      4  C   LIG    1       43.462  23.593   0.000  0.00  0.00    +0.030 C 
ENDBRANCH   1   2
BRANCH   1   5
ATOM      5  C   LIG    1       39.958  24.943   0.000  0.00  0.00    +0.015 C 
ATOM      6  C   LIG    1       39.494  23.517   0.000  0.00  0.00    +0.001 C 
ATOM      7  C   LIG    1       40.421  26.370   0.000  0.00  0.00    +0.006 C 
ENDBRANCH   1   5
BRANCH   1   8
ATOM      8  N   LIG    1       40.921  23.053   0.000  0.00  0.00    -0.249 NA
ATOM      9  H   LIG    1       42.177  22.657   0.000  0.00  0.00    +0.141 HD
ENDBRANCH   1   8
TORSDOF 3
REMARK  Name = molecules/CILIXQOJUNDIDU-ASQIGDHWSA-N.pdb
REMARK                            x       y       z     vdW  Elec       q    Type
REMARK                         _______ _______ _______ _____ _____    ______ ____
ROOT
ATOM      1  C   LIG    1       37.100  20.352   0.000  0.00  0.00    +0.088 C 
ATOM      2  C   LIG    1       38.527  19.888   0.000  0.00  0.00    -0.007 C 
ENDROOT
BRANCH   2   3
ATOM      3  C   LIG    1       39.953  19.425   0.000  0.00  0.00    +0.007 C 
ATOM      4  C   LIG    1       41.380  18.961   0.000  0.00  0.00    +0.011 C 
ATOM      5  C   LIG    1       39.490  17.998   0.000  0.00  0.00    +0.011 C 
ENDBRANCH   2   3
BRANCH   1   6
ATOM      6  N   LIG    1       37.564  21.778   0.000  0.00  0.00    -0.245 NA
ATOM      7  C   LIG    1       39.031  22.090   0.000  0.00  0.00    +0.135 C 
ENDBRANCH   1   6
TORSDOF 2
REMARK  Name = molecules/CILIXQOJUNDIDU-ASQIGDHWSA-N.pdb
REMARK                            x       y       z     vdW  Elec       q    Type
REMARK                         _______ _______ _______ _____ _____    ______ ____
ROOT
ATOM      1  C   LIG    1       33.132  20.275   0.000  0.00  0.00    +0.108 C 
ATOM      2  C   LIG    1       32.669  18.849   0.000  0.00  0.00    +0.017 C 
ENDROOT
BRANCH   1   3
ATOM      3  C   LIG    1       33.596  21.702   0.000  0.00  0.00    +0.048 C 
ATOM      4  C   LIG    1       34.059  23.128   0.000  0.00  0.00    +0.223 C 
ATOM      5  O   LIG    1       33.056  24.243   0.000  0.00  0.00    -0.284 OA
ENDBRANCH   1   3
BRANCH   1   6
ATOM      6  N   LIG    1       34.559  19.812   0.000  0.00  0.00    -0.220 NA
ATOM      7  C   LIG    1       35.673  20.815   0.000  0.00  0.00    +0.107 C 
ENDBRANCH   1   6
TORSDOF 2
REMARK  Name = molecules/CILIXQOJUNDIDU-ASQIGDHWSA-N.pdb
REMARK                            x       y       z     vdW  Elec       q    Type
REMARK                         _______ _______ _______ _____ _____    ______ ____
ROOT
ATOM      1  N   LIG    1       31.201  18.537   0.000  0.00  0.00    -0.138 NA
ATOM      2  C   LIG    1       30.738  17.110   0.000  0.00  0.00    +0.116 C 
ATOM      3  C   LIG    1       32.164  16.646   0.000  0.00  0.00    +0.021 C 
ENDROOT
BRANCH   3   4
ATOM      4  C   LIG    1       33.591  16.183   0.000  0.00  0.00    +0.128 C 
ATOM      5  N   LIG    1       33.903  14.716   0.000  0.00  0.00    -0.127 NA
ENDBRANCH   3   4
TORSDOF 1
REMARK  Name = molecules/CILIXQOJUNDIDU-ASQIGDHWSA-N.pdb
REMARK                            x       y       z     vdW  Elec       q    Type
REMARK                         _______ _______ _______ _____ _____    ______ ____
ROOT
ATOM      1  N   LIG    1       28.197  16.570   0.000  0.00  0.00    -0.133 NA
ATOM      2  C   LIG    1       26.770  17.033   0.000  0.00  0.00    +0.146 C 
ENDROOT
BRANCH   2   3
ATOM      3  C   LIG    1       26.306  15.607   0.000  0.00  0.00    +0.079 C 
ATOM      4  N   LIG    1       24.839  15.295   0.000  0.00  0.00    -0.273 NA
BRANCH   4   5
ATOM      5  C   LIG    1       24.376  13.868   0.000  0.00  0.00    +0.121 C 
ATOM      6  C   LIG    1       25.802  13.405   0.000  0.00  0.00    +0.033 C 
ENDBRANCH   4   5
ENDBRANCH   2   3
BRANCH   2   7
ATOM      7  C   LIG    1       27.233  18.460   0.000  0.00  0.00    +0.023 C 
BRANCH   7   8
ATOM      8  C   LIG    1       27.697  19.887   0.000  0.00  0.00    -0.012 C 
ATOM      9  C   LIG    1       28.161  21.313   0.000  0.00  0.00    +0.007 C 
ATOM     10  C   LIG    1       26.270  20.350   0.000  0.00  0.00    +0.007 C 
ENDBRANCH   7   8
ENDBRANCH   2   7
TORSDOF 4
REMARK  Name = molecules/CILIXQOJUNDIDU-ASQIGDHWSA-N.pdb
REMARK                            x       y       z     vdW  Elec       q    Type
REMARK                         _______ _______ _______ _____ _____    ______ ____
ROOT
ATOM      1  N   LIG    1       21.834  13.328   0.000  0.00  0.00    -0.138 NA
ATOM      2  C   LIG    1       20.408  13.792   0.000  0.00  0.00    +0.110 C 
ATOM      3  C   LIG    1       20.871  15.218   0.000  0.00  0.00    +0.028 C 
ENDROOT
TORSDOF 0
REMARK  Name = molecules/CILIXQOJUNDIDU-ASQIGDHWSA-N.pdb
REMARK                            x       y       z     vdW  Elec       q    Type
REMARK                         _______ _______ _______ _____ _____    ______ ____
ROOT
ATOM      1  C   LIG    1       22.293   9.236   0.000  0.00  0.00    +0.244 C 
ENDROOT
BRANCH   1   2
ATOM      2  C   LIG    1       20.867   9.700   0.000  0.00  0.00    +0.050 C 
BRANCH   2   3
ATOM      3  C   LIG    1       19.440  10.163   0.000  0.00  0.00    +0.041 C 
BRANCH   3   5
ATOM      4  N   LIG    1       18.477  12.053   0.000  0.00  0.00    -0.281 NA
ATOM      5  C   LIG    1       18.014  10.627   0.000  0.00  0.00    +0.082 C 
ATOM      6  C   LIG    1       19.944  12.365   0.000  0.00  0.00    +0.151 C 
ENDBRANCH   3   5
ENDBRANCH   2   3
ENDBRANCH   1   2
BRANCH   1   7
ATOM      7  N   LIG    1       23.720   8.773   0.000  0.00  0.00    -0.108 NA
BRANCH   7   8
ATOM      8  C   LIG    1       24.835   9.776   0.000  0.00  0.00    +0.457 C 
ATOM      9  N   LIG    1       26.261   9.313   0.000  0.00  0.00    +0.128 NA
BRANCH   8  10
ATOM     10  N   LIG    1       24.523  11.243   0.000  0.00  0.00    -0.284 N 
ATOM     11  H   LIG    1       25.516  11.932   0.000  0.00  0.00    +0.255 HD
ATOM     12  H   LIG    1       23.912  12.442   0.000  0.00  0.00    +0.255 HD
ENDBRANCH   8  10
ENDBRANCH   7   8
ENDBRANCH   1   7
TORSDOF 6
REMARK  Name = molecules/CILIXQOJUNDIDU-ASQIGDHWSA-N.pdb
REMARK                            x       y       z     vdW  Elec       q    Type
REMARK                         _______ _______ _______ _____ _____    ______ ____
ROOT
ATOM      1  C   LIG    1       14.509  11.977   0.000  0.00  0.00    +0.051 C 
ATOM      2  C   LIG    1       14.973  13.403   0.000  0.00  0.00    +0.223 C 
ATOM      3  O   LIG    1       13.969  14.518   0.000  0.00  0.00    -0.284 OA
ENDROOT
BRANCH   1   5
ATOM      4  N   LIG    1       15.472  10.086   0.000  0.00  0.00    -0.133 NA
ATOM      5  C   LIG    1       14.046  10.550   0.000  0.00  0.00    +0.143 C 
ENDBRANCH   1   5
TORSDOF 1
REMARK  Name = molecules/CILIXQOJUNDIDU-ASQIGDHWSA-N.pdb
REMARK                            x       y       z     vdW  Elec       q    Type
REMARK                         _______ _______ _______ _____ _____    ______ ____
ROOT
ATOM      1  C   LIG    1        7.684   7.308   0.000  0.00  0.00    +0.136 C 
ENDROOT
BRANCH   1   3
ATOM      2  C   LIG    1       10.225   7.848   0.000  0.00  0.00    +0.078 C 
ATOM      3  N   LIG    1        9.110   6.845   0.000  0.00  0.00    -0.279 NA
BRANCH   2   4
ATOM      4  C   LIG    1       11.651   7.385   0.000  0.00  0.00    +0.132 C 
BRANCH   4   5
ATOM      5  N   LIG    1       12.115   8.812   0.000  0.00  0.00    -0.218 NA
ATOM      6  C   LIG    1       13.582   9.123   0.000  0.00  0.00    +0.107 C 
ENDBRANCH   4   5
BRANCH   4   7
ATOM      7  C   LIG    1       13.078   6.921   0.000  0.00  0.00    +0.053 C 
BRANCH   7   8
ATOM      8  C   LIG    1       14.505   6.458   0.000  0.00  0.00    -0.042 C 
ATOM      9  C   LIG    1       14.816   4.991   0.000  0.00  0.00    -0.014 C 
BRANCH   9  10
ATOM     10  C   LIG    1       16.243   4.527   0.000  0.00  0.00    +0.045 C 
BRANCH  10  11
ATOM     11  C   LIG    1       17.358   5.531   0.000  0.00  0.00    -0.018 C 
ATOM     12  C   LIG    1       17.046   6.998   0.000  0.00  0.00    -0.004 C 
ENDBRANCH  10  11
ENDBRANCH   9  10
ENDBRANCH   7   8
ENDBRANCH   4   7
ENDBRANCH   2   4
ENDBRANCH   1   3
BRANCH   1  13
ATOM     13  C   LIG    1        8.147   8.735   0.000  0.00  0.00    -0.001 C 
ATOM     14  C   LIG    1        8.611  10.162   0.000  0.00  0.00    +0.014 C 
BRANCH  13  15
ATOM     15  C   LIG    1        6.720   9.198   0.000  0.00  0.00    +0.009 C 
ATOM     16  C   LIG    1        5.294   9.662   0.000  0.00  0.00    +0.001 C 
ENDBRANCH  13  15
ENDBRANCH   1  13
BRANCH   1  17
ATOM     17  C   LIG    1        7.220   5.882   0.000  0.00  0.00    +0.087 C 
BRANCH  17  18
ATOM     18  N   LIG    1        5.753   5.570   0.000  0.00  0.00    -0.299 NA
ATOM     19  H   LIG    1        4.987   6.656   0.000  0.00  0.00    +0.123 HD
BRANCH  18  20
ATOM     20  C   LIG    1        5.289   4.143   0.000  0.00  0.00    +0.087 C 
ATOM     21  C   LIG    1        3.863   4.607   0.000  0.00  0.00    +0.015 C 
BRANCH  20  22
ATOM     22  C   LIG    1        6.716   3.680   0.000  0.00  0.00    +0.021 C 
ATOM     23  C   LIG    1        8.142   3.216   0.000  0.00  0.00    +0.094 C 
ATOM     24  N   LIG    1        8.454   1.749   0.000  0.00  0.00    -0.128 NA
ENDBRANCH  20  22
ENDBRANCH  18  20
ENDBRANCH  17  18
ENDBRANCH   1  17
TORSDOF 13
REMARK  Name = molecules/CILIXQOJUNDIDU-ASQIGDHWSA-N.pdb
REMARK                            x       y       z     vdW  Elec       q    Type
REMARK                         _______ _______ _______ _____ _____    ______ ____
ROOT
ATOM      1  C   LIG    1        1.550   2.993   0.000  0.00  0.00    +0.055 C 
ATOM      2  C   LIG    1        0.858   2.640   0.000  0.00  0.00    +0.181 C 
ATOM      3  O   LIG    1        0.070   2.765   0.000  0.00  0.00    -0.479 OA
ATOM      4  C   LIG    1        0.123   3.456   0.000  0.00  0.00    +0.224 C 
ATOM      5  C   LIG    1        1.321   4.067   0.000  0.00  0.00    +0.093 C 
ENDROOT
BRANCH   1   6
ATOM      6  N   LIG    1        2.748   3.603   0.000  0.00  0.00    -0.358 N 
ATOM      7  H   LIG    1        2.976   2.529   0.000  0.00  0.00    +0.142 HD
ATOM      8  H   LIG    1        2.345   4.265   0.000  0.00  0.00    +0.142 HD
ENDBRANCH   1   6
TORSDOF 1
REMARK  Name = molecules/CILIXQOJUNDIDU-ASQIGDHWSA-N.pdb
REMARK                            x       y       z     vdW  Elec       q    Type
REMARK                         _______ _______ _______ _____ _____    ______ ____
ROOT
ATOM      1  N   LIG    1        1.861   1.525   0.000  0.00  0.00    -0.273 NA
ATOM      2  H   LIG    1        0.937   1.721   0.000  0.00  0.00    +0.137 HD
ATOM      3  H   LIG    1        2.728   1.232   0.000  0.00  0.00    +0.137 HD
ENDROOT
TORSDOF 0
REMARK  Name = molecules/CILIXQOJUNDIDU-ASQIGDHWSA-N.pdb
REMARK                            x       y       z     vdW  Elec       q    Type
REMARK                         _______ _______ _______ _____ _____    ______ ____
ROOT
ATOM      1  N   LIG    1       -0.341   2.030   0.000  0.00  0.00    -0.163 NA
ATOM      2  H   LIG    1        0.384   1.959   0.000  0.00  0.00    +0.163 HD
ENDROOT
TORSDOF 0
REMARK  Name = molecules/CILIXQOJUNDIDU-ASQIGDHWSA-N.pdb
REMARK                            x       y       z     vdW  Elec       q    Type
REMARK                         _______ _______ _______ _____ _____    ______ ____
ROOT
ATOM      1  N   LIG    1       -1.227  -0.048   0.000  0.00  0.00    +0.038 NA
ATOM      2  O   LIG    1       -0.710  -0.774   0.000  0.00  0.00    -0.278 OA
ATOM      3  H   LIG    1        0.154  -0.634   0.000  0.00  0.00    +0.240 HD
ENDROOT
TORSDOF 0
REMARK  Name = molecules/CILIXQOJUNDIDU-ASQIGDHWSA-N.pdb
REMARK                            x       y       z     vdW  Elec       q    Type
REMARK                         _______ _______ _______ _____ _____    ______ ____
ROOT
ATOM      1  C   LIG    1       -6.122  -2.978   0.000  0.00  0.00    +0.175 C 
ATOM      2  O   LIG    1       -7.548  -2.514   0.000  0.00  0.00    -0.230 OA
ATOM      3  C   LIG    1       -6.585  -4.405   0.000  0.00  0.00    +0.043 C 
ENDROOT
BRANCH   1   5
ATOM      4  N   LIG    1       -4.232  -2.015   0.000  0.00  0.00    -0.135 NA
ATOM      5  C   LIG    1       -5.658  -1.552   0.000  0.00  0.00    +0.147 C 
ENDBRANCH   1   5
TORSDOF 1
REMARK  Name = molecules/CILIXQOJUNDIDU-ASQIGDHWSA-N.pdb
REMARK                            x       y       z     vdW  Elec       q    Type
REMARK                         _______ _______ _______ _____ _____    ______ ____
ROOT
ATOM      1  N   LIG    1       -3.728   0.187   0.000  0.00  0.00    -0.136 NA
ATOM      2  C   LIG    1       -3.117  -1.011   0.000  0.00  0.00    +0.136 C 
ENDROOT
TORSDOF 0
REMARK  Name = molecules/CILIXQOJUNDIDU-ASQIGDHWSA-N.pdb
REMARK                            x       y       z     vdW  Elec       q    Type
REMARK                         _______ _______ _______ _____ _____    ______ ____
ROOT
ATOM      1  N   LIG    1       -5.003   3.544   0.000  0.00  0.00    -0.300 NA
ATOM      2  H   LIG    1       -3.935   3.151   0.000  0.00  0.00    +0.123 HD
ENDROOT
BRANCH   1   3
ATOM      3  C   LIG    1       -6.429   4.008   0.000  0.00  0.00    +0.116 C 
ATOM      4  C   LIG    1       -6.893   2.581   0.000  0.00  0.00    +0.020 C 
BRANCH   3   5
ATOM      5  C   LIG    1       -5.965   5.434   0.000  0.00  0.00    +0.254 C 
ATOM      6  N   LIG    1       -4.498   5.746   0.000  0.00  0.00    -0.096 NA
BRANCH   5   7
ATOM      7  O   LIG    1       -6.445   6.504   0.000  0.00  0.00    -0.171 OA
ATOM      8  O   LIG    1       -7.302   6.115   0.000  0.00  0.00    -0.033 OA
ENDBRANCH   5   7
ENDBRANCH   3   5
ENDBRANCH   1   3
BRANCH   1   9
ATOM      9  C   LIG    1       -5.466   2.118   0.000  0.00  0.00    +0.068 C 
BRANCH   9  10
ATOM     10  C   LIG    1       -4.691   2.077   0.000  0.00  0.00    +0.052 C 
BRANCH  10  11
ATOM     11  C   LIG    1       -4.039   1.654   0.000  0.00  0.00    -0.038 C 
ATOM     12  C   LIG    1       -3.264   1.614   0.000  0.00  0.00    +0.004 C 
ENDBRANCH  10  11
ENDBRANCH   9  10
ENDBRANCH   1   9
TORSDOF 6
REMARK  Name = molecules/CILIXQOJUNDIDU-ASQIGDHWSA-N.pdb
REMARK                            x       y       z     vdW  Elec       q    Type
REMARK                         _______ _______ _______ _____ _____    ______ ____
ROOT
ATOM      1  N   ASP A  1       -5.773   9.104   0.000  0.00  0.00    -0.136 NA
ATOM      2  CA  ASP A  1       -7.200   9.567   0.000  0.00  0.00    +0.145 C 
ENDROOT
BRANCH   2   3
ATOM      3  C   ASP A  1       -7.663   8.141   0.000  0.00  0.00    +0.195 C 
ATOM      4  O   ASP A  1       -9.131   7.829   0.000  0.00  0.00    -0.219 OA
ENDBRANCH   2   3
BRANCH   2   5
ATOM      5  CB  ASP A  1       -6.736  10.994   0.000  0.00  0.00    +0.150 C 
BRANCH   5   6
ATOM      6  CG  ASP A  1       -6.273  12.420   0.000  0.00  0.00    +0.358 C 
ATOM      7  OD2 ASP A  1       -4.806  12.732   0.000  0.00  0.00    -0.246 OA
ATOM      8  OD1 ASP A  1       -7.277  13.535   0.000  0.00  0.00    -0.246 OA
ENDBRANCH   5   6
ENDBRANCH   2   5
TORSDOF 3
REMARK  Name = molecules/CILIXQOJUNDIDU-ASQIGDHWSA-N.pdb
REMARK                            x       y       z     vdW  Elec       q    Type
REMARK                         _______ _______ _______ _____ _____    ______ ____
ROOT
ATOM      1  O   LIG    1       -6.660   7.026   0.000  0.00  0.00    -0.225 OA
ATOM      2  C   LIG    1       -5.461   7.636   0.000  0.00  0.00    +0.225 C 
ENDROOT
TORSDOF 0
REMARK  Name = molecules/CILIXQOJUNDIDU-ASQIGDHWSA-N.pdb
REMARK                            x       y       z     vdW  Elec       q    Type
REMARK                         _______ _______ _______ _____ _____    ______ ____
ROOT
ATOM      1  C   LIG    1       72.616  31.625   0.000  0.00  0.00    +0.000 C 
ENDROOT
TORSDOF 0
REMARK  Name = molecules/CILIXQOJUNDIDU-ASQIGDHWSA-N.pdb
REMARK                            x       y       z     vdW  Elec       q    Type
REMARK                         _______ _______ _______ _____ _____    ______ ____
ROOT
ATOM      1  O   HOH    1       67.172  38.491   0.000  0.00  0.00    -0.410 OA
ATOM      2  H   HOH    0       66.903  37.806   0.000  0.00  0.00    +0.205 HD
ATOM      3  H   HOH    0       67.337  39.649   0.000  0.00  0.00    +0.205 HD
ENDROOT
TORSDOF 0
REMARK  Name = molecules/CILIXQOJUNDIDU-ASQIGDHWSA-N.pdb
REMARK                            x       y       z     vdW  Elec       q    Type
REMARK                         _______ _______ _______ _____ _____    ______ ____
ROOT
ATOM      1  O   HOH    1       65.483  33.942   0.000  0.00  0.00    -0.410 OA
ATOM      2  H   HOH    0       64.770  34.127   0.000  0.00  0.00    +0.205 HD
ATOM      3  H   HOH    0       66.028  34.813   0.000  0.00  0.00    +0.205 HD
ENDROOT
TORSDOF 0
REMARK  Name = molecules/CILIXQOJUNDIDU-ASQIGDHWSA-N.pdb
REMARK                            x       y       z     vdW  Elec       q    Type
REMARK                         _______ _______ _______ _____ _____    ______ ____
ROOT
ATOM      1  C   LIG    1       61.122  33.782   0.000  0.00  0.00    +0.000 C 
ENDROOT
TORSDOF 0
REMARK  Name = molecules/CILIXQOJUNDIDU-ASQIGDHWSA-N.pdb
REMARK                            x       y       z     vdW  Elec       q    Type
REMARK                         _______ _______ _______ _____ _____    ______ ____
ROOT
ATOM      1  O   HOH    1       60.810  35.249   0.000  0.00  0.00    -0.410 OA
ATOM      2  H   HOH    0       62.008  35.860   0.000  0.00  0.00    +0.205 HD
ATOM      3  H   HOH    0       60.541  34.564   0.000  0.00  0.00    +0.205 HD
ENDROOT
TORSDOF 0
REMARK  Name = molecules/CILIXQOJUNDIDU-ASQIGDHWSA-N.pdb
REMARK                            x       y       z     vdW  Elec       q    Type
REMARK                         _______ _______ _______ _____ _____    ______ ____
ROOT
ATOM      1  C   LIG    1       58.117  31.815   0.000  0.00  0.00    +0.000 C 
ENDROOT
TORSDOF 0
REMARK  Name = molecules/CILIXQOJUNDIDU-ASQIGDHWSA-N.pdb
REMARK                            x       y       z     vdW  Elec       q    Type
REMARK                         _______ _______ _______ _____ _____    ______ ____
ROOT
ATOM      1  O   LIG    1       59.121  30.701   0.000  0.00  0.00    -0.253 OA
ATOM      2  H   LIG    1       58.408  30.885   0.000  0.00  0.00    +0.253 HD
ENDROOT
BRANCH   1   3
ATOM      3  O   LIG    1       60.154  30.153   0.000  0.00  0.00    -0.253 OA
ATOM      4  H   LIG    1       60.319  31.311   0.000  0.00  0.00    +0.253 HD
ENDBRANCH   1   3
TORSDOF 1
REMARK  Name = molecules/CILIXQOJUNDIDU-ASQIGDHWSA-N.pdb
REMARK                            x       y       z     vdW  Elec       q    Type
REMARK                         _______ _______ _______ _____ _____    ______ ____
ROOT
ATOM      1  O   HOH    1       54.629  32.035   0.000  0.00  0.00    -0.410 OA
ATOM      2  H   HOH    0       55.646  32.618   0.000  0.00  0.00    +0.205 HD
ATOM      3  H   HOH    0       54.178  31.322   0.000  0.00  0.00    +0.205 HD
ENDROOT
TORSDOF 0
REMARK  Name = molecules/CILIXQOJUNDIDU-ASQIGDHWSA-N.pdb
REMARK                            x       y       z     vdW  Elec       q    Type
REMARK                         _______ _______ _______ _____ _____    ______ ____
ROOT
ATOM      1  O   HOH    1       52.887  27.590   0.000  0.00  0.00    -0.410 OA
ATOM      2  H   HOH    0       53.957  28.069   0.000  0.00  0.00    +0.205 HD
ATOM      3  H   HOH    0       52.046  27.644   0.000  0.00  0.00    +0.205 HD
ENDROOT
TORSDOF 0
REMARK  Name = molecules/CILIXQOJUNDIDU-ASQIGDHWSA-N.pdb
REMARK                            x       y       z     vdW  Elec       q    Type
REMARK                         _______ _______ _______ _____ _____    ______ ____
ROOT
ATOM      1  O   HOH    1       48.086  28.766   0.000  0.00  0.00    -0.410 OA
ATOM      2  H   HOH    0       49.111  28.695   0.000  0.00  0.00    +0.205 HD
ATOM      3  H   HOH    0       47.816  28.081   0.000  0.00  0.00    +0.205 HD
ENDROOT
TORSDOF 0
REMARK  Name = molecules/CILIXQOJUNDIDU-ASQIGDHWSA-N.pdb
REMARK                            x       y       z     vdW  Elec       q    Type
REMARK                         _______ _______ _______ _____ _____    ______ ____
ROOT
ATOM      1  O   HOH    1       46.525  24.348   0.000  0.00  0.00    -0.410 OA
ATOM      2  H   HOH    0       47.595  24.828   0.000  0.00  0.00    +0.205 HD
ATOM      3  H   HOH    0       45.684  24.402   0.000  0.00  0.00    +0.205 HD
ENDROOT
TORSDOF 0
REMARK  Name = molecules/CILIXQOJUNDIDU-ASQIGDHWSA-N.pdb
REMARK                            x       y       z     vdW  Elec       q    Type
REMARK                         _______ _______ _______ _____ _____    ______ ____
ROOT
ATOM      1  O   HOH    1       44.425  21.703   0.000  0.00  0.00    -0.253 OA
ATOM      2  H   HOH    0       43.176  22.121   0.000  0.00  0.00    +0.253 HD
ENDROOT
TORSDOF 0
REMARK  Name = molecules/CILIXQOJUNDIDU-ASQIGDHWSA-N.pdb
REMARK                            x       y       z     vdW  Elec       q    Type
REMARK                         _______ _______ _______ _____ _____    ______ ____
ROOT
ATOM      1  C   LIG    1       46.315  22.666   0.000  0.00  0.00    +0.013 C 
ATOM      2  C   LIG    1       44.889  23.130   0.000  0.00  0.00    -0.013 C 
ENDROOT
TORSDOF 0
REMARK  Name = molecules/CILIXQOJUNDIDU-ASQIGDHWSA-N.pdb
REMARK                            x       y       z     vdW  Elec       q    Type
REMARK                         _______ _______ _______ _____ _____    ______ ____
ROOT
ATOM      1  O   HOH    1       42.088  25.556   0.000  0.00  0.00    -0.410 OA
ATOM      2  H   HOH    0       41.918  26.265   0.000  0.00  0.00    +0.205 HD
ATOM      3  H   HOH    0       42.732  25.514   0.000  0.00  0.00    +0.205 HD
ENDROOT
TORSDOF 0
REMARK  Name = molecules/CILIXQOJUNDIDU-ASQIGDHWSA-N.pdb
REMARK                            x       y       z     vdW  Elec       q    Type
REMARK                         _______ _______ _______ _____ _____    ______ ____
ROOT
ATOM      1  O   HOH    1       40.163  21.106   0.000  0.00  0.00    -0.410 OA
ATOM      2  H   HOH    0       41.233  21.586   0.000  0.00  0.00    +0.205 HD
ATOM      3  H   HOH    0       39.322  21.160   0.000  0.00  0.00    +0.205 HD
ENDROOT
TORSDOF 0
REMARK  Name = molecules/CILIXQOJUNDIDU-ASQIGDHWSA-N.pdb
REMARK                            x       y       z     vdW  Elec       q    Type
REMARK                         _______ _______ _______ _____ _____    ______ ____
ROOT
ATOM      1  O   LIG    1       35.362  22.282   0.000  0.00  0.00    -0.253 OA
ATOM      2  H   LIG    1       35.092  21.597   0.000  0.00  0.00    +0.253 HD
ENDROOT
BRANCH   1   3
ATOM      3  O   LIG    1       35.526  23.440   0.000  0.00  0.00    -0.253 OA
ATOM      4  H   LIG    1       36.560  22.893   0.000  0.00  0.00    +0.253 HD
ENDBRANCH   1   3
TORSDOF 1
REMARK  Name = molecules/CILIXQOJUNDIDU-ASQIGDHWSA-N.pdb
REMARK                            x       y       z     vdW  Elec       q    Type
REMARK                         _______ _______ _______ _____ _____    ______ ____
ROOT
ATOM      1  O   LIG    1       33.672  17.734   0.000  0.00  0.00    -0.253 OA
ATOM      2  H   LIG    1       32.959  17.919   0.000  0.00  0.00    +0.253 HD
ENDROOT
BRANCH   1   3
ATOM      3  O   LIG    1       34.706  17.187   0.000  0.00  0.00    -0.253 OA
ATOM      4  H   LIG    1       34.871  18.344   0.000  0.00  0.00    +0.253 HD
ENDBRANCH   1   3
TORSDOF 1
REMARK  Name = molecules/CILIXQOJUNDIDU-ASQIGDHWSA-N.pdb
REMARK                            x       y       z     vdW  Elec       q    Type
REMARK                         _______ _______ _______ _____ _____    ______ ____
ROOT
ATOM      1  C   LIG    1       29.311  17.574   0.000  0.00  0.00    +0.000 C 
ENDROOT
TORSDOF 0
REMARK  Name = molecules/CILIXQOJUNDIDU-ASQIGDHWSA-N.pdb
REMARK                            x       y       z     vdW  Elec       q    Type
REMARK                         _______ _______ _______ _____ _____    ______ ____
ROOT
ATOM      1  O   HOH    1       29.181  19.068   0.000  0.00  0.00    -0.410 OA
ATOM      2  H   HOH    0       28.730  18.355   0.000  0.00  0.00    +0.205 HD
ATOM      3  H   HOH    0       30.198  19.651   0.000  0.00  0.00    +0.205 HD
ENDROOT
TORSDOF 0
REMARK  Name = molecules/CILIXQOJUNDIDU-ASQIGDHWSA-N.pdb
REMARK                            x       y       z     vdW  Elec       q    Type
REMARK                         _______ _______ _______ _____ _____    ______ ____
ROOT
ATOM      1  O   HOH    1       27.310  14.492   0.000  0.00  0.00    -0.410 OA
ATOM      2  H   HOH    0       26.597  14.677   0.000  0.00  0.00    +0.205 HD
ATOM      3  H   HOH    0       28.508  15.103   0.000  0.00  0.00    +0.205 HD
ENDROOT
TORSDOF 0
REMARK  Name = molecules/CILIXQOJUNDIDU-ASQIGDHWSA-N.pdb
REMARK                            x       y       z     vdW  Elec       q    Type
REMARK                         _______ _______ _______ _____ _____    ______ ____
ROOT
ATOM      1  C   LIG    1       22.949  14.332   0.000  0.00  0.00    +0.000 C 
ENDROOT
TORSDOF 0
REMARK  Name = molecules/CILIXQOJUNDIDU-ASQIGDHWSA-N.pdb
REMARK                            x       y       z     vdW  Elec       q    Type
REMARK                         _______ _______ _______ _____ _____    ______ ____
ROOT
ATOM      1  O   HOH    1       22.637  15.799   0.000  0.00  0.00    -0.410 OA
ATOM      2  H   HOH    0       22.368  15.114   0.000  0.00  0.00    +0.205 HD
ATOM      3  H   HOH    0       23.835  16.410   0.000  0.00  0.00    +0.205 HD
ENDROOT
TORSDOF 0
REMARK  Name = molecules/CILIXQOJUNDIDU-ASQIGDHWSA-N.pdb
REMARK                            x       y       z     vdW  Elec       q    Type
REMARK                         _______ _______ _______ _____ _____    ______ ____
ROOT
ATOM      1  O   HOH    1       21.076  11.381   0.000  0.00  0.00    -0.410 OA
ATOM      2  H   HOH    0       20.235  11.435   0.000  0.00  0.00    +0.205 HD
ATOM      3  H   HOH    0       22.146  11.861   0.000  0.00  0.00    +0.205 HD
ENDROOT
TORSDOF 0
REMARK  Name = molecules/CILIXQOJUNDIDU-ASQIGDHWSA-N.pdb
REMARK                            x       y       z     vdW  Elec       q    Type
REMARK                         _______ _______ _______ _____ _____    ______ ____
ROOT
ATOM      1  C   LIG    1       16.587  11.090   0.000  0.00  0.00    +0.000 C 
ENDROOT
TORSDOF 0
REMARK  Name = molecules/CILIXQOJUNDIDU-ASQIGDHWSA-N.pdb
REMARK                            x       y       z     vdW  Elec       q    Type
REMARK                         _______ _______ _______ _____ _____    ______ ____
ROOT
ATOM      1  O   LIG    1       16.275  12.557   0.000  0.00  0.00    -0.253 OA
ATOM      2  H   LIG    1       16.006  11.872   0.000  0.00  0.00    +0.253 HD
ENDROOT
BRANCH   1   3
ATOM      3  O   LIG    1       16.440  13.715   0.000  0.00  0.00    -0.253 OA
ATOM      4  H   LIG    1       17.473  13.168   0.000  0.00  0.00    +0.253 HD
ENDBRANCH   1   3
TORSDOF 1
REMARK  Name = molecules/CILIXQOJUNDIDU-ASQIGDHWSA-N.pdb
REMARK                            x       y       z     vdW  Elec       q    Type
REMARK                         _______ _______ _______ _____ _____    ______ ____
ROOT
ATOM      1  O   HOH    1       14.586   8.009   0.000  0.00  0.00    -0.410 OA
ATOM      2  H   HOH    0       13.873   8.194   0.000  0.00  0.00    +0.205 HD
ATOM      3  H   HOH    0       15.131   8.880   0.000  0.00  0.00    +0.205 HD
ENDROOT
TORSDOF 0
REMARK  Name = molecules/CILIXQOJUNDIDU-ASQIGDHWSA-N.pdb
REMARK                            x       y       z     vdW  Elec       q    Type
REMARK                         _______ _______ _______ _____ _____    ______ ____
ROOT
ATOM      1  C   LIG    1       15.619   7.462   0.000  0.00  0.00    +0.000 C 
ENDROOT
TORSDOF 0
REMARK  Name = molecules/CILIXQOJUNDIDU-ASQIGDHWSA-N.pdb
REMARK                            x       y       z     vdW  Elec       q    Type
REMARK                         _______ _______ _______ _____ _____    ______ ____
ROOT
ATOM      1  O   HOH    1       10.094   9.343   0.000  0.00  0.00    -0.410 OA
ATOM      2  H   HOH    0        9.643   8.630   0.000  0.00  0.00    +0.205 HD
ATOM      3  H   HOH    0       11.111   9.926   0.000  0.00  0.00    +0.205 HD
ENDROOT
TORSDOF 0
REMARK  Name = molecules/CILIXQOJUNDIDU-ASQIGDHWSA-N.pdb
REMARK                            x       y       z     vdW  Elec       q    Type
REMARK                         _______ _______ _______ _____ _____    ______ ____
ROOT
ATOM      1  O   LIG    1        8.224   4.767   0.000  0.00  0.00    -0.253 OA
ATOM      2  H   LIG    1        7.511   4.952   0.000  0.00  0.00    +0.253 HD
ENDROOT
BRANCH   1   3
ATOM      3  O   LIG    1        9.257   4.220   0.000  0.00  0.00    -0.253 OA
ATOM      4  H   LIG    1        9.422   5.378   0.000  0.00  0.00    +0.253 HD
ENDBRANCH   1   3
TORSDOF 1
REMARK  Name = molecules/CILIXQOJUNDIDU-ASQIGDHWSA-N.pdb
REMARK                            x       y       z     vdW  Elec       q    Type
REMARK                         _______ _______ _______ _____ _____    ______ ____
ROOT
ATOM      1  O   LIG    1        3.551   6.074   0.000  0.00  0.00    -0.386 OA
ATOM      2  C   LIG    1        3.675   7.383   0.000  0.00  0.00    +0.176 C 
ATOM      3  H   LIG    1        3.281   5.389   0.000  0.00  0.00    +0.210 HD
ENDROOT
TORSDOF 0
REMARK  Name = molecules/CILIXQOJUNDIDU-ASQIGDHWSA-N.pdb
REMARK                            x       y       z     vdW  Elec       q    Type
REMARK                         _______ _______ _______ _____ _____    ______ ____
ROOT
ATOM      1  C   LIG    1        1.785   5.493   0.000  0.00  0.00    +0.000 C 
ENDROOT
TORSDOF 0
REMARK  Name = molecules/CILIXQOJUNDIDU-ASQIGDHWSA-N.pdb
REMARK                            x       y       z     vdW  Elec       q    Type
REMARK                         _______ _______ _______ _____ _____    ______ ____
ROOT
ATOM      1  C   LIG    1        2.248   9.347   0.000  0.00  0.00    +0.010 C 
ATOM      2  C   LIG    1        1.638  10.717   0.000  0.00  0.00    +0.018 C 
ENDROOT
BRANCH   1   3
ATOM      3  N   LIG    1        3.675   8.883   0.000  0.00  0.00    -0.361 N 
ATOM      4  H   LIG    1        3.867  10.126   0.000  0.00  0.00    +0.142 HD
ATOM      5  H   LIG    1        4.830   8.235   0.000  0.00  0.00    +0.142 HD
ENDBRANCH   1   3
BRANCH   1   7
ATOM      6  C   LIG    1        2.248   6.920   0.000  0.00  0.00    +0.006 C 
ATOM      7  C   LIG    1        1.367   8.133   0.000  0.00  0.00    +0.040 C 
ENDBRANCH   1   7
BRANCH   2   8
ATOM      8  C   LIG    1        0.146  10.874   0.000  0.00  0.00    -0.006 C 
ATOM      9  C   LIG    1       -0.735   9.661   0.000  0.00  0.00    +0.008 C 
ENDBRANCH   2   8
TORSDOF 3
REMARK  Name = molecules/CILIXQOJUNDIDU-ASQIGDHWSA-N.pdb
REMARK                            x       y       z     vdW  Elec       q    Type
REMARK                         _______ _______ _______ _____ _____    ______ ____
ROOT
ATOM      1  C   LIG    1       -0.125   8.290   0.000  0.00  0.00    +0.000 C 
ENDROOT
TORSDOF 0
REMARK  Name = molecules/CILIXQOJUNDIDU-ASQIGDHWSA-N.pdb
REMARK                            x       y       z     vdW  Elec       q    Type
REMARK                         _______ _______ _______ _____ _____    ______ ____
ROOT
ATOM      1  C   LIG    1       -0.029   0.562   0.000  0.00  0.00    -0.005 C 
ATOM      2  C   LIG    1        1.016   0.223   0.000  0.00  0.00    +0.005 C 
ENDROOT
TORSDOF 0
REMARK  Name = molecules/CILIXQOJUNDIDU-ASQIGDHWSA-N.pdb
REMARK                            x       y       z     vdW  Elec       q    Type
REMARK                         _______ _______ _______ _____ _____    ______ ____
ROOT
ATOM      1  C   LIG    1        5.678  -1.292   0.000  0.00  0.00    -0.000 C 
ENDROOT
TORSDOF 0
REMARK  Name = molecules/CILIXQOJUNDIDU-ASQIGDHWSA-N.pdb
REMARK                            x       y       z     vdW  Elec       q    Type
REMARK                         _______ _______ _______ _____ _____    ______ ____
ROOT
ATOM      1  C   LIG    1        2.825  -0.365   0.000  0.00  0.00    +0.180 C 
ATOM      2  N   LIG    1        3.869  -0.704   0.000  0.00  0.00    -0.180 NA
ENDROOT
TORSDOF 0
REMARK  Name = molecules/CILIXQOJUNDIDU-ASQIGDHWSA-N.pdb
REMARK                            x       y       z     vdW  Elec       q    Type
REMARK                         _______ _______ _______ _____ _____    ______ ____
ROOT
ATOM      1  C   LIG    1        1.398   0.099   0.000  0.00  0.00    -0.005 C 
ATOM      2  C   LIG    1        2.442  -0.240   0.000  0.00  0.00    +0.005 C 
ENDROOT
TORSDOF 0
REMARK  Name = molecules/CILIXQOJUNDIDU-ASQIGDHWSA-N.pdb
REMARK                            x       y       z     vdW  Elec       q    Type
REMARK                         _______ _______ _______ _____ _____    ______ ____
ROOT
ATOM      1  C   LIG    1        4.715   0.598   0.000  0.00  0.00    -0.000 C 
ENDROOT
TORSDOF 0
REMARK  Name = molecules/CILIXQOJUNDIDU-ASQIGDHWSA-N.pdb
REMARK                            x       y       z     vdW  Elec       q    Type
REMARK                         _______ _______ _______ _____ _____    ______ ____
ROOT
ATOM      1  C   LIG    1        4.251  -0.828   0.000  0.00  0.00    +0.000 C 
ENDROOT
TORSDOF 0
REMARK  Name = molecules/CILIXQOJUNDIDU-ASQIGDHWSA-N.pdb
REMARK                            x       y       z     vdW  Elec       q    Type
REMARK                         _______ _______ _______ _____ _____    ______ ____
ROOT
ATOM      1  C   LIG    1       -2.231   1.067   0.000  0.00  0.00    +0.000 C 
ENDROOT
TORSDOF 0
REMARK  Name = molecules/CILIXQOJUNDIDU-ASQIGDHWSA-N.pdb
REMARK                            x       y       z     vdW  Elec       q    Type
REMARK                         _______ _______ _______ _____ _____    ______ ____
ROOT
ATOM      1  C   LIG    1       -1.304   3.920   0.000  0.00  0.00    +0.000 C 
ENDROOT
TORSDOF 0
REMARK  Name = molecules/CILIXQOJUNDIDU-ASQIGDHWSA-N.pdb
REMARK                            x       y       z     vdW  Elec       q    Type
REMARK                         _______ _______ _______ _____ _____    ______ ____
ROOT
ATOM      1  C   LIG    1       -0.840   5.346   0.000  0.00  0.00    -0.004 C 
ATOM      2  C   LIG    1       -1.182   6.246   0.000  0.00  0.00    +0.004 C 
ENDROOT
TORSDOF 0
REMARK  Name = molecules/CILIXQOJUNDIDU-ASQIGDHWSA-N.pdb
REMARK                            x       y       z     vdW  Elec       q    Type
REMARK                         _______ _______ _______ _____ _____    ______ ____
ROOT
ATOM      1  C   LIG    1       -1.767   2.493   0.000  0.00  0.00    +0.005 C 
ATOM      2  C   LIG    1       -1.837   1.150   0.000  0.00  0.00    -0.005 C 
ENDROOT
TORSDOF 0
REMARK  Name = molecules/CILIXQOJUNDIDU-ASQIGDHWSA-N.pdb
REMARK                            x       y       z     vdW  Elec       q    Type
REMARK                         _______ _______ _______ _____ _____    ______ ____
ROOT
ATOM      1  O   LIG    1       -3.712   1.301   0.000  0.00  0.00    +0.000 OA
ATOM      2  O   LIG    1       -3.248   0.483   0.000  0.00  0.00    +0.000 OA
ENDROOT
TORSDOF 0
REMARK  Name = molecules/CILIXQOJUNDIDU-ASQIGDHWSA-N.pdb
REMARK                            x       y       z     vdW  Elec       q    Type
REMARK                         _______ _______ _______ _____ _____    ______ ____
ROOT
ATOM      1  C   LIG    1       -0.264  -1.938   0.000  0.00  0.00    +0.000 C 
ENDROOT
TORSDOF 0
REMARK  Name = molecules/CILIXQOJUNDIDU-ASQIGDHWSA-N.pdb
REMARK                            x       y       z     vdW  Elec       q    Type
REMARK                         _______ _______ _______ _____ _____    ______ ____
ROOT
ATOM      1  C   LIG    1        1.163  -2.402   0.000  0.00  0.00    +0.000 C 
ENDROOT
TORSDOF 0
REMARK  Name = molecules/CILIXQOJUNDIDU-ASQIGDHWSA-N.pdb
REMARK                            x       y       z     vdW  Elec       q    Type
REMARK                         _______ _______ _______ _____ _____    ______ ____
ROOT
ATOM      1  C   LIG    1        2.589  -2.865   0.000  0.00  0.00    +0.000 C 
ENDROOT
TORSDOF 0
REMARK  Name = molecules/CILIXQOJUNDIDU-ASQIGDHWSA-N.pdb
REMARK                            x       y       z     vdW  Elec       q    Type
REMARK                         _______ _______ _______ _____ _____    ______ ____
ROOT
ATOM      1  N   LIG    1        2.901  -4.333   0.000  0.00  0.00    +0.000 NA
ENDROOT
TORSDOF 0
REMARK  Name = molecules/CILIXQOJUNDIDU-ASQIGDHWSA-N.pdb
REMARK                            x       y       z     vdW  Elec       q    Type
REMARK                         _______ _______ _______ _____ _____    ______ ____
ROOT
ATOM      1  O   HOH    1        3.914  -2.161   0.000  0.00  0.00    -0.253 OA
ATOM      2  H   HOH    0        5.214  -2.718   0.000  0.00  0.00    +0.253 HD
ENDROOT
TORSDOF 0
REMARK  Name = molecules/CILIXQOJUNDIDU-ASQIGDHWSA-N.pdb
REMARK                            x       y       z     vdW  Elec       q    Type
REMARK                         _______ _______ _______ _____ _____    ______ ____
ROOT
ATOM      1  C   LIG    1       -1.690  -1.475   0.000  0.00  0.00    -0.000 C 
ENDROOT
TORSDOF 0
REMARK  Name = molecules/CILIXQOJUNDIDU-ASQIGDHWSA-N.pdb
REMARK                            x       y       z     vdW  Elec       q    Type
REMARK                         _______ _______ _______ _____ _____    ______ ____
ROOT
ATOM      1  C   LIG    1       -5.195  -0.125   0.000  0.00  0.00    +0.000 C 
ENDROOT
TORSDOF 0
REMARK  Name = molecules/CILIXQOJUNDIDU-ASQIGDHWSA-N.pdb
REMARK                            x       y       z     vdW  Elec       q    Type
REMARK                         _______ _______ _______ _____ _____    ______ ____
ROOT
ATOM      1  O   LIG    1       -6.327   0.859   0.000  0.00  0.00    -0.221 OA
ATOM      2  C   LIG    1       -7.356   1.155   0.000  0.00  0.00    +0.217 C 
ENDROOT
BRANCH   1   3
ATOM      3  O   LIG    1       -5.675   0.945   0.000  0.00  0.00    -0.249 OA
ATOM      4  H   LIG    1       -5.119   0.612   0.000  0.00  0.00    +0.253 HD
ENDBRANCH   1   3
TORSDOF 1
REMARK  Name = molecules/CILIXQOJUNDIDU-ASQIGDHWSA-N.pdb
REMARK                            x       y       z     vdW  Elec       q    Type
REMARK                         _______ _______ _______ _____ _____    ______ ____
ROOT
ATOM      1  C   LIG    1       -0.411   0.686   0.000  0.00  0.00    +0.000 C 
ENDROOT
TORSDOF 0
REMARK  Name = molecules/CILIXQOJUNDIDU-ASQIGDHWSA-N.pdb
REMARK                            x       y       z     vdW  Elec       q    Type
REMARK                         _______ _______ _______ _____ _____    ______ ____
ROOT
ATOM      1  O   HOH    1       -2.145   8.136   0.000  0.00  0.00    +0.000 OA
ENDROOT
TORSDOF 0
REMARK  Name = molecules/CILIXQOJUNDIDU-ASQIGDHWSA-N.pdb
REMARK                            x       y       z     vdW  Elec       q    Type
REMARK                         _______ _______ _______ _____ _____    ______ ____
ROOT
ATOM      1  C   LIG    1       -4.035   7.173   0.000  0.00  0.00    +0.000 C 
ENDROOT
TORSDOF 0
REMARK  Name = molecules/CILIXQOJUNDIDU-ASQIGDHWSA-N.pdb
REMARK                            x       y       z     vdW  Elec       q    Type
REMARK                         _______ _______ _______ _____ _____    ______ ____
ROOT
ATOM      1  C   LIG    1       -2.608   6.709   0.000  0.00  0.00    +0.000 C 
ENDROOT
TORSDOF 0
REMARK  Name = molecules/CILIXQOJUNDIDU-ASQIGDHWSA-N.pdb
REMARK                            x       y       z     vdW  Elec       q    Type
REMARK                         _______ _______ _______ _____ _____    ______ ____
ROOT
ATOM      1  H   UNK    1       67.103  26.636   0.000  0.00  0.00    +0.000 HD
ENDROOT
TORSDOF 0
REMARK  Name = molecules/CILIXQOJUNDIDU-ASQIGDHWSA-N.pdb
REMARK                            x       y       z     vdW  Elec       q    Type
REMARK                         _______ _______ _______ _____ _____    ______ ____
ROOT
ATOM      1  H   UNK    1       67.843  28.915   0.000  0.00  0.00    +0.000 HD
ENDROOT
TORSDOF 0
REMARK  Name = molecules/CILIXQOJUNDIDU-ASQIGDHWSA-N.pdb
REMARK                            x       y       z     vdW  Elec       q    Type
REMARK                         _______ _______ _______ _____ _____    ______ ____
ROOT
ATOM      1  H   UNK    1       72.693  27.657   0.000  0.00  0.00    +0.000 HD
ENDROOT
TORSDOF 0
REMARK  Name = molecules/CILIXQOJUNDIDU-ASQIGDHWSA-N.pdb
REMARK                            x       y       z     vdW  Elec       q    Type
REMARK                         _______ _______ _______ _____ _____    ______ ____
ROOT
ATOM      1  H   UNK    1       70.145  32.427   0.000  0.00  0.00    +0.000 HD
ENDROOT
TORSDOF 0
REMARK  Name = molecules/CILIXQOJUNDIDU-ASQIGDHWSA-N.pdb
REMARK                            x       y       z     vdW  Elec       q    Type
REMARK                         _______ _______ _______ _____ _____    ______ ____
ROOT
ATOM      1  H   UNK    1       71.452  37.100   0.000  0.00  0.00    +0.000 HD
ENDROOT
TORSDOF 0
REMARK  Name = molecules/CILIXQOJUNDIDU-ASQIGDHWSA-N.pdb
REMARK                            x       y       z     vdW  Elec       q    Type
REMARK                         _______ _______ _______ _____ _____    ______ ____
ROOT
ATOM      1  H   UNK    1       43.065  26.249   0.000  0.00  0.00    +0.000 HD
ENDROOT
TORSDOF 0
REMARK  Name = molecules/CILIXQOJUNDIDU-ASQIGDHWSA-N.pdb
REMARK                            x       y       z     vdW  Elec       q    Type
REMARK                         _______ _______ _______ _____ _____    ______ ____
ROOT
ATOM      1  H   UNK    1        3.406   2.255   0.000  0.00  0.00    +0.000 HD
ENDROOT
TORSDOF 0
REMARK  Name = molecules/CILIXQOJUNDIDU-ASQIGDHWSA-N.pdb
REMARK                            x       y       z     vdW  Elec       q    Type
REMARK                         _______ _______ _______ _____ _____    ______ ____
ROOT
ATOM      1  H   UNK    1        3.280   2.014   0.000  0.00  0.00    +0.000 HD
ENDROOT
TORSDOF 0
REMARK  Name = molecules/CILIXQOJUNDIDU-ASQIGDHWSA-N.pdb
REMARK                            x       y       z     vdW  Elec       q    Type
REMARK                         _______ _______ _______ _____ _____    ______ ____
ROOT
ATOM      1  H   UNK    1       -3.743  -3.433   0.000  0.00  0.00    +0.000 HD
ENDROOT
TORSDOF 0
REMARK  Name = molecules/CILIXQOJUNDIDU-ASQIGDHWSA-N.pdb
REMARK                            x       y       z     vdW  Elec       q    Type
REMARK                         _______ _______ _______ _____ _____    ______ ____
ROOT
ATOM      1  H   UNK    1       -3.774   4.405   0.000  0.00  0.00    +0.000 HD
ENDROOT
TORSDOF 0
REMARK  Name = molecules/CILIXQOJUNDIDU-ASQIGDHWSA-N.pdb
REMARK                            x       y       z     vdW  Elec       q    Type
REMARK                         _______ _______ _______ _____ _____    ______ ____
ROOT
ATOM      1  H   UNK    1       -3.638   4.518   0.000  0.00  0.00    +0.000 HD
ENDROOT
TORSDOF 0
REMARK  Name = molecules/CILIXQOJUNDIDU-ASQIGDHWSA-N.pdb
REMARK                            x       y       z     vdW  Elec       q    Type
REMARK                         _______ _______ _______ _____ _____    ______ ____
ROOT
ATOM      1  H   UNK    1       -4.545   9.964   0.000  0.00  0.00    +0.000 HD
ENDROOT
TORSDOF 0
REMARK  Name = molecules/CILIXQOJUNDIDU-ASQIGDHWSA-N.pdb
REMARK                            x       y       z     vdW  Elec       q    Type
REMARK                         _______ _______ _______ _____ _____    ______ ____
ROOT
ATOM      1  H   UNK    1       69.295  20.326   0.000  0.00  0.00    +0.000 HD
ENDROOT
TORSDOF 0
REMARK  Name = molecules/CILIXQOJUNDIDU-ASQIGDHWSA-N.pdb
REMARK                            x       y       z     vdW  Elec       q    Type
REMARK                         _______ _______ _______ _____ _____    ______ ____
ROOT
ATOM      1  H   UNK    1       77.470  33.779   0.000  0.00  0.00    +0.000 HD
ENDROOT
TORSDOF 0
REMARK  Name = molecules/CILIXQOJUNDIDU-ASQIGDHWSA-N.pdb
REMARK                            x       y       z     vdW  Elec       q    Type
REMARK                         _______ _______ _______ _____ _____    ______ ____
ROOT
ATOM      1  H   UNK    1       58.504  37.210   0.000  0.00  0.00    +0.000 HD
ENDROOT
TORSDOF 0
REMARK  Name = molecules/CILIXQOJUNDIDU-ASQIGDHWSA-N.pdb
REMARK                            x       y       z     vdW  Elec       q    Type
REMARK                         _______ _______ _______ _____ _____    ______ ____
ROOT
ATOM      1  H   UNK    1       61.581  29.690   0.000  0.00  0.00    +0.000 HD
ENDROOT
TORSDOF 0
REMARK  Name = molecules/CILIXQOJUNDIDU-ASQIGDHWSA-N.pdb
REMARK                            x       y       z     vdW  Elec       q    Type
REMARK                         _______ _______ _______ _____ _____    ______ ____
ROOT
ATOM      1  H   UNK    1       55.540  36.018   0.000  0.00  0.00    +0.000 HD
ENDROOT
TORSDOF 0
REMARK  Name = molecules/CILIXQOJUNDIDU-ASQIGDHWSA-N.pdb
REMARK                            x       y       z     vdW  Elec       q    Type
REMARK                         _______ _______ _______ _____ _____    ______ ____
ROOT
ATOM      1  H   UNK    1       48.714  31.350   0.000  0.00  0.00    +0.000 HD
ENDROOT
TORSDOF 0
REMARK  Name = molecules/CILIXQOJUNDIDU-ASQIGDHWSA-N.pdb
REMARK                            x       y       z     vdW  Elec       q    Type
REMARK                         _______ _______ _______ _____ _____    ______ ____
ROOT
ATOM      1  H   UNK    1       45.286  20.475   0.000  0.00  0.00    +0.000 HD
ENDROOT
TORSDOF 0
REMARK  Name = molecules/CILIXQOJUNDIDU-ASQIGDHWSA-N.pdb
REMARK                            x       y       z     vdW  Elec       q    Type
REMARK                         _______ _______ _______ _____ _____    ______ ____
ROOT
ATOM      1  H   UNK    1       33.519  25.670   0.000  0.00  0.00    +0.000 HD
ENDROOT
TORSDOF 0
REMARK  Name = molecules/CILIXQOJUNDIDU-ASQIGDHWSA-N.pdb
REMARK                            x       y       z     vdW  Elec       q    Type
REMARK                         _______ _______ _______ _____ _____    ______ ____
ROOT
ATOM      1  H   UNK    1       35.330  14.252   0.000  0.00  0.00    +0.000 HD
ENDROOT
TORSDOF 0
REMARK  Name = molecules/CILIXQOJUNDIDU-ASQIGDHWSA-N.pdb
REMARK                            x       y       z     vdW  Elec       q    Type
REMARK                         _______ _______ _______ _____ _____    ______ ____
ROOT
ATOM      1  H   UNK    1       32.788  13.712   0.000  0.00  0.00    +0.000 HD
ENDROOT
TORSDOF 0
REMARK  Name = molecules/CILIXQOJUNDIDU-ASQIGDHWSA-N.pdb
REMARK                            x       y       z     vdW  Elec       q    Type
REMARK                         _______ _______ _______ _____ _____    ______ ____
ROOT
ATOM      1  H   UNK    1       27.229  12.941   0.000  0.00  0.00    +0.000 HD
ENDROOT
TORSDOF 0
REMARK  Name = molecules/CILIXQOJUNDIDU-ASQIGDHWSA-N.pdb
REMARK                            x       y       z     vdW  Elec       q    Type
REMARK                         _______ _______ _______ _____ _____    ______ ____
ROOT
ATOM      1  H   UNK    1       24.032   7.305   0.000  0.00  0.00    +0.000 HD
ENDROOT
TORSDOF 0
REMARK  Name = molecules/CILIXQOJUNDIDU-ASQIGDHWSA-N.pdb
REMARK                            x       y       z     vdW  Elec       q    Type
REMARK                         _______ _______ _______ _____ _____    ______ ____
ROOT
ATOM      1  H   UNK    1       23.096  11.707   0.000  0.00  0.00    +0.000 HD
ENDROOT
TORSDOF 0
REMARK  Name = molecules/CILIXQOJUNDIDU-ASQIGDHWSA-N.pdb
REMARK                            x       y       z     vdW  Elec       q    Type
REMARK                         _______ _______ _______ _____ _____    ______ ____
ROOT
ATOM      1  H   UNK    1       27.376  10.316   0.000  0.00  0.00    +0.000 HD
ENDROOT
TORSDOF 0
REMARK  Name = molecules/CILIXQOJUNDIDU-ASQIGDHWSA-N.pdb
REMARK                            x       y       z     vdW  Elec       q    Type
REMARK                         _______ _______ _______ _____ _____    ______ ____
ROOT
ATOM      1  H   UNK    1       14.432  15.944   0.000  0.00  0.00    +0.000 HD
ENDROOT
TORSDOF 0
REMARK  Name = molecules/CILIXQOJUNDIDU-ASQIGDHWSA-N.pdb
REMARK                            x       y       z     vdW  Elec       q    Type
REMARK                         _______ _______ _______ _____ _____    ______ ____
ROOT
ATOM      1  H   UNK    1        9.881   1.286   0.000  0.00  0.00    +0.000 HD
ENDROOT
TORSDOF 0
REMARK  Name = molecules/CILIXQOJUNDIDU-ASQIGDHWSA-N.pdb
REMARK                            x       y       z     vdW  Elec       q    Type
REMARK                         _______ _______ _______ _____ _____    ______ ____
ROOT
ATOM      1  H   UNK    1        7.340   0.745   0.000  0.00  0.00    +0.000 HD
ENDROOT
TORSDOF 0
REMARK  Name = molecules/CILIXQOJUNDIDU-ASQIGDHWSA-N.pdb
REMARK                            x       y       z     vdW  Elec       q    Type
REMARK                         _______ _______ _______ _____ _____    ______ ____
ROOT
ATOM      1  H   UNK    1        0.312   5.779   0.000  0.00  0.00    +0.000 HD
ENDROOT
TORSDOF 0
REMARK  Name = molecules/CILIXQOJUNDIDU-ASQIGDHWSA-N.pdb
REMARK                            x       y       z     vdW  Elec       q    Type
REMARK                         _______ _______ _______ _____ _____    ______ ____
ROOT
ATOM      1  H   UNK    1        5.349   1.958   0.000  0.00  0.00    +0.000 HD
ENDROOT
TORSDOF 0
REMARK  Name = molecules/CILIXQOJUNDIDU-ASQIGDHWSA-N.pdb
REMARK                            x       y       z     vdW  Elec       q    Type
REMARK                         _______ _______ _______ _____ _____    ______ ____
ROOT
ATOM      1  H   UNK    1        3.549   1.542   0.000  0.00  0.00    +0.000 HD
ENDROOT
TORSDOF 0
REMARK  Name = molecules/CILIXQOJUNDIDU-ASQIGDHWSA-N.pdb
REMARK                            x       y       z     vdW  Elec       q    Type
REMARK                         _______ _______ _______ _____ _____    ______ ____
ROOT
ATOM      1  H   UNK    1        4.147  -2.325   0.000  0.00  0.00    +0.000 HD
ENDROOT
TORSDOF 0
REMARK  Name = molecules/CILIXQOJUNDIDU-ASQIGDHWSA-N.pdb
REMARK                            x       y       z     vdW  Elec       q    Type
REMARK                         _______ _______ _______ _____ _____    ______ ____
ROOT
ATOM      1  H   UNK    1       -3.039   3.288   0.000  0.00  0.00    +0.000 HD
ENDROOT
TORSDOF 0
REMARK  Name = molecules/CILIXQOJUNDIDU-ASQIGDHWSA-N.pdb
REMARK                            x       y       z     vdW  Elec       q    Type
REMARK                         _______ _______ _______ _____ _____    ______ ____
ROOT
ATOM      1  H   UNK    1        0.606   1.827   0.000  0.00  0.00    +0.000 HD
ENDROOT
TORSDOF 0
REMARK  Name = molecules/CILIXQOJUNDIDU-ASQIGDHWSA-N.pdb
REMARK                            x       y       z     vdW  Elec       q    Type
REMARK                         _______ _______ _______ _____ _____    ______ ____
ROOT
ATOM      1  H   UNK    1       -0.727  -3.365   0.000  0.00  0.00    +0.000 HD
ENDROOT
TORSDOF 0
REMARK  Name = molecules/CILIXQOJUNDIDU-ASQIGDHWSA-N.pdb
REMARK                            x       y       z     vdW  Elec       q    Type
REMARK                         _______ _______ _______ _____ _____    ______ ____
ROOT
ATOM      1  H   UNK    1        0.699  -3.828   0.000  0.00  0.00    +0.000 HD
ENDROOT
TORSDOF 0
REMARK  Name = molecules/CILIXQOJUNDIDU-ASQIGDHWSA-N.pdb
REMARK                            x       y       z     vdW  Elec       q    Type
REMARK                         _______ _______ _______ _____ _____    ______ ____
ROOT
ATOM      1  H   UNK    1        4.328  -4.796   0.000  0.00  0.00    +0.000 HD
ENDROOT
TORSDOF 0
REMARK  Name = molecules/CILIXQOJUNDIDU-ASQIGDHWSA-N.pdb
REMARK                            x       y       z     vdW  Elec       q    Type
REMARK                         _______ _______ _______ _____ _____    ______ ____
ROOT
ATOM      1  H   UNK    1        1.786  -5.336   0.000  0.00  0.00    +0.000 HD
ENDROOT
TORSDOF 0
REMARK  Name = molecules/CILIXQOJUNDIDU-ASQIGDHWSA-N.pdb
REMARK                            x       y       z     vdW  Elec       q    Type
REMARK                         _______ _______ _______ _____ _____    ______ ____
ROOT
ATOM      1  H   UNK    1       -2.154  -2.901   0.000  0.00  0.00    +0.000 HD
ENDROOT
TORSDOF 0
REMARK  Name = molecules/CILIXQOJUNDIDU-ASQIGDHWSA-N.pdb
REMARK                            x       y       z     vdW  Elec       q    Type
REMARK                         _______ _______ _______ _____ _____    ______ ____
ROOT
ATOM      1  H   UNK    1       -8.777  -3.375   0.000  0.00  0.00    +0.000 HD
ENDROOT
TORSDOF 0
REMARK  Name = molecules/CILIXQOJUNDIDU-ASQIGDHWSA-N.pdb
REMARK                            x       y       z     vdW  Elec       q    Type
REMARK                         _______ _______ _______ _____ _____    ______ ____
ROOT
ATOM      1  H   UNK    1        4.708   0.540   0.000  0.00  0.00    +0.000 HD
ENDROOT
TORSDOF 0
REMARK  Name = molecules/CILIXQOJUNDIDU-ASQIGDHWSA-N.pdb
REMARK                            x       y       z     vdW  Elec       q    Type
REMARK                         _______ _______ _______ _____ _____    ______ ____
ROOT
ATOM      1  H   UNK    1        1.979  -1.667   0.000  0.00  0.00    +0.000 HD
ENDROOT
TORSDOF 0
REMARK  Name = molecules/CILIXQOJUNDIDU-ASQIGDHWSA-N.pdb
REMARK                            x       y       z     vdW  Elec       q    Type
REMARK                         _______ _______ _______ _____ _____    ______ ____
ROOT
ATOM      1  H   UNK    1       -7.820  -0.272   0.000  0.00  0.00    +0.000 HD
ENDROOT
TORSDOF 0
REMARK  Name = molecules/CILIXQOJUNDIDU-ASQIGDHWSA-N.pdb
REMARK                            x       y       z     vdW  Elec       q    Type
REMARK                         _______ _______ _______ _____ _____    ______ ____
ROOT
ATOM      1  H   UNK    1       -8.783   1.618   0.000  0.00  0.00    +0.000 HD
ENDROOT
TORSDOF 0
REMARK  Name = molecules/CILIXQOJUNDIDU-ASQIGDHWSA-N.pdb
REMARK                            x       y       z     vdW  Elec       q    Type
REMARK                         _______ _______ _______ _____ _____    ______ ____
ROOT
ATOM      1  H   UNK    1       -6.100   0.758   0.000  0.00  0.00    +0.000 HD
ENDROOT
TORSDOF 0
REMARK  Name = molecules/CILIXQOJUNDIDU-ASQIGDHWSA-N.pdb
REMARK                            x       y       z     vdW  Elec       q    Type
REMARK                         _______ _______ _______ _____ _____    ______ ____
ROOT
ATOM      1  H   UNK    1       -3.571   8.600   0.000  0.00  0.00    +0.000 HD
ENDROOT
TORSDOF 0
REMARK  Name = molecules/CILIXQOJUNDIDU-ASQIGDHWSA-N.pdb
REMARK                            x       y       z     vdW  Elec       q    Type
REMARK                         _______ _______ _______ _____ _____    ______ ____
ROOT
ATOM      1  H   UNK    1        0.178   5.612   0.000  0.00  0.00    +0.000 HD
ENDROOT
TORSDOF 0
REMARK  Name = molecules/CILIXQOJUNDIDU-ASQIGDHWSA-N.pdb
REMARK                            x       y       z     vdW  Elec       q    Type
REMARK                         _______ _______ _______ _____ _____    ______ ____
ROOT
ATOM      1  H   UNK    1       -2.894   5.237   0.000  0.00  0.00    +0.000 HD
ENDROOT
TORSDOF 0
REMARK  Name = molecules/CILIXQOJUNDIDU-ASQIGDHWSA-N.pdb
REMARK                            x       y       z     vdW  Elec       q    Type
REMARK                         _______ _______ _______ _____ _____    ______ ____
ROOT
ATOM      1  H   UNK    1       -4.342  14.159   0.000  0.00  0.00    +0.000 HD
ENDROOT
TORSDOF 0
