REMARK  Name = molecules/CITHEXJVPOWHKC-UHFFFAOYSA-N.pdb
REMARK                            x       y       z     vdW  Elec       q    Type
REMARK                         _______ _______ _______ _____ _____    ______ ____
ROOT
ATOM      1  O   LIG    1        0.201  -4.848   0.000  0.00  0.00    -0.462 OA
ENDROOT
BRANCH   1   2
ATOM      2  C   LIG    1        1.701  -4.848   0.000  0.00  0.00    +0.307 C 
ATOM      3  O   LIG    1        2.451  -3.549   0.000  0.00  0.00    -0.251 OA
BRANCH   2   4
ATOM      4  C   LIG    1        2.451  -6.147   0.000  0.00  0.00    +0.120 C 
BRANCH   4   5
ATOM      5  C   LIG    1        3.201  -7.446   0.000  0.00  0.00    +0.011 C 
BRANCH   5   6
ATOM      6  C   LIG    1        3.951  -8.745   0.000  0.00  0.00    +0.001 C 
BRANCH   6   7
ATOM      7  C   LIG    1        4.701 -10.044   0.000  0.00  0.00    +0.000 C 
BRANCH   7   8
ATOM      8  C   LIG    1        5.451 -11.343   0.000  0.00  0.00    +0.000 C 
BRANCH   8   9
ATOM      9  C   LIG    1        6.201 -12.642   0.000  0.00  0.00    +0.000 C 
BRANCH   9  10
ATOM     10  C   LIG    1        6.951 -13.941   0.000  0.00  0.00    -0.000 C 
BRANCH  10  11
ATOM     11  C   LIG    1        7.701 -15.240   0.000  0.00  0.00    -0.000 C 
BRANCH  11  12
ATOM     12  C   LIG    1        8.451 -16.539   0.000  0.00  0.00    -0.000 C 
BRANCH  12  13
ATOM     13  C   LIG    1        9.201 -17.838   0.000  0.00  0.00    -0.000 C 
BRANCH  13  14
ATOM     14  C   LIG    1        9.951 -19.137   0.000  0.00  0.00    -0.000 C 
BRANCH  14  15
ATOM     15  C   LIG    1       10.701 -20.436   0.000  0.00  0.00    -0.003 C 
ATOM     16  C   LIG    1       11.451 -21.736   0.000  0.00  0.00    +0.004 C 
ENDBRANCH  14  15
ENDBRANCH  13  14
ENDBRANCH  12  13
ENDBRANCH  11  12
ENDBRANCH  10  11
ENDBRANCH   9  10
ENDBRANCH   8   9
ENDBRANCH   7   8
ENDBRANCH   6   7
ENDBRANCH   5   6
ENDBRANCH   4   5
ENDBRANCH   2   4
ENDBRANCH   1   2
BRANCH   1  17
ATOM     17  C   LIG    1       -0.549  -3.549   0.000  0.00  0.00    +0.269 C 
BRANCH  17  18
ATOM     18  C   LIG    1       -1.299  -2.250   0.000  0.00  0.00    +0.225 C 
ATOM     19  O   LIG    1        0.000  -1.500   0.000  0.00  0.00    -0.225 OA
BRANCH  18  20
ATOM     20  C   LIG    1       -2.049  -0.951   0.000  0.00  0.00    +0.196 C 
BRANCH  20  21
ATOM     21  O   LIG    1       -2.799   0.348   0.000  0.00  0.00    -0.291 OA
BRANCH  21  22
ATOM     22  P   LIG    1       -4.299   0.348   0.000  0.00  0.00    +0.443 P 
ATOM     23  O   LIG    1       -4.299   1.848   0.000  0.00  0.00    -0.245 OA
BRANCH  22  24
ATOM     24  O   LIG    1       -5.799   0.348   0.000  0.00  0.00    -0.296 OA
BRANCH  24  25
ATOM     25  C   LIG    1       -6.549  -0.951   0.000  0.00  0.00    +0.140 C 
BRANCH  25  26
ATOM     26  C   LIG    1       -7.299  -2.250   0.000  0.00  0.00    -0.041 C 
BRANCH  26  27
ATOM     27  N   LIG    1       -8.049  -3.549   0.000  0.00  0.00    +0.376 N 
ATOM     28  C   LIG    1       -8.799  -4.848   0.000  0.00  0.00    -0.093 C 
ATOM     29  C   LIG    1       -9.348  -2.799   0.000  0.00  0.00    -0.093 C 
ATOM     30  C   LIG    1       -6.750  -4.299   0.000  0.00  0.00    -0.093 C 
ENDBRANCH  26  27
ENDBRANCH  25  26
ENDBRANCH  24  25
ENDBRANCH  22  24
ENDBRANCH  21  22
ENDBRANCH  20  21
ENDBRANCH  18  20
ENDBRANCH  17  18
ENDBRANCH   1  17
TORSDOF 22
REMARK  Name = molecules/CITHEXJVPOWHKC-UHFFFAOYSA-N.pdb
REMARK                            x       y       z     vdW  Elec       q    Type
REMARK                         _______ _______ _______ _____ _____    ______ ____
ROOT
ATOM      1  C   LIG    1        0.000   0.000   0.000  0.00  0.00    +0.279 C 
ATOM      2  O   LIG    1       -0.767   0.443   0.000  0.00  0.00    -0.279 OA
ENDROOT
TORSDOF 0
REMARK  Name = molecules/CITHEXJVPOWHKC-UHFFFAOYSA-N.pdb
REMARK                            x       y       z     vdW  Elec       q    Type
REMARK                         _______ _______ _______ _____ _____    ______ ____
ROOT
ATOM      1  C   LIG    1        9.093   5.250   0.000  0.00  0.00    -0.000 C 
ENDROOT
BRANCH   1   2
ATOM      2  C   LIG    1        7.794   4.500   0.000  0.00  0.00    -0.000 C 
BRANCH   2   3
ATOM      3  C   LIG    1        6.495   3.750   0.000  0.00  0.00    -0.000 C 
BRANCH   3   4
ATOM      4  C   LIG    1        5.196   3.000   0.000  0.00  0.00    -0.000 C 
BRANCH   4   5
ATOM      5  C   LIG    1        3.897   2.250   0.000  0.00  0.00    -0.000 C 
BRANCH   5   7
ATOM      6  C   LIG    1        1.299   0.750   0.000  0.00  0.00    -0.000 C 
ATOM      7  C   LIG    1        2.598   1.500   0.000  0.00  0.00    -0.000 C 
ENDBRANCH   5   7
ENDBRANCH   4   5
ENDBRANCH   3   4
ENDBRANCH   2   3
ENDBRANCH   1   2
BRANCH   1   8
ATOM      8  C   LIG    1       10.392   6.000   0.000  0.00  0.00    -0.000 C 
BRANCH   8   9
ATOM      9  C   LIG    1       11.691   6.750   0.000  0.00  0.00    -0.000 C 
BRANCH   9  10
ATOM     10  C   LIG    1       12.990   7.500   0.000  0.00  0.00    -0.000 C 
BRANCH  10  11
ATOM     11  C   LIG    1       14.289   8.250   0.000  0.00  0.00    -0.000 C 
BRANCH  11  12
ATOM     12  C   LIG    1       15.588   9.000   0.000  0.00  0.00    -0.003 C 
ATOM     13  C   LIG    1       16.887   9.750   0.000  0.00  0.00    +0.004 C 
ENDBRANCH  11  12
ENDBRANCH  10  11
ENDBRANCH   9  10
ENDBRANCH   8   9
ENDBRANCH   1   8
TORSDOF 10
REMARK  Name = molecules/CITHEXJVPOWHKC-UHFFFAOYSA-N.pdb
REMARK                            x       y       z     vdW  Elec       q    Type
REMARK                         _______ _______ _______ _____ _____    ______ ____
ROOT
ATOM      1  O   HOH    1       -4.299  -1.152   0.000  0.00  0.00    -0.410 OA
ATOM      2  H   HOH    0       -3.348  -1.701   0.000  0.00  0.00    +0.205 HD
ATOM      3  H   HOH    0       -5.250  -1.701   0.000  0.00  0.00    +0.205 HD
ENDROOT
TORSDOF 0
