REMARK  Name = molecules/CIWBSHSKHKDKBQ-JLAZNSOCSA-N.pdb
REMARK                            x       y       z     vdW  Elec       q    Type
REMARK                         _______ _______ _______ _____ _____    ______ ____
ROOT
ATOM      1  C   LIG    1       -0.041  -0.329   0.600  0.00  0.00    +0.276 C 
ATOM      2  O   LIG    1       -0.409   0.945   1.044  0.00  0.00    -0.445 OA
ATOM      3  C   LIG    1       -1.718   1.147   0.659  0.00  0.00    +0.378 C 
ATOM      4  O   LIG    1       -2.419   2.200   0.882  0.00  0.00    -0.241 OA
ATOM      5  C   LIG    1       -2.173  -0.035  -0.042  0.00  0.00    +0.244 C 
ATOM      6  C   LIG    1       -1.195  -0.907  -0.082  0.00  0.00    +0.186 C 
ENDROOT
BRANCH   5   7
ATOM      7  O   LIG    1       -3.467  -0.165  -0.572  0.00  0.00    -0.499 OA
ATOM      8  H   LIG    1       -3.505  -0.402  -1.552  0.00  0.00    +0.293 HD
ENDBRANCH   5   7
BRANCH   6   9
ATOM      9  O   LIG    1       -1.265  -2.151  -0.672  0.00  0.00    -0.504 OA
ATOM     10  H   LIG    1       -0.967  -2.993  -0.168  0.00  0.00    +0.292 HD
ENDBRANCH   6   9
BRANCH   1  11
ATOM     11  C   LIG    1        1.192  -0.222  -0.266  0.00  0.00    +0.188 C 
BRANCH  11  12
ATOM     12  O   LIG    1        0.913   0.590  -1.355  0.00  0.00    -0.385 OA
ATOM     13  H   LIG    1        0.127   1.151  -1.158  0.00  0.00    +0.210 HD
ENDBRANCH  11  12
BRANCH  11  14
ATOM     14  C   LIG    1        2.243   0.496   0.574  0.00  0.00    +0.191 C 
BRANCH  14  15
ATOM     15  O   LIG    1        3.405   0.734  -0.111  0.00  0.00    -0.392 OA
ATOM     16  H   LIG    1        3.289   0.849  -1.076  0.00  0.00    +0.210 HD
ENDBRANCH  14  15
ENDBRANCH  11  14
ENDBRANCH   1  11
TORSDOF 6
