REMARK  Name = molecules/CIWBQSYVNNPZIQ-PKWREOPISA-N.pdb
REMARK                            x       y       z     vdW  Elec       q    Type
REMARK                         _______ _______ _______ _____ _____    ______ ____
ROOT
ATOM      1  C   LIG    1        1.543   1.021  -0.373  0.00  0.00    +0.182 C 
ATOM      2  C   LIG    1        0.248   0.400   0.132  0.00  0.00    +0.021 C 
ATOM      3  C   LIG    1        0.420  -0.797   1.003  0.00  0.00    +0.016 C 
ATOM      4  C   LIG    1       -0.668   1.339   0.883  0.00  0.00    +0.045 C 
ATOM      5  C   LIG    1       -1.918   0.507   1.259  0.00  0.00    +0.154 C 
ATOM      6  C   LIG    1       -2.585  -0.050   0.074  0.00  0.00    +0.153 C 
ATOM      7  C   LIG    1       -3.743  -0.934   0.399  0.00  0.00    +0.044 C 
ATOM      8  C   LIG    1       -4.544  -0.444   1.515  0.00  0.00    -0.009 C 
ATOM      9  C   LIG    1       -5.809  -0.144   1.462  0.00  0.00    +0.047 C 
ATOM     10  C   LIG    1       -6.538  -0.286   0.213  0.00  0.00    +0.179 C 
ATOM     11  O   LIG    1       -7.754   0.006   0.189  0.00  0.00    -0.288 OA
ATOM     12  C   LIG    1       -5.768  -0.770  -0.930  0.00  0.00    +0.051 C 
ATOM     13  C   LIG    1       -3.288  -2.354   0.753  0.00  0.00    +0.023 C 
ATOM     14  C   LIG    1       -4.507  -1.067  -0.876  0.00  0.00    -0.053 C 
ATOM     15  C   LIG    1       -3.803  -1.510  -2.119  0.00  0.00    +0.032 C 
ATOM     16  C   LIG    1       -2.474  -0.783  -2.246  0.00  0.00    +0.011 C 
ATOM     17  F   LIG    1       -3.136   1.042  -0.629  0.00  0.00    -0.238 F 
ATOM     18  C   LIG    1       -1.707  -0.742  -0.937  0.00  0.00    +0.034 C 
ATOM     19  C   LIG    1       -0.502   0.122  -1.145  0.00  0.00    +0.006 C 
ATOM     20  C   LIG    1        0.543  -0.367  -2.058  0.00  0.00    +0.012 C 
ATOM     21  C   LIG    1        1.668   0.645  -1.771  0.00  0.00    +0.038 C 
ATOM     22  C   LIG    1        1.549   1.689  -2.826  0.00  0.00    +0.012 C 
ENDROOT
BRANCH   1  23
ATOM     23  C   LIG    1        2.618   0.246   0.364  0.00  0.00    +0.214 C 
ATOM     24  O   LIG    1        2.823   0.553   1.541  0.00  0.00    -0.289 OA
BRANCH  23  25
ATOM     25  C   LIG    1        3.434  -0.821  -0.218  0.00  0.00    +0.310 C 
BRANCH  25  26
ATOM     26  O   LIG    1        4.261  -1.408   0.803  0.00  0.00    -0.457 OA
BRANCH  26  27
ATOM     27  C   LIG    1        5.119  -2.446   0.471  0.00  0.00    +0.307 C 
ATOM     28  O   LIG    1        5.122  -2.820  -0.731  0.00  0.00    -0.251 OA
BRANCH  27  29
ATOM     29  C   LIG    1        5.999  -3.090   1.496  0.00  0.00    +0.117 C 
ATOM     30  C   LIG    1        6.800  -4.180   0.790  0.00  0.00    +0.015 C 
ENDBRANCH  27  29
ENDBRANCH  26  27
ENDBRANCH  25  26
ENDBRANCH  23  25
ENDBRANCH   1  23
BRANCH   5  31
ATOM     31  O   LIG    1       -1.737  -0.297   2.345  0.00  0.00    -0.389 OA
ATOM     32  H   LIG    1       -1.775   0.176   3.203  0.00  0.00    +0.210 HD
ENDBRANCH   5  31
BRANCH   1  33
ATOM     33  O   LIG    1        1.789   2.260   0.117  0.00  0.00    -0.449 OA
BRANCH  33  34
ATOM     34  C   LIG    1        1.377   3.507  -0.053  0.00  0.00    +0.308 C 
ATOM     35  O   LIG    1        0.523   3.658  -0.917  0.00  0.00    -0.251 OA
BRANCH  34  36
ATOM     36  C   LIG    1        1.959   4.604   0.788  0.00  0.00    +0.117 C 
ATOM     37  C   LIG    1        1.375   5.934   0.456  0.00  0.00    +0.015 C 
ENDBRANCH  34  36
ENDBRANCH  33  34
ENDBRANCH   1  33
TORSDOF 9
