REMARK  Name = molecules/CJAVTWRYCDNHSM-CQSZACIVSA-N.pdb
REMARK                            x       y       z     vdW  Elec       q    Type
REMARK                         _______ _______ _______ _____ _____    ______ ____
ROOT
ATOM      1  C   LIG    1       -1.680  -1.876   1.617  0.00  0.00    +0.055 C 
ATOM      2  C   LIG    1       -0.622  -2.950   1.874  0.00  0.00    +0.024 C 
ENDROOT
BRANCH   1   3
ATOM      3  N   LIG    1       -1.096  -0.558   1.896  0.00  0.00    -0.310 NA
ATOM      4  H   LIG    1       -1.721   0.159   1.505  0.00  0.00    +0.122 HD
BRANCH   3   5
ATOM      5  C   LIG    1        0.188  -0.488   1.256  0.00  0.00    +0.122 C 
BRANCH   5   6
ATOM      6  C   LIG    1        0.850   0.861   1.253  0.00  0.00    +0.247 C 
BRANCH   6   7
ATOM      7  O   LIG    1        2.105   0.628   0.612  0.00  0.00    -0.460 OA
BRANCH   7   8
ATOM      8  C   LIG    1        3.095   1.527   0.379  0.00  0.00    +0.339 C 
ATOM      9  O   LIG    1        2.897   2.728   0.742  0.00  0.00    -0.245 OA
BRANCH   8  10
ATOM     10  C   LIG    1        4.361   1.147  -0.264  0.00  0.00    +0.059 A 
ATOM     11  C   LIG    1        5.344   2.120  -0.453  0.00  0.00    +0.015 A 
ATOM     12  C   LIG    1        6.559   1.759  -1.037  0.00  0.00    +0.001 A 
ATOM     13  C   LIG    1        6.784   0.458  -1.419  0.00  0.00    +0.000 A 
ATOM     14  C   LIG    1        5.830  -0.527  -1.244  0.00  0.00    +0.001 A 
ATOM     15  C   LIG    1        4.632  -0.127  -0.659  0.00  0.00    +0.015 A 
ENDBRANCH   8  10
ENDBRANCH   7   8
ENDBRANCH   6   7
ENDBRANCH   5   6
ENDBRANCH   3   5
ENDBRANCH   1   3
BRANCH   1  16
ATOM     16  C   LIG    1       -2.138  -2.021   0.185  0.00  0.00    +0.053 C 
BRANCH  16  17
ATOM     17  C   LIG    1       -3.241  -1.031  -0.093  0.00  0.00    -0.045 A 
ATOM     18  C   LIG    1       -4.569  -1.429   0.156  0.00  0.00    +0.004 A 
ATOM     19  C   LIG    1       -5.609  -0.539  -0.048  0.00  0.00    +0.001 A 
ATOM     20  C   LIG    1       -5.346   0.733  -0.493  0.00  0.00    +0.012 A 
ATOM     21  C   LIG    1       -4.030   1.163  -0.749  0.00  0.00    +0.055 A 
ATOM     22  C   LIG    1       -3.011   0.234  -0.532  0.00  0.00    +0.016 A 
BRANCH  21  23
ATOM     23  C   LIG    1       -3.766   2.550  -1.202  0.00  0.00    +0.417 C 
ATOM     24  F   LIG    1       -3.950   3.472  -0.168  0.00  0.00    -0.166 F 
ATOM     25  F   LIG    1       -2.524   2.725  -1.775  0.00  0.00    -0.166 F 
ATOM     26  F   LIG    1       -4.750   2.860  -2.151  0.00  0.00    -0.166 F 
ENDBRANCH  21  23
ENDBRANCH  16  17
ENDBRANCH   1  16
TORSDOF 9
