REMARK  Name = molecules/CJBJHOAVZSMMDJ-HEXNFIEUSA-N.pdb
REMARK                            x       y       z     vdW  Elec       q    Type
REMARK                         _______ _______ _______ _____ _____    ______ ____
ROOT
ATOM      1  C   LIG    1        0.355   0.105  -0.535  0.00  0.00    +0.110 C 
ENDROOT
BRANCH   1   4
ATOM      2  C   LIG    1        2.520   0.221   0.745  0.00  0.00    +0.401 C 
ATOM      3  O   LIG    1        2.005   1.007   1.581  0.00  0.00    -0.226 OA
ATOM      4  N   LIG    1        1.754  -0.277  -0.349  0.00  0.00    -0.275 N 
ATOM      5  H   LIG    1        2.138  -0.928  -1.063  0.00  0.00    +0.152 HD
BRANCH   2   6
ATOM      6  O   LIG    1        3.847  -0.126   0.943  0.00  0.00    -0.444 OA
BRANCH   6   9
ATOM      7  O   LIG    1        6.482  -0.318   3.193  0.00  0.00    -0.347 OA
ATOM      8  C   LIG    1        5.177  -0.705   2.887  0.00  0.00    +0.208 C 
ATOM      9  C   LIG    1        4.594   0.391   2.056  0.00  0.00    +0.212 C 
ATOM     10  C   LIG    1        5.804   1.083   1.478  0.00  0.00    +0.090 C 
ATOM     11  C   LIG    1        5.978   0.841   0.002  0.00  0.00    +0.040 C 
ATOM     12  C   LIG    1        7.399   0.279  -0.046  0.00  0.00    +0.163 C 
ATOM     13  O   LIG    1        7.381  -0.572   1.073  0.00  0.00    -0.351 OA
ATOM     14  C   LIG    1        6.969   0.300   2.066  0.00  0.00    +0.257 C 
ENDBRANCH   6   9
ENDBRANCH   2   6
ENDBRANCH   1   4
BRANCH   1  15
ATOM     15  C   LIG    1       -0.398  -1.209  -0.490  0.00  0.00    +0.151 C 
BRANCH  15  16
ATOM     16  O   LIG    1        0.128  -1.970  -1.557  0.00  0.00    -0.389 OA
ATOM     17  H   LIG    1       -0.461  -1.776  -2.338  0.00  0.00    +0.210 HD
ENDBRANCH  15  16
BRANCH  15  18
ATOM     18  C   LIG    1       -1.865  -1.100  -0.651  0.00  0.00    +0.142 C 
BRANCH  18  19
ATOM     19  N   LIG    1       -2.571  -0.375   0.329  0.00  0.00    -0.174 NA
BRANCH  19  20
ATOM     20  S   LIG    1       -3.089  -1.264   1.688  0.00  0.00    +0.061 S 
ATOM     21  O   LIG    1       -3.835  -0.423   2.676  0.00  0.00    -0.153 OA
ATOM     22  O   LIG    1       -1.930  -1.987   2.358  0.00  0.00    -0.153 OA
BRANCH  20  23
ATOM     23  C   LIG    1       -4.189  -2.510   1.143  0.00  0.00    +0.106 A 
ATOM     24  C   LIG    1       -5.573  -2.306   1.116  0.00  0.00    +0.030 A 
ATOM     25  C   LIG    1       -6.437  -3.308   0.685  0.00  0.00    +0.024 A 
ATOM     26  C   LIG    1       -5.953  -4.531   0.272  0.00  0.00    +0.025 A 
ATOM     27  C   LIG    1       -4.597  -4.750   0.292  0.00  0.00    +0.024 A 
ATOM     28  C   LIG    1       -3.763  -3.748   0.721  0.00  0.00    +0.030 A 
BRANCH  26  29
ATOM     29  N   LIG    1       -6.847  -5.570  -0.175  0.00  0.00    -0.358 N 
ATOM     30  H   LIG    1       -6.888  -6.495   0.316  0.00  0.00    +0.142 HD
ATOM     31  H   LIG    1       -7.476  -5.451  -0.985  0.00  0.00    +0.142 HD
ENDBRANCH  26  29
ENDBRANCH  20  23
ENDBRANCH  19  20
BRANCH  19  32
ATOM     32  C   LIG    1       -3.708   0.343  -0.214  0.00  0.00    +0.112 C 
BRANCH  32  33
ATOM     33  C   LIG    1       -3.900   1.706   0.416  0.00  0.00    -0.001 C 
ATOM     34  C   LIG    1       -2.688   2.587   0.202  0.00  0.00    +0.008 C 
ATOM     35  C   LIG    1       -5.085   2.345  -0.284  0.00  0.00    +0.008 C 
ENDBRANCH  32  33
ENDBRANCH  19  32
ENDBRANCH  18  19
ENDBRANCH  15  18
ENDBRANCH   1  15
BRANCH   1  36
ATOM     36  C   LIG    1        0.297   0.722  -1.924  0.00  0.00    +0.060 C 
BRANCH  36  37
ATOM     37  C   LIG    1        1.191   1.905  -2.023  0.00  0.00    -0.046 A 
ATOM     38  C   LIG    1        0.815   3.184  -1.743  0.00  0.00    +0.004 A 
ATOM     39  C   LIG    1        1.674   4.256  -1.846  0.00  0.00    +0.000 A 
ATOM     40  C   LIG    1        2.986   4.032  -2.255  0.00  0.00    +0.000 A 
ATOM     41  C   LIG    1        3.402   2.757  -2.546  0.00  0.00    +0.000 A 
ATOM     42  C   LIG    1        2.517   1.714  -2.431  0.00  0.00    +0.004 A 
ENDBRANCH  36  37
ENDBRANCH   1  36
TORSDOF 14
