REMARK  Name = molecules/CJGYSWNGNKCJSB-YVLZZHOMSA-N.pdb
REMARK                            x       y       z     vdW  Elec       q    Type
REMARK                         _______ _______ _______ _____ _____    ______ ____
ROOT
ATOM      1  C   LIG    1       -2.357   0.488  -0.766  0.00  0.00    +0.258 C 
ATOM      2  C   LIG    1       -0.999   0.010  -1.200  0.00  0.00    +0.266 C 
ATOM      3  O   LIG    1       -0.933   0.533  -2.514  0.00  0.00    -0.344 OA
ATOM      4  C   LIG    1       -2.093   0.014  -3.053  0.00  0.00    +0.180 C 
ATOM      5  C   LIG    1       -2.463   0.593  -4.379  0.00  0.00    +0.206 C 
ATOM      6  O   LIG    1       -3.774   0.215  -4.673  0.00  0.00    -0.284 OA
ATOM      7  P   LIG    1       -4.320  -1.029  -3.682  0.00  0.00    +0.475 P 
ATOM      8  O   LIG    1       -4.076  -0.647  -2.031  0.00  0.00    -0.277 OA
ATOM      9  O   LIG    1       -3.691  -2.359  -4.025  0.00  0.00    -0.227 OA
ATOM     10  C   LIG    1       -3.151   0.410  -2.043  0.00  0.00    +0.206 C 
ENDROOT
BRANCH   2  11
ATOM     11  N   LIG    1        0.084   0.445  -0.395  0.00  0.00    -0.285 N 
ATOM     12  C   LIG    1        0.116   1.456   0.476  0.00  0.00    +0.203 A 
ATOM     13  N   LIG    1        1.334   1.548   1.042  0.00  0.00    -0.231 NA
ATOM     14  C   LIG    1        2.076   0.559   0.499  0.00  0.00    +0.148 A 
ATOM     15  C   LIG    1        3.390   0.191   0.711  0.00  0.00    +0.156 A 
ATOM     16  N   LIG    1        3.847  -0.850   0.010  0.00  0.00    -0.218 NA
ATOM     17  C   LIG    1        3.105  -1.535  -0.868  0.00  0.00    +0.225 A 
ATOM     18  N   LIG    1        1.838  -1.169  -1.063  0.00  0.00    -0.216 NA
ATOM     19  C   LIG    1        1.320  -0.136  -0.392  0.00  0.00    +0.167 A 
BRANCH  15  20
ATOM     20  N   LIG    1        4.205   0.888   1.629  0.00  0.00    -0.269 N 
ATOM     21  H   LIG    1        3.828   1.694   2.164  0.00  0.00    +0.156 HD
ATOM     22  C   LIG    1        5.548   0.507   1.838  0.00  0.00    +0.218 C 
ATOM     23  O   LIG    1        6.287   1.137   2.667  0.00  0.00    -0.275 OA
BRANCH  22  24
ATOM     24  C   LIG    1        6.185  -0.631   1.124  0.00  0.00    +0.096 C 
BRANCH  24  25
ATOM     25  C   LIG    1        7.638  -0.806   1.547  0.00  0.00    +0.006 C 
ATOM     26  C   LIG    1        8.448   0.417   1.253  0.00  0.00    +0.004 C 
ENDBRANCH  24  25
ENDBRANCH  22  24
ENDBRANCH  15  20
ENDBRANCH   2  11
BRANCH   7  27
ATOM     27  O   LIG    1       -5.993  -1.189  -3.939  0.00  0.00    -0.302 OA
ATOM     28  H   LIG    1       -6.470  -1.375  -3.086  0.00  0.00    +0.222 HD
ENDBRANCH   7  27
BRANCH   1  29
ATOM     29  O   LIG    1       -2.922  -0.297   0.263  0.00  0.00    -0.454 OA
BRANCH  29  30
ATOM     30  C   LIG    1       -3.350   0.212   1.480  0.00  0.00    +0.308 C 
ATOM     31  O   LIG    1       -3.213   1.461   1.656  0.00  0.00    -0.251 OA
BRANCH  30  32
ATOM     32  C   LIG    1       -3.941  -0.651   2.538  0.00  0.00    +0.120 C 
BRANCH  32  33
ATOM     33  C   LIG    1       -5.470  -0.535   2.525  0.00  0.00    +0.008 C 
ATOM     34  C   LIG    1       -5.911   0.876   2.773  0.00  0.00    +0.004 C 
ENDBRANCH  32  33
ENDBRANCH  30  32
ENDBRANCH  29  30
ENDBRANCH   1  29
TORSDOF 9
