REMARK  Name = molecules/CJOFXWAVKWHTFT-XSFVSMFZSA-N.pdb
REMARK                            x       y       z     vdW  Elec       q    Type
REMARK                         _______ _______ _______ _____ _____    ______ ____
ROOT
ATOM      1  C   LIG    1       -0.673   0.127   0.004  0.00  0.00    +0.087 C 
ATOM      2  N   LIG    1       -1.038   1.281  -0.010  0.00  0.00    -0.089 NA
ENDROOT
BRANCH   1   3
ATOM      3  C   LIG    1       -1.812  -0.898   0.119  0.00  0.00    -0.001 A 
ATOM      4  C   LIG    1       -1.958  -1.631   1.249  0.00  0.00    +0.010 A 
ATOM      5  C   LIG    1       -3.016  -2.598   1.273  0.00  0.00    +0.013 A 
ATOM      6  C   LIG    1       -3.789  -2.711   0.150  0.00  0.00    +0.055 A 
ATOM      7  C   LIG    1       -3.592  -1.948  -0.966  0.00  0.00    +0.013 A 
ATOM      8  C   LIG    1       -2.578  -1.001  -1.005  0.00  0.00    +0.010 A 
BRANCH   6   9
ATOM      9  C   LIG    1       -4.917  -3.695   0.122  0.00  0.00    +0.417 C 
ATOM     10  F   LIG    1       -5.926  -3.246   0.922  0.00  0.00    -0.166 F 
ATOM     11  F   LIG    1       -4.406  -4.886   0.496  0.00  0.00    -0.166 F 
ATOM     12  F   LIG    1       -5.440  -3.787  -1.163  0.00  0.00    -0.166 F 
ENDBRANCH   6   9
ENDBRANCH   1   3
BRANCH   2  13
ATOM     13  O   LIG    1       -0.606   2.447  -0.259  0.00  0.00    -0.392 OA
BRANCH  13  14
ATOM     14  C   LIG    1       -0.528   3.487   0.747  0.00  0.00    +0.277 C 
BRANCH  14  15
ATOM     15  C   LIG    1       -0.315   4.755  -0.119  0.00  0.00    +0.121 C 
BRANCH  15  16
ATOM     16  N   LIG    1       -0.228   5.927   0.645  0.00  0.00    -0.327 NA
ATOM     17  H   LIG    1        0.559   6.160   1.183  0.00  0.00    +0.118 HD
ATOM     18  H   LIG    1       -0.784   6.703   0.284  0.00  0.00    +0.118 HD
ENDBRANCH  15  16
ENDBRANCH  14  15
ENDBRANCH  13  14
ENDBRANCH   2  13
BRANCH   1  19
ATOM     19  C   LIG    1        0.572  -0.455  -0.287  0.00  0.00    +0.059 C 
BRANCH  19  20
ATOM     20  C   LIG    1        1.882   0.212  -0.386  0.00  0.00    +0.008 C 
BRANCH  20  21
ATOM     21  C   LIG    1        2.789  -0.922  -0.902  0.00  0.00    +0.028 C 
BRANCH  21  22
ATOM     22  C   LIG    1        4.199  -0.616  -1.105  0.00  0.00    +0.159 C 
BRANCH  22  23
ATOM     23  O   LIG    1        4.951  -0.266  -0.007  0.00  0.00    -0.383 OA
ATOM     24  C   LIG    1        5.005  -1.329   0.924  0.00  0.00    +0.193 C 
ENDBRANCH  22  23
ENDBRANCH  21  22
ENDBRANCH  20  21
ENDBRANCH  19  20
ENDBRANCH   1  19
TORSDOF 11
