REMARK  Name = molecules/CJXAEXPPLWQRFR-UHFFFAOYSA-N.pdb
REMARK                            x       y       z     vdW  Elec       q    Type
REMARK                         _______ _______ _______ _____ _____    ______ ____
ROOT
ATOM      1  N   LIG    1        0.322   0.531   0.018  0.00  0.00    -0.322 N 
ATOM      2  C   LIG    1        0.481   1.838  -0.301  0.00  0.00    +0.069 A 
ATOM      3  C   LIG    1        1.247   2.866   0.214  0.00  0.00    +0.028 A 
ATOM      4  C   LIG    1        1.169   4.118  -0.354  0.00  0.00    +0.002 A 
ATOM      5  C   LIG    1        0.341   4.382  -1.432  0.00  0.00    +0.002 A 
ATOM      6  C   LIG    1       -0.431   3.371  -1.960  0.00  0.00    +0.030 A 
ATOM      7  C   LIG    1       -0.337   2.111  -1.369  0.00  0.00    +0.089 A 
ATOM      8  N   LIG    1       -0.961   0.959  -1.657  0.00  0.00    -0.231 NA
ATOM      9  C   LIG    1       -0.566  -0.008  -0.818  0.00  0.00    +0.125 A 
ENDROOT
BRANCH   1  10
ATOM     10  C   LIG    1        1.064  -0.075   1.102  0.00  0.00    +0.158 C 
BRANCH  10  11
ATOM     11  C   LIG    1        2.339  -0.683   0.732  0.00  0.00    -0.028 A 
ATOM     12  C   LIG    1        2.420  -2.058   0.626  0.00  0.00    +0.007 A 
ATOM     13  C   LIG    1        3.589  -2.701   0.296  0.00  0.00    +0.020 A 
ATOM     14  C   LIG    1        4.744  -2.004   0.054  0.00  0.00    +0.041 A 
ATOM     15  C   LIG    1        4.692  -0.633   0.153  0.00  0.00    +0.020 A 
ATOM     16 CL   LIG    1        6.220  -2.845  -0.364  0.00  0.00    -0.084 Cl
ATOM     17  C   LIG    1        3.513  -0.003   0.484  0.00  0.00    +0.007 A 
ENDBRANCH  10  11
ENDBRANCH   1  10
BRANCH   9  18
ATOM     18  C   LIG    1       -1.071  -1.403  -0.853  0.00  0.00    +0.158 C 
BRANCH  18  19
ATOM     19  N   LIG    1       -2.325  -1.600  -0.217  0.00  0.00    -0.295 NA
ATOM     20  C   LIG    1       -2.405  -1.281   1.168  0.00  0.00    +0.085 C 
ATOM     21  C   LIG    1       -3.892  -1.387   1.443  0.00  0.00    +0.017 C 
ATOM     22  C   LIG    1       -4.568  -1.224   0.094  0.00  0.00    +0.017 C 
ATOM     23  C   LIG    1       -3.405  -0.828  -0.793  0.00  0.00    +0.085 C 
ENDBRANCH  18  19
ENDBRANCH   9  18
TORSDOF 4
