REMARK  Name = molecules/CKHJPWQVLKHBIH-ZDSKVHJSSA-N.pdb
REMARK                            x       y       z     vdW  Elec       q    Type
REMARK                         _______ _______ _______ _____ _____    ______ ____
ROOT
ATOM      1  S   LIG    1        0.869  -2.044   0.308  0.00  0.00    -0.059 S 
ENDROOT
BRANCH   1   3
ATOM      2  C   LIG    1        3.374  -1.391  -0.390  0.00  0.00    +0.021 C 
ATOM      3  C   LIG    1        2.380  -1.047   0.375  0.00  0.00    +0.016 C 
ATOM      4  C   LIG    1        4.670  -0.601  -0.348  0.00  0.00    +0.062 C 
BRANCH   2   5
ATOM      5  N   LIG    1        3.428  -2.508  -1.292  0.00  0.00    -0.273 N 
ATOM      6  C   LIG    1        2.418  -3.448  -1.432  0.00  0.00    +0.332 C 
ATOM      7  O   LIG    1        2.673  -4.422  -2.271  0.00  0.00    -0.279 OA
BRANCH   5   8
ATOM      8  C   LIG    1        4.635  -2.738  -2.091  0.00  0.00    +0.153 C 
BRANCH   8  10
ATOM      9  C   LIG    1        4.120  -1.093  -3.957  0.00  0.00    +0.124 A 
ATOM     10  C   LIG    1        4.647  -2.240  -3.444  0.00  0.00    +0.028 A 
ATOM     11  C   LIG    1        5.365  -3.029  -4.384  0.00  0.00    +0.121 A 
ATOM     12  N   LIG    1        5.508  -2.669  -5.658  0.00  0.00    -0.240 NA
ATOM     13  C   LIG    1        4.982  -1.539  -6.130  0.00  0.00    +0.128 A 
ATOM     14  C   LIG    1        5.166  -1.171  -7.567  0.00  0.00    +0.088 C 
ATOM     15  N   LIG    1        4.303  -0.779  -5.273  0.00  0.00    -0.218 NA
BRANCH   9  16
ATOM     16  N   LIG    1        3.337  -0.249  -3.138  0.00  0.00    -0.343 N 
ATOM     17  H   LIG    1        3.726   0.631  -2.763  0.00  0.00    +0.144 HD
ATOM     18  H   LIG    1        2.357  -0.504  -2.910  0.00  0.00    +0.144 HD
ENDBRANCH   9  16
ENDBRANCH   8  10
ENDBRANCH   5   8
ENDBRANCH   2   5
BRANCH   3  19
ATOM     19  C   LIG    1        2.297   0.073   1.300  0.00  0.00    +0.085 C 
BRANCH  19  20
ATOM     20  C   LIG    1        3.316   1.075   1.533  0.00  0.00    +0.237 C 
BRANCH  20  21
ATOM     21  O   LIG    1        2.825   1.952   2.580  0.00  0.00    -0.464 OA
BRANCH  21  22
ATOM     22  C   LIG    1        2.637   1.462   3.833  0.00  0.00    +0.310 C 
ATOM     23  O   LIG    1        2.879   0.280   4.133  0.00  0.00    -0.251 OA
BRANCH  22  24
ATOM     24  C   LIG    1        2.117   2.385   4.896  0.00  0.00    +0.092 C 
ATOM     25  C   LIG    1        1.921   1.634   6.194  0.00  0.00    +0.019 C 
ATOM     26  C   LIG    1        3.240   3.404   5.135  0.00  0.00    +0.019 C 
ENDBRANCH  22  24
ENDBRANCH  21  22
ENDBRANCH  20  21
ENDBRANCH  19  20
ENDBRANCH   3  19
ENDBRANCH   1   3
BRANCH   1  27
ATOM     27  S   LIG    1       -0.581  -1.040   1.505  0.00  0.00    -0.078 S 
BRANCH  27  28
ATOM     28  C   LIG    1       -1.454   0.071   0.324  0.00  0.00    +0.071 C 
BRANCH  28  29
ATOM     29  C   LIG    1       -1.776  -0.465  -0.813  0.00  0.00    +0.074 C 
ATOM     30  C   LIG    1       -2.475   0.445  -1.836  0.00  0.00    +0.035 C 
BRANCH  29  31
ATOM     31  N   LIG    1       -1.822  -1.830  -1.168  0.00  0.00    -0.291 N 
ATOM     32  C   LIG    1       -1.760  -2.188  -2.554  0.00  0.00    +0.329 C 
ATOM     33  O   LIG    1       -1.843  -3.419  -2.869  0.00  0.00    -0.279 OA
BRANCH  31  34
ATOM     34  C   LIG    1       -2.061  -2.898  -0.259  0.00  0.00    +0.148 C 
BRANCH  34  35
ATOM     35  C   LIG    1       -3.558  -3.150  -0.068  0.00  0.00    +0.027 A 
ATOM     36  C   LIG    1       -3.937  -4.138   0.801  0.00  0.00    +0.124 A 
ATOM     37  N   LIG    1       -5.247  -4.378   0.966  0.00  0.00    -0.218 NA
ATOM     38  C   LIG    1       -6.190  -3.694   0.316  0.00  0.00    +0.128 A 
ATOM     39  C   LIG    1       -7.644  -3.953   0.491  0.00  0.00    +0.088 C 
ATOM     40  N   LIG    1       -5.804  -2.741  -0.522  0.00  0.00    -0.240 NA
ATOM     41  C   LIG    1       -4.500  -2.441  -0.740  0.00  0.00    +0.121 A 
BRANCH  36  42
ATOM     42  N   LIG    1       -2.971  -4.902   1.525  0.00  0.00    -0.343 N 
ATOM     43  H   LIG    1       -2.944  -4.849   2.561  0.00  0.00    +0.144 HD
ATOM     44  H   LIG    1       -2.319  -5.497   0.956  0.00  0.00    +0.144 HD
ENDBRANCH  36  42
ENDBRANCH  34  35
ENDBRANCH  31  34
ENDBRANCH  29  31
ENDBRANCH  28  29
BRANCH  28  45
ATOM     45  C   LIG    1       -1.748   1.367   0.890  0.00  0.00    +0.063 C 
BRANCH  45  46
ATOM     46  C   LIG    1       -2.615   2.364   0.262  0.00  0.00    +0.233 C 
BRANCH  46  47
ATOM     47  O   LIG    1       -2.657   3.576   1.103  0.00  0.00    -0.464 OA
BRANCH  47  48
ATOM     48  C   LIG    1       -3.425   4.608   0.654  0.00  0.00    +0.310 C 
ATOM     49  O   LIG    1       -4.048   4.480  -0.430  0.00  0.00    -0.251 OA
BRANCH  48  50
ATOM     50  C   LIG    1       -3.563   5.903   1.399  0.00  0.00    +0.092 C 
ATOM     51  C   LIG    1       -4.168   5.620   2.758  0.00  0.00    +0.019 C 
ATOM     52  C   LIG    1       -4.475   6.836   0.667  0.00  0.00    +0.019 C 
ENDBRANCH  48  50
ENDBRANCH  47  48
ENDBRANCH  46  47
ENDBRANCH  45  46
ENDBRANCH  28  45
ENDBRANCH  27  28
ENDBRANCH   1  27
TORSDOF 22
