REMARK  Name = molecules/CKJAABZFXLMMCS-MKKPLVDTSA-N.pdb
REMARK                            x       y       z     vdW  Elec       q    Type
REMARK                         _______ _______ _______ _____ _____    ______ ____
ROOT
ATOM      1  C   LIG    1       -4.169   0.911   1.602  0.00  0.00    +0.014 C 
ATOM      2  C   LIG    1       -3.724   0.806   0.191  0.00  0.00    +0.008 C 
ATOM      3  C   LIG    1       -2.446   0.190  -0.091  0.00  0.00    +0.087 C 
ATOM      4  C   LIG    1       -2.200  -0.995   0.856  0.00  0.00    +0.087 C 
ATOM      5  C   LIG    1       -3.386  -1.832   0.910  0.00  0.00    +0.152 C 
ATOM      6  C   LIG    1       -4.474  -1.573  -0.075  0.00  0.00    +0.152 C 
ATOM      7  C   LIG    1       -0.948  -1.524   0.227  0.00  0.00    +0.105 C 
ATOM      8  C   LIG    1       -0.207  -2.508   1.035  0.00  0.00    +0.175 C 
ATOM      9  C   LIG    1        1.265  -2.450   1.037  0.00  0.00    +0.152 C 
ATOM     10  C   LIG    1        1.890  -1.317   0.301  0.00  0.00    +0.058 C 
ATOM     11  C   LIG    1        1.063  -0.073   0.657  0.00  0.00    +0.017 C 
ATOM     12  C   LIG    1        1.747   1.171   0.208  0.00  0.00    +0.089 C 
ATOM     13  N   LIG    1        3.136   1.240   0.689  0.00  0.00    -0.296 NA
ATOM     14  C   LIG    1        3.615   2.546   0.372  0.00  0.00    +0.088 C 
ATOM     15  C   LIG    1        5.015   2.593  -0.147  0.00  0.00    +0.000 C 
ATOM     16  C   LIG    1        5.900   1.558   0.504  0.00  0.00    +0.006 C 
ATOM     17  C   LIG    1        5.326   0.202   0.261  0.00  0.00    +0.022 C 
ATOM     18  C   LIG    1        5.598   3.956   0.215  0.00  0.00    +0.009 C 
ATOM     19  C   LIG    1        3.849   0.178   0.068  0.00  0.00    +0.088 C 
ATOM     20  C   LIG    1        3.328  -1.147   0.602  0.00  0.00    +0.084 C 
ATOM     21  C   LIG    1        4.111  -2.228  -0.116  0.00  0.00    +0.043 C 
ATOM     22  C   LIG    1       -0.205  -0.252  -0.099  0.00  0.00    +0.031 C 
ATOM     23  C   LIG    1       -1.184   0.913   0.120  0.00  0.00    +0.043 C 
ATOM     24  O   LIG    1       -2.480  -0.285  -1.400  0.00  0.00    -0.339 OA
ATOM     25  C   LIG    1       -3.748  -0.153  -1.898  0.00  0.00    +0.200 C 
ATOM     26  C   LIG    1       -3.971   1.154  -2.645  0.00  0.00    +0.174 C 
ATOM     27  C   LIG    1       -4.607   2.159  -1.726  0.00  0.00    +0.037 C 
ATOM     28  C   LIG    1       -3.829   2.170  -0.446  0.00  0.00    +0.013 C 
ATOM     29  C   LIG    1       -4.588  -0.194  -0.610  0.00  0.00    +0.090 C 
ENDROOT
BRANCH   5  30
ATOM     30  O   LIG    1       -3.114  -3.222   0.879  0.00  0.00    -0.389 OA
ATOM     31  H   LIG    1       -3.027  -3.606   1.782  0.00  0.00    +0.210 HD
ENDBRANCH   5  30
BRANCH   6  32
ATOM     32  O   LIG    1       -4.334  -2.527  -1.111  0.00  0.00    -0.389 OA
ATOM     33  H   LIG    1       -4.317  -3.421  -0.726  0.00  0.00    +0.210 HD
ENDBRANCH   6  32
BRANCH   9  34
ATOM     34  O   LIG    1        1.706  -2.360   2.379  0.00  0.00    -0.389 OA
ATOM     35  H   LIG    1        1.414  -3.114   2.918  0.00  0.00    +0.210 HD
ENDBRANCH   9  34
BRANCH  20  36
ATOM     36  O   LIG    1        3.589  -1.282   1.963  0.00  0.00    -0.387 OA
ATOM     37  H   LIG    1        3.486  -0.395   2.374  0.00  0.00    +0.210 HD
ENDBRANCH  20  36
BRANCH   8  38
ATOM     38  O   LIG    1       -0.566  -3.801   0.575  0.00  0.00    -0.386 OA
ATOM     39  H   LIG    1        0.100  -4.132  -0.074  0.00  0.00    +0.210 HD
ENDBRANCH   8  38
BRANCH   7  40
ATOM     40  O   LIG    1       -1.334  -2.104  -1.004  0.00  0.00    -0.385 OA
ATOM     41  H   LIG    1       -0.527  -2.265  -1.563  0.00  0.00    +0.210 HD
ENDBRANCH   7  40
BRANCH  26  42
ATOM     42  O   LIG    1       -4.724   0.973  -3.800  0.00  0.00    -0.386 OA
ATOM     43  H   LIG    1       -4.427   1.557  -4.542  0.00  0.00    +0.210 HD
ENDBRANCH  26  42
BRANCH  25  44
ATOM     44  O   LIG    1       -4.123  -1.165  -2.779  0.00  0.00    -0.362 OA
ATOM     45  H   LIG    1       -3.445  -1.214  -3.473  0.00  0.00    +0.213 HD
ENDBRANCH  25  44
TORSDOF 8
