REMARK  Name = molecules/CKLJMWTZIZZHCS-REOHCLBHSA-N.pdb
REMARK                            x       y       z     vdW  Elec       q    Type
REMARK                         _______ _______ _______ _____ _____    ______ ____
ROOT
ATOM      1  CA  ASP A  1       -0.554  -0.263   0.096  0.00  0.00    +0.171 C 
ENDROOT
BRANCH   1   2
ATOM      2  N   ASP A  1        0.156  -1.372   0.698  0.00  0.00    -0.318 NA
ATOM      3  H1  ASP A  1       -0.325  -1.808   1.489  0.00  0.00    +0.119 HD
ATOM      4  H2  ASP A  1        0.366  -2.045  -0.081  0.00  0.00    +0.119 HD
ENDBRANCH   1   2
BRANCH   1   5
ATOM      5  C   ASP A  1       -1.411  -0.791  -0.987  0.00  0.00    +0.322 C 
ATOM      6  OXT ASP A  1       -1.425  -2.013  -1.234  0.00  0.00    -0.249 OA
BRANCH   5   7
ATOM      7  O   ASP A  1       -2.218   0.030  -1.757  0.00  0.00    -0.480 OA
ATOM      8  H   ASP A  1       -3.201   0.184  -1.566  0.00  0.00    +0.295 HD
ENDBRANCH   5   7
ENDBRANCH   1   5
BRANCH   1   9
ATOM      9  CB  ASP A  1        0.452   0.718  -0.472  0.00  0.00    +0.150 C 
BRANCH   9  10
ATOM     10  CG  ASP A  1        1.338   1.232   0.601  0.00  0.00    +0.307 C 
ATOM     11  OD2 ASP A  1        0.934   2.132   1.376  0.00  0.00    -0.251 OA
BRANCH  10  12
ATOM     12  OD1 ASP A  1        2.625   0.726   0.764  0.00  0.00    -0.481 OA
ATOM     13  HD1 ASP A  1        3.402   1.271   1.069  0.00  0.00    +0.295 HD
ENDBRANCH  10  12
ENDBRANCH   9  10
ENDBRANCH   1   9
TORSDOF 6
