REMARK  Name = molecules/CKNOLMVLQUPVMU-YMMLYESFSA-N.pdb
REMARK                            x       y       z     vdW  Elec       q    Type
REMARK                         _______ _______ _______ _____ _____    ______ ____
ROOT
ATOM      1  C   LIG    1       -5.520   0.569   1.544  0.00  0.00    +0.077 C 
ATOM      2  C   LIG    1       -4.110   0.087   1.506  0.00  0.00    +0.025 C 
ATOM      3  C   LIG    1       -3.187   1.305   1.682  0.00  0.00    +0.007 C 
ATOM      4  C   LIG    1       -1.833   0.768   1.970  0.00  0.00    +0.004 C 
ATOM      5  C   LIG    1       -1.306  -0.210   0.983  0.00  0.00    -0.002 C 
ATOM      6  C   LIG    1       -2.318  -1.156   0.419  0.00  0.00    -0.026 C 
ATOM      7  C   LIG    1       -2.491  -2.376   1.293  0.00  0.00    +0.012 C 
ATOM      8  C   LIG    1       -1.853  -1.653  -0.939  0.00  0.00    +0.010 C 
ATOM      9  C   LIG    1       -0.339  -1.782  -0.846  0.00  0.00    +0.032 C 
ATOM     10  C   LIG    1        0.186  -0.358  -1.032  0.00  0.00    +0.122 C 
ATOM     11  C   LIG    1       -0.555   0.551  -0.090  0.00  0.00    +0.035 C 
ATOM     12  C   LIG    1       -3.675  -0.534   0.220  0.00  0.00    +0.001 C 
ATOM     13  C   LIG    1       -4.655  -1.485  -0.353  0.00  0.00    +0.005 C 
ATOM     14  C   LIG    1       -5.896  -1.673   0.440  0.00  0.00    +0.010 C 
ATOM     15  C   LIG    1       -6.522  -0.399   0.959  0.00  0.00    +0.006 C 
ATOM     16  C   LIG    1       -7.418  -0.816   2.099  0.00  0.00    +0.015 C 
ATOM     17  C   LIG    1       -7.214   0.337  -0.138  0.00  0.00    +0.056 C 
ATOM     18  C   LIG    1       -7.146   1.781   0.342  0.00  0.00    +0.125 C 
ATOM     19  C   LIG    1       -5.699   1.856   0.774  0.00  0.00    +0.067 C 
ENDROOT
BRANCH  17  20
ATOM     20  C   LIG    1       -8.546  -0.103  -0.531  0.00  0.00    -0.020 C 
ATOM     21  C   LIG    1       -9.816  -0.146   0.211  0.00  0.00    +0.264 C 
ATOM     22  O   LIG    1      -10.788  -0.666  -0.651  0.00  0.00    -0.457 OA
ATOM     23  C   LIG    1      -10.201  -0.915  -1.864  0.00  0.00    +0.332 C 
ATOM     24  O   LIG    1      -10.744  -1.379  -2.923  0.00  0.00    -0.246 OA
ATOM     25  C   LIG    1       -8.801  -0.557  -1.772  0.00  0.00    +0.094 C 
ENDBRANCH  17  20
BRANCH   1  26
ATOM     26  O   LIG    1       -5.805   0.865   2.896  0.00  0.00    -0.388 OA
ATOM     27  H   LIG    1       -5.569   1.821   3.085  0.00  0.00    +0.210 HD
ENDBRANCH   1  26
BRANCH  18  28
ATOM     28  O   LIG    1       -7.940   2.001   1.449  0.00  0.00    -0.391 OA
ATOM     29  H   LIG    1       -7.604   2.767   1.955  0.00  0.00    +0.210 HD
ENDBRANCH  18  28
BRANCH  10  30
ATOM     30  O   LIG    1        1.538  -0.268  -0.957  0.00  0.00    -0.345 OA
BRANCH  30  31
ATOM     31  C   LIG    1        2.247   0.099  -2.049  0.00  0.00    +0.282 C 
ATOM     32  C   LIG    1        3.007   1.412  -1.910  0.00  0.00    +0.201 C 
ATOM     33  C   LIG    1        4.456   1.229  -2.299  0.00  0.00    +0.182 C 
ATOM     34  C   LIG    1        5.105   0.067  -1.644  0.00  0.00    +0.181 C 
ATOM     35  C   LIG    1        4.114  -1.065  -1.506  0.00  0.00    +0.150 C 
ATOM     36  C   LIG    1        3.670  -1.241  -0.067  0.00  0.00    +0.041 C 
ATOM     37  O   LIG    1        3.114  -0.924  -2.413  0.00  0.00    -0.343 OA
BRANCH  33  38
ATOM     38  O   LIG    1        5.136   2.431  -2.194  0.00  0.00    -0.374 OA
ATOM     39  C   LIG    1        5.553   2.931  -3.423  0.00  0.00    +0.194 C 
ENDBRANCH  33  38
BRANCH  32  40
ATOM     40  O   LIG    1        2.445   2.444  -2.651  0.00  0.00    -0.384 OA
ATOM     41  H   LIG    1        1.561   2.111  -2.967  0.00  0.00    +0.210 HD
ENDBRANCH  32  40
BRANCH  34  42
ATOM     42  O   LIG    1        5.546   0.478  -0.360  0.00  0.00    -0.340 OA
BRANCH  42  43
ATOM     43  C   LIG    1        6.909   0.260  -0.181  0.00  0.00    +0.282 C 
ATOM     44  O   LIG    1        6.984  -0.694   0.869  0.00  0.00    -0.341 OA
ATOM     45  C   LIG    1        8.267  -1.218   0.838  0.00  0.00    +0.178 C 
ATOM     46  C   LIG    1        9.194  -0.186   1.448  0.00  0.00    +0.177 C 
ATOM     47  C   LIG    1        9.097   1.050   0.610  0.00  0.00    +0.179 C 
ATOM     48  C   LIG    1        7.649   1.469   0.335  0.00  0.00    +0.201 C 
BRANCH  46  49
ATOM     49  O   LIG    1       10.494  -0.672   1.334  0.00  0.00    -0.386 OA
ATOM     50  H   LIG    1       11.173   0.023   1.468  0.00  0.00    +0.210 HD
ENDBRANCH  46  49
BRANCH  47  51
ATOM     51  O   LIG    1        9.794   2.132   1.172  0.00  0.00    -0.386 OA
ATOM     52  H   LIG    1       10.167   2.726   0.496  0.00  0.00    +0.210 HD
ENDBRANCH  47  51
BRANCH  48  53
ATOM     53  O   LIG    1        7.735   2.505  -0.581  0.00  0.00    -0.384 OA
ATOM     54  H   LIG    1        7.839   2.200  -1.505  0.00  0.00    +0.210 HD
ENDBRANCH  48  53
BRANCH  45  55
ATOM     55  C   LIG    1        8.242  -2.490   1.660  0.00  0.00    +0.190 C 
BRANCH  55  56
ATOM     56  O   LIG    1        9.466  -3.127   1.721  0.00  0.00    -0.392 OA
ATOM     57  H   LIG    1        9.942  -2.754   2.514  0.00  0.00    +0.210 HD
ENDBRANCH  55  56
ENDBRANCH  45  55
ENDBRANCH  42  43
ENDBRANCH  34  42
ENDBRANCH  30  31
ENDBRANCH  10  30
TORSDOF 14
