REMARK  Name = molecules/CKWHSYRZDLWQFV-HNNXBMFYSA-N.pdb
REMARK                            x       y       z     vdW  Elec       q    Type
REMARK                         _______ _______ _______ _____ _____    ______ ____
ROOT
ATOM      1  C   LIG    1        1.035  -0.098  -0.393  0.00  0.00    +0.315 C 
ATOM      2  O   LIG    1        0.599   0.896   0.229  0.00  0.00    -0.250 OA
ENDROOT
BRANCH   1   3
ATOM      3  C   LIG    1        2.477  -0.439  -0.481  0.00  0.00    +0.127 C 
BRANCH   3   4
ATOM      4  C   LIG    1        3.337   0.506   0.226  0.00  0.00    -0.034 A 
ATOM      5  C   LIG    1        4.087   0.057   1.290  0.00  0.00    +0.004 A 
ATOM      6  C   LIG    1        4.901   0.903   1.984  0.00  0.00    +0.000 A 
ATOM      7  C   LIG    1        4.970   2.246   1.601  0.00  0.00    +0.000 A 
ATOM      8  C   LIG    1        4.208   2.681   0.528  0.00  0.00    +0.000 A 
ATOM      9  C   LIG    1        3.391   1.828  -0.167  0.00  0.00    +0.004 A 
ENDBRANCH   3   4
BRANCH   3  10
ATOM     10  C   LIG    1        2.850  -0.563  -1.928  0.00  0.00    +0.016 C 
ATOM     11  C   LIG    1        2.092  -1.619  -2.658  0.00  0.00    +0.005 C 
ENDBRANCH   3  10
ENDBRANCH   1   3
BRANCH   1  12
ATOM     12  O   LIG    1        0.150  -0.926  -1.031  0.00  0.00    -0.463 OA
BRANCH  12  13
ATOM     13  C   LIG    1       -1.272  -0.744  -1.036  0.00  0.00    +0.247 C 
BRANCH  13  14
ATOM     14  C   LIG    1       -1.821  -0.840   0.346  0.00  0.00    +0.125 C 
BRANCH  14  15
ATOM     15  N   LIG    1       -3.219  -0.685   0.513  0.00  0.00    -0.300 NA
BRANCH  15  16
ATOM     16  C   LIG    1       -3.551  -0.860   1.919  0.00  0.00    +0.081 C 
ATOM     17  C   LIG    1       -5.013  -0.719   2.189  0.00  0.00    +0.020 C 
ENDBRANCH  15  16
BRANCH  15  18
ATOM     18  C   LIG    1       -3.845   0.486   0.020  0.00  0.00    +0.081 C 
ATOM     19  C   LIG    1       -3.944   0.632  -1.456  0.00  0.00    +0.020 C 
ENDBRANCH  15  18
ENDBRANCH  14  15
ENDBRANCH  13  14
ENDBRANCH  12  13
ENDBRANCH   1  12
TORSDOF 9
