REMARK  Name = molecules/CLPFFLWZZBQMAO-CQSZACIVSA-N.pdb
REMARK                            x       y       z     vdW  Elec       q    Type
REMARK                         _______ _______ _______ _____ _____    ______ ____
ROOT
ATOM      1  N   LIG    1       -1.352  -0.909  -0.387  0.00  0.00    -0.327 N 
ATOM      2  C   LIG    1       -0.588  -0.760   0.808  0.00  0.00    +0.118 C 
ATOM      3  C   LIG    1       -1.058   0.239   1.782  0.00  0.00    +0.030 C 
ATOM      4  C   LIG    1       -2.045   1.237   1.356  0.00  0.00    +0.008 C 
ATOM      5  C   LIG    1       -2.290   1.350  -0.116  0.00  0.00    +0.055 C 
ATOM      6  C   LIG    1       -2.143   0.058  -0.827  0.00  0.00    +0.039 A 
ATOM      7  C   LIG    1       -2.735  -0.372  -1.978  0.00  0.00    +0.133 A 
ATOM      8  N   LIG    1       -2.288  -1.617  -2.227  0.00  0.00    -0.244 NA
ATOM      9  C   LIG    1       -1.434  -1.947  -1.243  0.00  0.00    +0.200 A 
ENDROOT
BRANCH   2  10
ATOM     10  C   LIG    1        0.825  -0.453   0.378  0.00  0.00    -0.025 A 
ATOM     11  C   LIG    1        1.247   0.853   0.213  0.00  0.00    +0.007 A 
ATOM     12  C   LIG    1        2.539   1.134  -0.181  0.00  0.00    +0.019 A 
ATOM     13  C   LIG    1        3.458   0.137  -0.426  0.00  0.00    +0.052 A 
ATOM     14  C   LIG    1        3.023  -1.163  -0.258  0.00  0.00    +0.019 A 
ATOM     15  C   LIG    1        1.734  -1.456   0.136  0.00  0.00    +0.007 A 
BRANCH  13  16
ATOM     16  C   LIG    1        4.793   0.470  -0.835  0.00  0.00    +0.099 C 
ATOM     17  N   LIG    1        5.878   0.719  -1.160  0.00  0.00    -0.191 NA
ENDBRANCH  13  16
ENDBRANCH   2  10
TORSDOF 2
