REMARK  Name = molecules/CMHHMUWAYWTMGS-UHFFFAOYSA-N.pdb
REMARK                            x       y       z     vdW  Elec       q    Type
REMARK                         _______ _______ _______ _____ _____    ______ ____
ROOT
ATOM      1  C   LIG    1        0.453  -0.337  -1.116  0.00  0.00    +0.063 A 
ATOM      2  C   LIG    1        1.583  -0.085  -0.359  0.00  0.00    +0.062 A 
ATOM      3  C   LIG    1        2.568   0.714  -0.896  0.00  0.00    +0.142 A 
ATOM      4  C   LIG    1        2.466   1.263  -2.145  0.00  0.00    +0.067 A 
ATOM      5  C   LIG    1        1.320   1.003  -2.903  0.00  0.00    +0.027 A 
ATOM      6  C   LIG    1        0.324   0.207  -2.386  0.00  0.00    +0.017 A 
ENDROOT
BRANCH   4   7
ATOM      7  N   LIG    1        3.496   2.076  -2.659  0.00  0.00    -0.355 N 
ATOM      8  H   LIG    1        3.458   3.110  -2.498  0.00  0.00    +0.142 HD
ATOM      9  H   LIG    1        4.293   1.682  -3.192  0.00  0.00    +0.142 HD
ENDBRANCH   4   7
BRANCH   1  10
ATOM     10  C   LIG    1       -0.600  -1.173  -0.566  0.00  0.00    +0.339 C 
ATOM     11  O   LIG    1       -0.474  -1.659   0.584  0.00  0.00    -0.245 OA
BRANCH  10  12
ATOM     12  O   LIG    1       -1.761  -1.478  -1.241  0.00  0.00    -0.460 OA
BRANCH  12  13
ATOM     13  C   LIG    1       -2.789  -2.289  -0.707  0.00  0.00    +0.248 C 
BRANCH  13  14
ATOM     14  C   LIG    1       -3.377  -1.752   0.542  0.00  0.00    +0.125 C 
BRANCH  14  15
ATOM     15  N   LIG    1       -3.967  -0.413   0.359  0.00  0.00    -0.300 NA
BRANCH  15  16
ATOM     16  C   LIG    1       -4.162   0.098   1.679  0.00  0.00    +0.081 C 
ATOM     17  C   LIG    1       -4.692   1.474   1.810  0.00  0.00    +0.020 C 
ENDBRANCH  15  16
BRANCH  15  18
ATOM     18  C   LIG    1       -5.119  -0.566  -0.454  0.00  0.00    +0.081 C 
ATOM     19  C   LIG    1       -5.870   0.698  -0.781  0.00  0.00    +0.020 C 
ENDBRANCH  15  18
ENDBRANCH  14  15
ENDBRANCH  13  14
ENDBRANCH  12  13
ENDBRANCH  10  12
ENDBRANCH   1  10
BRANCH   3  20
ATOM     20  O   LIG    1        3.706   0.977  -0.150  0.00  0.00    -0.490 OA
BRANCH  20  21
ATOM     21  C   LIG    1        3.852   0.427   1.146  0.00  0.00    +0.229 C 
BRANCH  21  22
ATOM     22  C   LIG    1        5.138   0.821   1.799  0.00  0.00    +0.041 C 
BRANCH  22  23
ATOM     23  C   LIG    1        6.300   0.352   0.971  0.00  0.00    -0.000 C 
ATOM     24  C   LIG    1        6.267  -1.152   0.825  0.00  0.00    +0.004 C 
ENDBRANCH  22  23
ENDBRANCH  21  22
ENDBRANCH  20  21
ENDBRANCH   3  20
TORSDOF 12
