REMARK  Name = molecules/CMJCXYNUCSMDBY-ZDUSSCGKSA-N.pdb
REMARK                            x       y       z     vdW  Elec       q    Type
REMARK                         _______ _______ _______ _____ _____    ______ ____
ROOT
ATOM      1  C   LIG    1       -2.346  -1.648  -0.264  0.00  0.00    +0.105 A 
ATOM      2  N   LIG    1       -3.386  -2.462  -0.511  0.00  0.00    -0.170 NA
ATOM      3  N   LIG    1       -3.020  -3.578  -1.102  0.00  0.00    -0.268 N 
ATOM      4  C   LIG    1       -1.686  -3.508  -1.254  0.00  0.00    +0.119 A 
ATOM      5  C   LIG    1       -1.225  -2.313  -0.742  0.00  0.00    +0.046 A 
ENDROOT
BRANCH   1  11
ATOM      6  C   LIG    1       -1.663   1.198   2.108  0.00  0.00    +0.044 A 
ATOM      7 CL   LIG    1       -0.776   1.531   3.594  0.00  0.00    -0.083 Cl
ATOM      8  C   LIG    1       -2.369   2.242   1.541  0.00  0.00    +0.047 A 
ATOM      9  C   LIG    1       -3.063   1.982   0.378  0.00  0.00    +0.085 A 
ATOM     10  C   LIG    1       -3.042   0.726  -0.184  0.00  0.00    +0.155 A 
ATOM     11  C   LIG    1       -2.340  -0.328   0.372  0.00  0.00    +0.041 A 
ATOM     12  F   LIG    1       -3.722   0.458  -1.331  0.00  0.00    -0.203 F 
ATOM     13  C   LIG    1       -1.644  -0.071   1.536  0.00  0.00    +0.033 A 
BRANCH   9  14
ATOM     14  N   LIG    1       -3.794   3.055  -0.211  0.00  0.00    -0.218 N 
ATOM     15  H   LIG    1       -4.333   2.839  -1.078  0.00  0.00    +0.173 HD
BRANCH  14  16
ATOM     16  S   LIG    1       -3.816   4.635   0.437  0.00  0.00    +0.040 S 
ATOM     17  C   LIG    1       -4.502   4.676   2.070  0.00  0.00    +0.218 C 
ATOM     18  O   LIG    1       -2.428   5.227   0.416  0.00  0.00    -0.155 OA
ATOM     19  O   LIG    1       -4.668   5.514  -0.431  0.00  0.00    -0.155 OA
ENDBRANCH  14  16
ENDBRANCH   9  14
ENDBRANCH   1  11
BRANCH   5  20
ATOM     20  C   LIG    1        0.160  -1.854  -0.711  0.00  0.00    +0.080 A 
ATOM     21  C   LIG    1        1.115  -2.587  -0.033  0.00  0.00    +0.048 A 
ATOM     22  C   LIG    1        2.436  -2.204   0.033  0.00  0.00    +0.116 A 
ATOM     23  N   LIG    1        2.785  -1.076  -0.590  0.00  0.00    -0.223 NA
ATOM     24  C   LIG    1        1.886  -0.344  -1.254  0.00  0.00    +0.216 A 
ATOM     25  N   LIG    1        0.578  -0.728  -1.317  0.00  0.00    -0.214 NA
BRANCH  24  26
ATOM     26  N   LIG    1        2.318   0.843  -1.898  0.00  0.00    -0.312 N 
ATOM     27  H   LIG    1        1.585   1.408  -2.425  0.00  0.00    +0.149 HD
BRANCH  26  28
ATOM     28  C   LIG    1        3.668   1.304  -1.871  0.00  0.00    +0.126 C 
BRANCH  28  29
ATOM     29  C   LIG    1        4.145   1.605  -0.469  0.00  0.00    +0.090 C 
ATOM     30  C   LIG    1        3.259   2.752   0.038  0.00  0.00    +0.029 C 
BRANCH  29  31
ATOM     31  N   LIG    1        5.525   2.067  -0.536  0.00  0.00    -0.277 N 
ATOM     32  C   LIG    1        6.491   1.396   0.231  0.00  0.00    +0.400 C 
ATOM     33  O   LIG    1        6.211   0.418   0.967  0.00  0.00    -0.226 OA
ATOM     34  H   LIG    1        5.765   2.870  -1.138  0.00  0.00    +0.152 HD
BRANCH  32  35
ATOM     35  O   LIG    1        7.824   1.817   0.188  0.00  0.00    -0.454 OA
ATOM     36  C   LIG    1        8.783   1.128   0.967  0.00  0.00    +0.282 C 
ENDBRANCH  32  35
ENDBRANCH  29  31
ENDBRANCH  28  29
ENDBRANCH  26  28
ENDBRANCH  24  26
ENDBRANCH   5  20
BRANCH   3  37
ATOM     37  C   LIG    1       -3.878  -4.696  -1.523  0.00  0.00    +0.101 C 
ATOM     38  C   LIG    1       -3.732  -5.832  -0.534  0.00  0.00    +0.032 C 
ATOM     39  C   LIG    1       -5.332  -4.224  -1.431  0.00  0.00    +0.032 C 
ENDBRANCH   3  37
TORSDOF 10
