REMARK  Name = molecules/CMKUGKVVUUGBHJ-UHFFFAOYSA-N.pdb
REMARK                            x       y       z     vdW  Elec       q    Type
REMARK                         _______ _______ _______ _____ _____    ______ ____
ROOT
ATOM      1  N   LIG    1       -0.386   0.102  -1.037  0.00  0.00    -0.323 N 
ATOM      2  C   LIG    1        0.851   0.186  -0.526  0.00  0.00    +0.151 A 
ATOM      3  C   LIG    1        1.559   1.119   0.228  0.00  0.00    +0.282 A 
ATOM      4  N   LIG    1        2.851   0.896   0.599  0.00  0.00    -0.262 N 
ATOM      5  C   LIG    1        3.509   1.937   1.386  0.00  0.00    +0.157 C 
ATOM      6  C   LIG    1        3.463  -0.221   0.246  0.00  0.00    +0.333 A 
ATOM      7  O   LIG    1        4.637  -0.421   0.584  0.00  0.00    -0.246 OA
ATOM      8  N   LIG    1        2.813  -1.135  -0.477  0.00  0.00    -0.280 N 
ATOM      9  C   LIG    1        3.476  -2.367  -0.868  0.00  0.00    +0.155 C 
ATOM     10  O   LIG    1        0.985   2.166   0.559  0.00  0.00    -0.265 OA
ATOM     11  C   LIG    1        1.539  -0.980  -0.876  0.00  0.00    +0.168 A 
ATOM     12  N   LIG    1        0.683  -1.710  -1.582  0.00  0.00    -0.218 NA
ATOM     13  C   LIG    1       -0.503  -1.088  -1.705  0.00  0.00    +0.202 A 
ENDROOT
BRANCH   1  14
ATOM     14  C   LIG    1       -1.393   1.120  -0.881  0.00  0.00    +0.139 C 
BRANCH  14  15
ATOM     15  C   LIG    1       -2.244   0.927   0.351  0.00  0.00    +0.105 C 
BRANCH  15  16
ATOM     16  N   LIG    1       -2.950  -0.342   0.308  0.00  0.00    -0.307 NA
ATOM     17  C   LIG    1       -3.676  -0.503   1.550  0.00  0.00    +0.104 C 
ATOM     18  C   LIG    1       -3.967  -0.309  -0.762  0.00  0.00    +0.104 C 
ENDBRANCH  15  16
ENDBRANCH  14  15
ENDBRANCH   1  14
TORSDOF 3
