REMARK  Name = molecules/CNBGNNVCVSKAQZ-UHFFFAOYSA-N.pdb
REMARK                            x       y       z     vdW  Elec       q    Type
REMARK                         _______ _______ _______ _____ _____    ______ ____
ROOT
ATOM      1  N   LIG    1        1.721  -0.312   0.945  0.00  0.00    -0.256 N 
ATOM      2  C   LIG    1        1.113   0.813   1.362  0.00  0.00    +0.073 A 
ATOM      3  C   LIG    1        1.519   1.864   2.182  0.00  0.00    +0.028 A 
ATOM      4  C   LIG    1        0.688   2.928   2.463  0.00  0.00    +0.002 A 
ATOM      5  C   LIG    1       -0.576   2.946   1.917  0.00  0.00    +0.001 A 
ATOM      6  C   LIG    1       -0.973   1.904   1.106  0.00  0.00    +0.015 A 
ATOM      7  C   LIG    1       -0.164   0.834   0.811  0.00  0.00    +0.063 A 
ATOM      8  C   LIG    1       -0.294  -0.316   0.053  0.00  0.00    +0.242 A 
ATOM      9  N   LIG    1        0.858  -0.957   0.172  0.00  0.00    -0.132 NA
ENDROOT
BRANCH   1  10
ATOM     10  C   LIG    1        3.080  -0.719   1.294  0.00  0.00    +0.179 C 
BRANCH  10  11
ATOM     11  C   LIG    1        4.086  -0.225   0.335  0.00  0.00    -0.026 A 
ATOM     12  C   LIG    1        4.736   0.980   0.488  0.00  0.00    +0.005 A 
ATOM     13  C   LIG    1        5.680   1.426  -0.424  0.00  0.00    +0.000 A 
ATOM     14  C   LIG    1        6.006   0.682  -1.523  0.00  0.00    +0.000 A 
ATOM     15  C   LIG    1        5.366  -0.522  -1.690  0.00  0.00    +0.000 A 
ATOM     16  C   LIG    1        4.428  -0.967  -0.785  0.00  0.00    +0.005 A 
ENDBRANCH  10  11
ENDBRANCH   1  10
BRANCH   8  17
ATOM     17  O   LIG    1       -1.446  -0.620  -0.641  0.00  0.00    -0.475 OA
BRANCH  17  18
ATOM     18  C   LIG    1       -1.568  -1.814  -1.421  0.00  0.00    +0.232 C 
BRANCH  18  19
ATOM     19  C   LIG    1       -2.908  -1.914  -2.074  0.00  0.00    +0.056 C 
BRANCH  19  20
ATOM     20  C   LIG    1       -4.042  -1.933  -1.077  0.00  0.00    +0.087 C 
BRANCH  20  21
ATOM     21  N   LIG    1       -4.072  -0.733  -0.266  0.00  0.00    -0.308 NA
ATOM     22  C   LIG    1       -5.213  -0.903   0.648  0.00  0.00    +0.104 C 
ATOM     23  C   LIG    1       -4.403   0.438  -1.083  0.00  0.00    +0.104 C 
ENDBRANCH  20  21
ENDBRANCH  19  20
ENDBRANCH  18  19
ENDBRANCH  17  18
ENDBRANCH   8  17
TORSDOF 7
