REMARK  Name = molecules/CNBHDDBNEKKMJH-ZFWWWQNUSA-N.pdb
REMARK                            x       y       z     vdW  Elec       q    Type
REMARK                         _______ _______ _______ _____ _____    ______ ____
ROOT
ATOM      1  C   LIG    1       -1.564   1.994   0.115  0.00  0.00    +0.020 C 
ATOM      2  C   LIG    1       -1.370   0.495   0.104  0.00  0.00    +0.041 C 
ATOM      3  C   LIG    1       -1.490  -0.096   1.468  0.00  0.00    +0.033 C 
ATOM      4  C   LIG    1       -2.940  -0.481   1.704  0.00  0.00    +0.115 C 
ATOM      5  N   LIG    1       -3.705   0.118   0.641  0.00  0.00    -0.189 NA
ATOM      6  C   LIG    1       -5.084   0.312   0.951  0.00  0.00    +0.137 C 
ATOM      7  O   LIG    1       -3.478  -0.507  -0.516  0.00  0.00    -0.274 OA
ATOM      8  C   LIG    1        0.029   0.223  -0.378  0.00  0.00    -0.013 A 
ATOM      9  C   LIG    1        1.228   0.840  -0.182  0.00  0.00    +0.052 A 
ATOM     10  C   LIG    1        2.355   0.323  -0.775  0.00  0.00    +0.134 A 
ATOM     11  C   LIG    1        2.314  -0.796  -1.560  0.00  0.00    +0.048 A 
ATOM     12  C   LIG    1        1.090  -1.420  -1.755  0.00  0.00    +0.027 A 
ATOM     13  C   LIG    1       -0.055  -0.905  -1.160  0.00  0.00    +0.035 A 
ATOM     14  N   LIG    1       -1.401  -1.364  -1.218  0.00  0.00    -0.305 N 
ATOM     15  C   LIG    1       -1.808  -2.719  -1.498  0.00  0.00    +0.132 C 
ATOM     16  C   LIG    1       -2.197  -0.178  -0.938  0.00  0.00    +0.239 C 
ENDROOT
BRANCH  10  17
ATOM     17  O   LIG    1        3.557   0.983  -0.551  0.00  0.00    -0.412 OA
BRANCH  17  18
ATOM     18  C   LIG    1        4.389   0.664   0.515  0.00  0.00    +0.405 C 
ATOM     19  O   LIG    1        4.011  -0.261   1.288  0.00  0.00    -0.226 OA
ATOM     20  N   LIG    1        5.613   1.343   0.735  0.00  0.00    -0.284 N 
ATOM     21  C   LIG    1        6.439   0.969   1.862  0.00  0.00    +0.131 C 
ATOM     22  H   LIG    1        5.900   2.100   0.085  0.00  0.00    +0.152 HD
ENDBRANCH  17  18
ENDBRANCH  10  17
TORSDOF 2
