REMARK  Name = molecules/CNIIGCLFLJGOGP-UHFFFAOYSA-N.pdb
REMARK                            x       y       z     vdW  Elec       q    Type
REMARK                         _______ _______ _______ _____ _____    ______ ____
ROOT
ATOM      1  C   LIG    1       -0.318  -0.044  -0.165  0.00  0.00    -0.028 A 
ATOM      2  C   LIG    1       -1.633  -0.093   0.316  0.00  0.00    -0.014 A 
ATOM      3  C   LIG    1       -1.926  -0.210   1.657  0.00  0.00    +0.009 A 
ATOM      4  C   LIG    1       -3.224  -0.255   2.137  0.00  0.00    +0.001 A 
ATOM      5  C   LIG    1       -4.254  -0.176   1.228  0.00  0.00    +0.001 A 
ATOM      6  C   LIG    1       -4.010  -0.059  -0.120  0.00  0.00    +0.008 A 
ATOM      7  C   LIG    1       -2.694  -0.019  -0.555  0.00  0.00    -0.018 A 
ATOM      8  C   LIG    1       -2.464   0.105  -1.922  0.00  0.00    +0.008 A 
ATOM      9  C   LIG    1       -1.175   0.156  -2.416  0.00  0.00    +0.001 A 
ATOM     10  C   LIG    1       -0.107   0.079  -1.515  0.00  0.00    +0.005 A 
ENDROOT
BRANCH   1  11
ATOM     11  C   LIG    1        0.741  -0.104   0.866  0.00  0.00    +0.163 C 
BRANCH  11  12
ATOM     12  C   LIG    1        2.115  -0.223   0.343  0.00  0.00    +0.285 C 
ATOM     13  N   LIG    1        3.301   0.395   0.897  0.00  0.00    -0.233 N 
ATOM     14  H   LIG    1        3.263   1.053   1.696  0.00  0.00    +0.291 HD
ATOM     15  C   LIG    1        4.451  -0.043   0.179  0.00  0.00    +0.273 C 
ATOM     16  C   LIG    1        3.859  -0.861  -0.955  0.00  0.00    +0.333 C 
ATOM     17  N   LIG    1        2.457  -0.930  -0.672  0.00  0.00    -0.084 NA
ENDBRANCH  11  12
ENDBRANCH   1  11
TORSDOF 2
