REMARK  Name = molecules/COESHZUDRKCEPA-ZETCQYMHSA-N.pdb
REMARK                            x       y       z     vdW  Elec       q    Type
REMARK                         _______ _______ _______ _____ _____    ______ ____
ROOT
ATOM      1  C   LIG    1        1.332  -1.201  -0.012  0.00  0.00    +0.022 A 
ATOM      2  C   LIG    1        2.606  -0.729   0.046  0.00  0.00    +0.061 A 
ATOM      3 BR   LIG    1        3.999  -1.773   0.808  0.00  0.00    -0.046 Br
ATOM      4  C   LIG    1        2.890   0.519  -0.452  0.00  0.00    +0.145 A 
ATOM      5  C   LIG    1        1.864   1.255  -0.998  0.00  0.00    +0.061 A 
ATOM      6  C   LIG    1        0.562   0.765  -1.054  0.00  0.00    +0.022 A 
ATOM      7 BR   LIG    1        2.209   2.999  -1.706  0.00  0.00    -0.046 Br
ATOM      8  C   LIG    1        0.276  -0.469  -0.562  0.00  0.00    -0.043 A 
ENDROOT
BRANCH   4   9
ATOM      9  O   LIG    1        4.161   1.034  -0.414  0.00  0.00    -0.505 OA
ATOM     10  H   LIG    1        4.369   1.943  -0.777  0.00  0.00    +0.292 HD
ENDBRANCH   4   9
BRANCH   8  11
ATOM     11  C   LIG    1       -1.091  -1.021  -0.607  0.00  0.00    +0.065 C 
BRANCH  11  12
ATOM     12  CA  LIG    1       -1.911  -0.719   0.606  0.00  0.00    +0.165 C 
BRANCH  12  13
ATOM     13  N   LIG    1       -3.172  -1.403   0.488  0.00  0.00    -0.318 NA
ATOM     14  H1  LIG    1       -3.914  -0.795   0.925  0.00  0.00    +0.119 HD
ATOM     15  H2  LIG    1       -3.379  -1.574  -0.521  0.00  0.00    +0.119 HD
ENDBRANCH  12  13
BRANCH  12  16
ATOM     16  C   LIG    1       -2.119   0.703   0.887  0.00  0.00    +0.322 C 
ATOM     17  O   LIG    1       -3.295   1.138   0.964  0.00  0.00    -0.249 OA
BRANCH  16  18
ATOM     18  OXT LIG    1       -1.102   1.624   1.077  0.00  0.00    -0.480 OA
ATOM     19  HXT LIG    1       -1.186   2.509   0.579  0.00  0.00    +0.295 HD
ENDBRANCH  16  18
ENDBRANCH  12  16
ENDBRANCH  11  12
ENDBRANCH   8  11
TORSDOF 6
