REMARK  Name = molecules/COKMIXFXJJXBQG-NRFANRHFSA-N.pdb
REMARK                            x       y       z     vdW  Elec       q    Type
REMARK                         _______ _______ _______ _____ _____    ______ ____
ROOT
ATOM      1  C   LIG    1       -1.711   1.853   0.799  0.00  0.00    -0.045 A 
ATOM      2  C   LIG    1       -2.170   0.615   1.145  0.00  0.00    +0.007 A 
ATOM      3  C   LIG    1       -1.707  -0.539   0.547  0.00  0.00    +0.046 A 
ATOM      4  C   LIG    1       -0.725  -0.486  -0.461  0.00  0.00    +0.121 A 
ATOM      5  C   LIG    1       -0.251   0.779  -0.822  0.00  0.00    +0.046 A 
ATOM      6  C   LIG    1       -0.747   1.897  -0.193  0.00  0.00    +0.007 A 
ENDROOT
BRANCH   1   7
ATOM      7  C   LIG    1       -2.177   3.115   1.406  0.00  0.00    +0.067 C 
BRANCH   7   8
ATOM      8  C   LIG    1       -1.466   3.379   2.682  0.00  0.00    +0.188 C 
BRANCH   8   9
ATOM      9  N   LIG    1       -1.805   4.614   3.339  0.00  0.00    -0.180 NA
ATOM     10  H   LIG    1       -2.430   5.121   2.646  0.00  0.00    +0.149 HD
BRANCH   9  11
ATOM     11  S   LIG    1       -2.609   4.467   4.821  0.00  0.00    +0.030 S 
ATOM     12  O   LIG    1       -1.833   3.614   5.808  0.00  0.00    -0.158 OA
ATOM     13  O   LIG    1       -2.859   5.833   5.407  0.00  0.00    -0.158 OA
BRANCH  11  14
ATOM     14  C   LIG    1       -4.190   3.684   4.648  0.00  0.00    +0.185 C 
BRANCH  14  15
ATOM     15  C   LIG    1       -5.089   4.514   3.721  0.00  0.00    +0.024 C 
BRANCH  15  16
ATOM     16  C   LIG    1       -6.432   3.868   3.613  0.00  0.00    -0.002 C 
ATOM     17  C   LIG    1       -6.451   2.472   3.085  0.00  0.00    +0.004 C 
ENDBRANCH  15  16
ENDBRANCH  14  15
ENDBRANCH  11  14
ENDBRANCH   9  11
ENDBRANCH   8   9
BRANCH   8  18
ATOM     18  C   LIG    1       -0.015   3.146   2.637  0.00  0.00    +0.324 C 
ATOM     19  O   LIG    1        0.724   4.068   3.120  0.00  0.00    -0.249 OA
BRANCH  18  20
ATOM     20  O   LIG    1        0.538   2.024   2.119  0.00  0.00    -0.479 OA
ATOM     21  H   LIG    1        1.460   1.838   1.803  0.00  0.00    +0.295 HD
ENDBRANCH  18  20
ENDBRANCH   8  18
ENDBRANCH   7   8
ENDBRANCH   1   7
BRANCH   4  22
ATOM     22  O   LIG    1       -0.295  -1.645  -1.024  0.00  0.00    -0.492 OA
BRANCH  22  23
ATOM     23  C   LIG    1        0.629  -1.964  -1.980  0.00  0.00    +0.229 C 
BRANCH  23  24
ATOM     24  C   LIG    1        2.061  -1.604  -1.695  0.00  0.00    +0.041 C 
BRANCH  24  25
ATOM     25  C   LIG    1        2.969  -2.014  -2.826  0.00  0.00    +0.004 C 
BRANCH  25  26
ATOM     26  C   LIG    1        2.987  -3.488  -3.105  0.00  0.00    +0.004 C 
BRANCH  26  27
ATOM     27  C   LIG    1        3.957  -3.829  -4.233  0.00  0.00    -0.009 C 
ATOM     28  C   LIG    1        5.380  -3.465  -3.875  0.00  0.00    +0.018 C 
ATOM     29  C   LIG    1        6.300  -4.661  -3.816  0.00  0.00    +0.081 C 
ATOM     30  N   LIG    1        5.778  -5.703  -2.948  0.00  0.00    -0.316 NA
ATOM     31  H   LIG    1        5.907  -5.471  -1.955  0.00  0.00    +0.122 HD
ATOM     32  C   LIG    1        4.422  -6.082  -3.309  0.00  0.00    +0.081 C 
ATOM     33  C   LIG    1        3.924  -5.310  -4.497  0.00  0.00    +0.018 C 
ENDBRANCH  26  27
ENDBRANCH  25  26
ENDBRANCH  24  25
ENDBRANCH  23  24
ENDBRANCH  22  23
ENDBRANCH   4  22
TORSDOF 15
