REMARK  Name = molecules/COLNVLDHVKWLRT-QMMMGPOBSA-N.pdb
REMARK                            x       y       z     vdW  Elec       q    Type
REMARK                         _______ _______ _______ _____ _____    ______ ____
ROOT
ATOM      1  CA  PHE A  1       -1.694   0.063   0.715  0.00  0.00    +0.165 C 
ENDROOT
BRANCH   1   2
ATOM      2  N   PHE A  1       -2.968  -0.600   0.818  0.00  0.00    -0.318 NA
ATOM      3  H1  PHE A  1       -3.176  -0.978   1.746  0.00  0.00    +0.119 HD
ATOM      4  H2  PHE A  1       -3.165  -1.226   0.018  0.00  0.00    +0.119 HD
ENDBRANCH   1   2
BRANCH   1   5
ATOM      5  C   PHE A  1       -1.798   1.142  -0.287  0.00  0.00    +0.322 C 
ATOM      6  OXT PHE A  1       -0.835   1.927  -0.541  0.00  0.00    -0.249 OA
BRANCH   5   7
ATOM      7  O   PHE A  1       -2.989   1.304  -0.974  0.00  0.00    -0.480 OA
ATOM      8  H   PHE A  1       -3.503   0.511  -1.349  0.00  0.00    +0.295 HD
ENDBRANCH   5   7
ENDBRANCH   1   5
BRANCH   1   9
ATOM      9  CB  PHE A  1       -0.685  -0.980   0.288  0.00  0.00    +0.065 C 
BRANCH   9  10
ATOM     10  CG  PHE A  1        0.688  -0.447   0.132  0.00  0.00    -0.045 A 
ATOM     11  CD2 PHE A  1        1.609  -0.374   1.152  0.00  0.00    +0.004 A 
ATOM     12  CE2 PHE A  1        2.877   0.125   0.944  0.00  0.00    +0.000 A 
ATOM     13  CZ  PHE A  1        3.227   0.562  -0.325  0.00  0.00    +0.000 A 
ATOM     14  CE1 PHE A  1        2.333   0.504  -1.366  0.00  0.00    +0.000 A 
ATOM     15  CD1 PHE A  1        1.073  -0.003  -1.114  0.00  0.00    +0.004 A 
ENDBRANCH   9  10
ENDBRANCH   1   9
TORSDOF 5
