REMARK  Name = molecules/CORFWQGVBFFZHF-CKWBHOIGSA-N.pdb
REMARK                            x       y       z     vdW  Elec       q    Type
REMARK                         _______ _______ _______ _____ _____    ______ ____
ROOT
ATOM      1  C   LIG    1       -0.154  -0.610  -0.536  0.00  0.00    +0.246 C 
ATOM      2  N   LIG    1       -1.339   0.076  -0.184  0.00  0.00    -0.301 N 
ATOM      3  H   LIG    1       -1.253   0.830   0.530  0.00  0.00    +0.150 HD
ATOM      4  O   LIG    1       -0.264  -1.526  -1.404  0.00  0.00    -0.270 OA
ENDROOT
BRANCH   1   5
ATOM      5  C   LIG    1        1.146  -0.351   0.006  0.00  0.00    +0.050 A 
ATOM      6  C   LIG    1        1.319  -0.006   1.326  0.00  0.00    +0.014 A 
ATOM      7  C   LIG    1        2.580   0.231   1.796  0.00  0.00    +0.001 A 
ATOM      8  C   LIG    1        3.688   0.132   0.971  0.00  0.00    +0.001 A 
ATOM      9  C   LIG    1        3.507  -0.213  -0.347  0.00  0.00    +0.015 A 
ATOM     10  C   LIG    1        2.241  -0.454  -0.827  0.00  0.00    +0.025 A 
ATOM     11  I   LIG    1        2.062  -0.978  -2.863  0.00  0.00    -0.043 I 
ENDBRANCH   1   5
BRANCH   2  12
ATOM     12  C   LIG    1       -2.631  -0.221  -0.760  0.00  0.00    +0.225 C 
BRANCH  12  13
ATOM     13  C   LIG    1       -3.658   0.664  -0.186  0.00  0.00    +0.322 C 
ATOM     14  O   LIG    1       -3.348   1.512   0.669  0.00  0.00    -0.249 OA
BRANCH  13  15
ATOM     15  O   LIG    1       -4.966   0.554  -0.596  0.00  0.00    -0.480 OA
ATOM     16  H   LIG    1       -5.726   1.140  -0.353  0.00  0.00    +0.295 HD
ENDBRANCH  13  15
ENDBRANCH  12  13
ENDBRANCH   2  12
TORSDOF 4
