REMARK  Name = molecules/CPEUVMUXAHMANV-UHFFFAOYSA-N.pdb
REMARK                            x       y       z     vdW  Elec       q    Type
REMARK                         _______ _______ _______ _____ _____    ______ ____
ROOT
ATOM      1  C   LIG    1        1.519  -0.830   0.116  0.00  0.00    +0.024 A 
ATOM      2  C   LIG    1        0.430  -1.366   0.811  0.00  0.00    +0.041 A 
ATOM      3  C   LIG    1       -0.865  -0.980   0.561  0.00  0.00    +0.091 A 
ATOM      4  N   LIG    1       -2.054  -1.332   1.069  0.00  0.00    -0.214 NA
ATOM      5  C   LIG    1       -3.045  -0.635   0.455  0.00  0.00    +0.203 A 
ATOM      6  N   LIG    1       -2.429   0.150  -0.443  0.00  0.00    -0.326 N 
ATOM      7  H   LIG    1       -2.883   0.819  -1.089  0.00  0.00    +0.169 HD
ATOM      8  C   LIG    1       -1.090  -0.028  -0.412  0.00  0.00    +0.067 A 
ATOM      9  C   LIG    1       -0.018   0.496  -1.093  0.00  0.00    +0.028 A 
ATOM     10  C   LIG    1        1.293   0.119  -0.855  0.00  0.00    +0.014 A 
ENDROOT
BRANCH   5  11
ATOM     11  N   LIG    1       -4.423  -0.759   0.752  0.00  0.00    -0.221 N 
ATOM     12  H   LIG    1       -4.721  -1.438   1.509  0.00  0.00    +0.161 HD
ATOM     13  C   LIG    1       -5.411  -0.013   0.083  0.00  0.00    +0.406 C 
ATOM     14  O   LIG    1       -5.172   0.811  -0.823  0.00  0.00    -0.226 OA
BRANCH  13  15
ATOM     15  O   LIG    1       -6.773  -0.159   0.410  0.00  0.00    -0.453 OA
ATOM     16  C   LIG    1       -7.758   0.588  -0.262  0.00  0.00    +0.282 C 
ENDBRANCH  13  15
ENDBRANCH   5  11
BRANCH   1  17
ATOM     17  C   LIG    1        2.871  -1.274   0.379  0.00  0.00    +0.193 C 
ATOM     18  O   LIG    1        3.088  -2.463   0.762  0.00  0.00    -0.287 OA
BRANCH  17  19
ATOM     19  C   LIG    1        4.023  -0.413   0.223  0.00  0.00    +0.022 A 
ATOM     20  C   LIG    1        3.944   0.958   0.305  0.00  0.00    +0.014 A 
ATOM     21  C   LIG    1        5.058   1.778   0.137  0.00  0.00    +0.039 A 
ATOM     22  C   LIG    1        6.291   1.217  -0.120  0.00  0.00    +0.123 A 
ATOM     23  C   LIG    1        6.412  -0.156  -0.209  0.00  0.00    +0.039 A 
ATOM     24  F   LIG    1        7.397   2.015  -0.287  0.00  0.00    -0.205 F 
ATOM     25  C   LIG    1        5.290  -0.934  -0.038  0.00  0.00    +0.014 A 
ENDBRANCH  17  19
ENDBRANCH   1  17
TORSDOF 4
