REMARK  Name = molecules/CPJSUEIXXCENMM-UHFFFAOYSA-N.pdb
REMARK                            x       y       z     vdW  Elec       q    Type
REMARK                         _______ _______ _______ _____ _____    ______ ____
ROOT
ATOM      1  C   LIG    1       -1.056   0.787  -0.136  0.00  0.00    +0.034 A 
ATOM      2  C   LIG    1       -0.294   1.859   0.361  0.00  0.00    +0.027 A 
ATOM      3  C   LIG    1        1.062   1.694   0.472  0.00  0.00    +0.047 A 
ATOM      4  C   LIG    1        1.699   0.519   0.115  0.00  0.00    +0.121 A 
ATOM      5  C   LIG    1        0.933  -0.507  -0.366  0.00  0.00    +0.047 A 
ATOM      6  C   LIG    1       -0.459  -0.392  -0.500  0.00  0.00    +0.027 A 
ENDROOT
BRANCH   1   7
ATOM      7  N   LIG    1       -2.428   0.978  -0.215  0.00  0.00    -0.286 N 
ATOM      8  H   LIG    1       -2.779   1.982  -0.179  0.00  0.00    +0.155 HD
ATOM      9  C   LIG    1       -3.377  -0.035  -0.344  0.00  0.00    +0.214 C 
ATOM     10  O   LIG    1       -3.074  -1.235  -0.394  0.00  0.00    -0.276 OA
ATOM     11  C   LIG    1       -4.835   0.375  -0.422  0.00  0.00    +0.109 C 
ENDBRANCH   1   7
BRANCH   4  12
ATOM     12  O   LIG    1        3.060   0.395   0.243  0.00  0.00    -0.492 OA
BRANCH  12  13
ATOM     13  C   LIG    1        3.814  -0.722  -0.066  0.00  0.00    +0.225 C 
ATOM     14  C   LIG    1        3.377  -1.880   0.787  0.00  0.00    +0.048 C 
ENDBRANCH  12  13
ENDBRANCH   4  12
TORSDOF 3
