REMARK  Name = molecules/CPTBDICYNRMXFX-UHFFFAOYSA-N.pdb
REMARK                            x       y       z     vdW  Elec       q    Type
REMARK                         _______ _______ _______ _____ _____    ______ ____
ROOT
ATOM      1  C   LIG    1        0.509   0.412   0.335  0.00  0.00    +0.037 A 
ATOM      2  C   LIG    1       -0.309   0.408   1.453  0.00  0.00    +0.013 A 
ATOM      3  C   LIG    1       -1.578  -0.110   1.450  0.00  0.00    +0.005 A 
ATOM      4  C   LIG    1       -2.012  -0.629   0.262  0.00  0.00    -0.032 A 
ATOM      5  C   LIG    1       -1.256  -0.661  -0.901  0.00  0.00    +0.005 A 
ATOM      6  C   LIG    1        0.024  -0.123  -0.839  0.00  0.00    +0.013 A 
ENDROOT
BRANCH   1   7
ATOM      7  C   LIG    1        1.930   0.785   0.525  0.00  0.00    +0.244 C 
ATOM      8  O   LIG    1        2.306   1.739   1.182  0.00  0.00    -0.270 OA
ATOM      9  N   LIG    1        2.848  -0.122  -0.109  0.00  0.00    -0.309 N 
ATOM     10  H   LIG    1        2.381  -0.856  -0.745  0.00  0.00    +0.149 HD
BRANCH   9  11
ATOM     11  C   LIG    1        4.249  -0.113  -0.017  0.00  0.00    +0.067 C 
ATOM     12  C   LIG    1        4.641   0.169   1.485  0.00  0.00    +0.027 C 
ATOM     13  C   LIG    1        4.951   0.884  -0.900  0.00  0.00    +0.027 C 
ENDBRANCH   9  11
ENDBRANCH   1   7
BRANCH   4  14
ATOM     14  C   LIG    1       -3.387  -1.234   0.228  0.00  0.00    +0.133 C 
BRANCH  14  15
ATOM     15  N   LIG    1       -4.058  -0.902  -0.967  0.00  0.00    -0.253 NA
ATOM     16  H   LIG    1       -4.391  -1.842  -1.425  0.00  0.00    +0.141 HD
BRANCH  15  17
ATOM     17  N   LIG    1       -5.285  -0.224  -0.606  0.00  0.00    -0.259 NA
ATOM     18  C   LIG    1       -5.101   0.626   0.556  0.00  0.00    +0.120 C 
ATOM     19  H   LIG    1       -5.475   0.454  -1.424  0.00  0.00    +0.140 HD
ENDBRANCH  15  17
ENDBRANCH  14  15
ENDBRANCH   4  14
TORSDOF 5
