REMARK  Name = molecules/CPTIBDHUFVHUJK-NZYDNVMFSA-N.pdb
REMARK                            x       y       z     vdW  Elec       q    Type
REMARK                         _______ _______ _______ _____ _____    ______ ____
ROOT
ATOM      1  C   LIG    1       -1.490   0.083  -1.044  0.00  0.00    +0.096 C 
ATOM      2  C   LIG    1       -2.539   1.133  -0.762  0.00  0.00    +0.060 C 
ATOM      3  C   LIG    1       -2.131   1.983   0.438  0.00  0.00    +0.151 C 
ATOM      4  C   LIG    1       -0.796   2.601   0.108  0.00  0.00    -0.011 A 
ATOM      5  C   LIG    1       -0.510   3.878   0.552  0.00  0.00    +0.056 A 
ATOM      6  C   LIG    1        0.687   4.496   0.268  0.00  0.00    +0.167 A 
ATOM      7  O   LIG    1        1.218   5.730   0.577  0.00  0.00    -0.453 OA
ATOM      8  C   LIG    1        2.290   6.000  -0.340  0.00  0.00    +0.466 C 
ATOM      9  O   LIG    1        2.730   4.688  -0.607  0.00  0.00    -0.453 OA
ATOM     10  C   LIG    1        1.631   3.830  -0.478  0.00  0.00    +0.167 A 
ATOM     11  C   LIG    1        1.380   2.557  -0.937  0.00  0.00    +0.054 A 
ATOM     12  C   LIG    1        0.156   1.949  -0.636  0.00  0.00    -0.030 A 
ATOM     13  C   LIG    1       -0.099   0.586  -1.129  0.00  0.00    +0.062 C 
ENDROOT
BRANCH  13  14
ATOM     14  C   LIG    1        0.911  -0.377  -0.630  0.00  0.00    -0.032 A 
ATOM     15  C   LIG    1        1.714  -0.017   0.423  0.00  0.00    +0.054 A 
ATOM     16  C   LIG    1        2.687  -0.888   0.927  0.00  0.00    +0.165 A 
ATOM     17  C   LIG    1        2.834  -2.140   0.343  0.00  0.00    +0.204 A 
ATOM     18  C   LIG    1        2.013  -2.502  -0.728  0.00  0.00    +0.165 A 
ATOM     19  C   LIG    1        1.058  -1.627  -1.212  0.00  0.00    +0.054 A 
BRANCH  16  20
ATOM     20  O   LIG    1        3.503  -0.542   1.984  0.00  0.00    -0.491 OA
ATOM     21  C   LIG    1        3.510   0.651   2.695  0.00  0.00    +0.277 C 
ENDBRANCH  16  20
BRANCH  17  22
ATOM     22  O   LIG    1        3.781  -3.062   0.792  0.00  0.00    -0.488 OA
ATOM     23  C   LIG    1        5.057  -3.051   0.141  0.00  0.00    +0.277 C 
ENDBRANCH  17  22
BRANCH  18  24
ATOM     24  O   LIG    1        2.191  -3.756  -1.278  0.00  0.00    -0.491 OA
ATOM     25  C   LIG    1        1.362  -4.172  -2.370  0.00  0.00    +0.277 C 
ENDBRANCH  18  24
ENDBRANCH  13  14
BRANCH   1  26
ATOM     26  C   LIG    1       -1.672  -0.973  -0.013  0.00  0.00    +0.231 C 
ATOM     27  O   LIG    1       -0.747  -1.191   0.808  0.00  0.00    -0.274 OA
ATOM     28  N   LIG    1       -2.840  -1.771   0.117  0.00  0.00    -0.251 N 
ATOM     29  H   LIG    1       -3.608  -1.581  -0.582  0.00  0.00    +0.169 HD
BRANCH  28  30
ATOM     30  N   LIG    1       -3.028  -2.743   1.059  0.00  0.00    -0.241 NA
ATOM     31  H   LIG    1       -2.847  -3.715   0.716  0.00  0.00    +0.144 HD
BRANCH  30  32
ATOM     32  C   LIG    1       -4.180  -2.637   1.892  0.00  0.00    +0.098 C 
ATOM     33  C   LIG    1       -4.116  -3.807   2.866  0.00  0.00    +0.022 C 
ENDBRANCH  30  32
ENDBRANCH  28  30
ENDBRANCH   1  26
BRANCH   3  34
ATOM     34  O   LIG    1       -2.057   1.212   1.587  0.00  0.00    -0.387 OA
ATOM     35  H   LIG    1       -2.982   0.999   1.865  0.00  0.00    +0.210 HD
ENDBRANCH   3  34
BRANCH   2  36
ATOM     36  C   LIG    1       -2.859   1.987  -1.957  0.00  0.00    +0.163 C 
BRANCH  36  37
ATOM     37  O   LIG    1       -1.784   2.687  -2.458  0.00  0.00    -0.395 OA
ATOM     38  H   LIG    1       -2.115   3.470  -2.949  0.00  0.00    +0.209 HD
ENDBRANCH  36  37
ENDBRANCH   2  36
TORSDOF 10
