REMARK  Name = molecules/CSQNIJRRXIHHAY-UHFFFAOYSA-N.pdb
REMARK                            x       y       z     vdW  Elec       q    Type
REMARK                         _______ _______ _______ _____ _____    ______ ____
ROOT
ATOM      1  C   LIG    1       -3.539   0.109   0.770  0.00  0.00    +0.139 A 
ATOM      2  C   LIG    1       -3.946   0.801   1.903  0.00  0.00    +0.092 A 
ATOM      3  C   LIG    1       -2.981   1.306   2.740  0.00  0.00    +0.128 A 
ATOM      4  C   LIG    1       -1.628   1.145   2.486  0.00  0.00    +0.092 A 
ATOM      5  C   LIG    1       -1.273   0.441   1.332  0.00  0.00    +0.147 A 
ATOM      6  O   LIG    1       -0.014   0.290   1.090  0.00  0.00    -0.451 OA
ATOM      7  C   LIG    1        0.472  -0.360   0.025  0.00  0.00    +0.181 A 
ATOM      8  C   LIG    1       -0.410  -0.907  -0.873  0.00  0.00    +0.211 A 
ATOM      9  C   LIG    1       -1.762  -0.756  -0.634  0.00  0.00    +0.238 A 
ATOM     10  O   LIG    1       -2.622  -1.231  -1.418  0.00  0.00    -0.283 OA
ATOM     11  C   LIG    1       -2.204  -0.075   0.477  0.00  0.00    +0.109 A 
ENDROOT
BRANCH   7  12
ATOM     12  C   LIG    1        1.899  -0.445  -0.115  0.00  0.00    +0.025 A 
ATOM     13  C   LIG    1        2.660  -0.078   1.005  0.00  0.00    +0.061 A 
ATOM     14  C   LIG    1        4.029  -0.084   0.933  0.00  0.00    +0.163 A 
ATOM     15  C   LIG    1        4.680  -0.450  -0.244  0.00  0.00    +0.162 A 
ATOM     16  C   LIG    1        3.945  -0.811  -1.348  0.00  0.00    +0.050 A 
ATOM     17  C   LIG    1        2.543  -0.804  -1.270  0.00  0.00    +0.015 A 
BRANCH  14  18
ATOM     18  O   LIG    1        4.816   0.273   2.017  0.00  0.00    -0.484 OA
BRANCH  18  19
ATOM     19  C   LIG    1        4.157   0.642   3.211  0.00  0.00    +0.264 C 
BRANCH  19  20
ATOM     20  C   LIG    1        5.157   1.009   4.245  0.00  0.00    -0.010 A 
ATOM     21  C   LIG    1        4.785   1.265   5.550  0.00  0.00    +0.007 A 
ATOM     22  C   LIG    1        5.755   1.604   6.465  0.00  0.00    +0.000 A 
ATOM     23  C   LIG    1        7.104   1.707   6.157  0.00  0.00    +0.000 A 
ATOM     24  C   LIG    1        7.456   1.448   4.847  0.00  0.00    +0.000 A 
ATOM     25  C   LIG    1        6.497   1.108   3.921  0.00  0.00    +0.007 A 
ENDBRANCH  19  20
ENDBRANCH  18  19
ENDBRANCH  14  18
BRANCH  15  26
ATOM     26  O   LIG    1        6.073  -0.427  -0.242  0.00  0.00    -0.484 OA
BRANCH  26  27
ATOM     27  C   LIG    1        6.804  -0.762  -1.435  0.00  0.00    +0.264 C 
BRANCH  27  28
ATOM     28  C   LIG    1        6.417   0.241  -2.494  0.00  0.00    -0.010 A 
ATOM     29  C   LIG    1        5.819   1.434  -2.102  0.00  0.00    +0.007 A 
ATOM     30  C   LIG    1        5.446   2.377  -3.049  0.00  0.00    +0.000 A 
ATOM     31  C   LIG    1        5.669   2.133  -4.384  0.00  0.00    +0.000 A 
ATOM     32  C   LIG    1        6.268   0.945  -4.809  0.00  0.00    +0.000 A 
ATOM     33  C   LIG    1        6.618   0.045  -3.834  0.00  0.00    +0.007 A 
ENDBRANCH  27  28
ENDBRANCH  26  27
ENDBRANCH  15  26
ENDBRANCH   7  12
BRANCH   8  34
ATOM     34  O   LIG    1       -0.067  -1.611  -2.013  0.00  0.00    -0.480 OA
BRANCH  34  35
ATOM     35  C   LIG    1        0.049  -3.021  -1.845  0.00  0.00    +0.265 C 
BRANCH  35  36
ATOM     36  C   LIG    1        0.413  -3.729  -3.072  0.00  0.00    -0.010 A 
ATOM     37  C   LIG    1        0.743  -5.084  -3.018  0.00  0.00    +0.007 A 
ATOM     38  C   LIG    1        1.098  -5.816  -4.121  0.00  0.00    +0.000 A 
ATOM     39  C   LIG    1        1.130  -5.186  -5.331  0.00  0.00    +0.000 A 
ATOM     40  C   LIG    1        0.814  -3.856  -5.433  0.00  0.00    +0.000 A 
ATOM     41  C   LIG    1        0.452  -3.120  -4.296  0.00  0.00    +0.007 A 
ENDBRANCH  35  36
ENDBRANCH  34  35
ENDBRANCH   8  34
BRANCH   3  42
ATOM     42  O   LIG    1       -3.365   1.999   3.871  0.00  0.00    -0.487 OA
BRANCH  42  43
ATOM     43  C   LIG    1       -4.699   2.247   4.241  0.00  0.00    +0.264 C 
BRANCH  43  44
ATOM     44  C   LIG    1       -5.391   3.066   3.189  0.00  0.00    -0.010 A 
ATOM     45  C   LIG    1       -6.762   3.162   3.097  0.00  0.00    +0.007 A 
ATOM     46  C   LIG    1       -7.354   3.926   2.121  0.00  0.00    +0.000 A 
ATOM     47  C   LIG    1       -6.528   4.587   1.247  0.00  0.00    +0.000 A 
ATOM     48  C   LIG    1       -5.149   4.505   1.321  0.00  0.00    +0.000 A 
ATOM     49  C   LIG    1       -4.578   3.740   2.299  0.00  0.00    +0.007 A 
ENDBRANCH  43  44
ENDBRANCH  42  43
ENDBRANCH   3  42
BRANCH   1  50
ATOM     50  O   LIG    1       -4.473  -0.420  -0.107  0.00  0.00    -0.486 OA
BRANCH  50  51
ATOM     51  C   LIG    1       -5.840  -0.246   0.171  0.00  0.00    +0.264 C 
BRANCH  51  52
ATOM     52  C   LIG    1       -6.627  -0.888  -0.894  0.00  0.00    -0.010 A 
ATOM     53  C   LIG    1       -7.000  -2.211  -0.803  0.00  0.00    +0.007 A 
ATOM     54  C   LIG    1       -7.729  -2.785  -1.798  0.00  0.00    +0.000 A 
ATOM     55  C   LIG    1       -8.109  -2.051  -2.919  0.00  0.00    +0.000 A 
ATOM     56  C   LIG    1       -7.755  -0.730  -3.043  0.00  0.00    +0.000 A 
ATOM     57  C   LIG    1       -7.022  -0.178  -2.028  0.00  0.00    +0.007 A 
ENDBRANCH  51  52
ENDBRANCH  50  51
ENDBRANCH   1  50
TORSDOF 16
