REMARK  Name = molecules/CSYZZFNWCDOVIM-IPNCMXSSSA-N.pdb
REMARK                            x       y       z     vdW  Elec       q    Type
REMARK                         _______ _______ _______ _____ _____    ______ ____
ROOT
ATOM      1  N   LIG    1        0.174  -1.893   0.227  0.00  0.00    +0.387 N 
ATOM      2  C   LIG    1        1.235  -1.629   1.150  0.00  0.00    -0.061 C 
ATOM      3  C   LIG    1        1.559  -0.184   1.341  0.00  0.00    +0.030 C 
ATOM      4  C   LIG    1        1.679   0.602   0.081  0.00  0.00    +0.173 C 
ATOM      5  C   LIG    1        0.915   0.027  -1.068  0.00  0.00    +0.030 C 
ATOM      6  C   LIG    1        2.426  -2.284   0.448  0.00  0.00    -0.016 C 
ATOM      7  C   LIG    1        2.089  -2.176  -1.013  0.00  0.00    -0.016 C 
ATOM      8  C   LIG    1       -0.100  -3.294   0.182  0.00  0.00    -0.091 C 
ATOM      9  C   LIG    1        0.752  -1.456  -1.029  0.00  0.00    -0.061 C 
ENDROOT
BRANCH   4  10
ATOM     10  O   LIG    1        3.016   0.847  -0.316  0.00  0.00    -0.461 OA
BRANCH  10  11
ATOM     11  C   LIG    1        3.572   2.091  -0.428  0.00  0.00    +0.317 C 
ATOM     12  O   LIG    1        2.836   3.090  -0.157  0.00  0.00    -0.250 OA
BRANCH  11  13
ATOM     13  C   LIG    1        4.973   2.342  -0.845  0.00  0.00    +0.153 C 
BRANCH  13  14
ATOM     14  C   LIG    1        5.972   1.723   0.051  0.00  0.00    -0.032 A 
ATOM     15  C   LIG    1        7.046   2.441   0.566  0.00  0.00    +0.004 A 
ATOM     16  C   LIG    1        7.978   1.864   1.407  0.00  0.00    +0.000 A 
ATOM     17  C   LIG    1        7.850   0.535   1.752  0.00  0.00    +0.000 A 
ATOM     18  C   LIG    1        6.801  -0.210   1.263  0.00  0.00    +0.000 A 
ATOM     19  C   LIG    1        5.873   0.401   0.414  0.00  0.00    +0.004 A 
ENDBRANCH  13  14
BRANCH  13  20
ATOM     20  C   LIG    1        5.152   1.752  -2.246  0.00  0.00    +0.175 C 
BRANCH  20  21
ATOM     21  O   LIG    1        4.885   0.400  -2.165  0.00  0.00    -0.394 OA
ATOM     22  H   LIG    1        5.287  -0.114  -2.895  0.00  0.00    +0.209 HD
ENDBRANCH  20  21
ENDBRANCH  13  20
ENDBRANCH  11  13
ENDBRANCH  10  11
ENDBRANCH   4  10
BRANCH   1  23
ATOM     23  C   LIG    1       -1.040  -1.180   0.548  0.00  0.00    +0.006 C 
BRANCH  23  24
ATOM     24  C   LIG    1       -2.113  -1.566  -0.388  0.00  0.00    +0.147 C 
ATOM     25  O   LIG    1       -1.969  -2.393  -1.318  0.00  0.00    -0.294 OA
BRANCH  24  26
ATOM     26  C   LIG    1       -3.435  -0.951  -0.233  0.00  0.00    +0.016 A 
ATOM     27  C   LIG    1       -3.688  -0.024   0.769  0.00  0.00    +0.012 A 
ATOM     28  C   LIG    1       -4.948   0.550   0.903  0.00  0.00    +0.009 A 
ATOM     29  C   LIG    1       -5.982   0.214   0.043  0.00  0.00    -0.018 A 
ATOM     30  C   LIG    1       -5.739  -0.705  -0.953  0.00  0.00    +0.009 A 
ATOM     31  C   LIG    1       -4.491  -1.256  -1.065  0.00  0.00    +0.012 A 
BRANCH  29  32
ATOM     32  C   LIG    1       -7.308   0.797   0.159  0.00  0.00    -0.018 A 
ATOM     33  C   LIG    1       -7.481   2.074   0.630  0.00  0.00    +0.008 A 
ATOM     34  C   LIG    1       -8.757   2.629   0.739  0.00  0.00    +0.001 A 
ATOM     35  C   LIG    1       -9.860   1.900   0.374  0.00  0.00    +0.000 A 
ATOM     36  C   LIG    1       -9.714   0.617  -0.101  0.00  0.00    +0.001 A 
ATOM     37  C   LIG    1       -8.432   0.084  -0.202  0.00  0.00    +0.008 A 
ENDBRANCH  29  32
ENDBRANCH  24  26
ENDBRANCH  23  24
ENDBRANCH   1  23
TORSDOF 10
