REMARK  Name = molecules/CTETYYAZBPJBHE-UHFFFAOYSA-N.pdb
REMARK                            x       y       z     vdW  Elec       q    Type
REMARK                         _______ _______ _______ _____ _____    ______ ____
ROOT
ATOM      1  C   LIG    1       -0.214   0.336  -0.186  0.00  0.00    +0.142 A 
ATOM      2  C   LIG    1       -0.945  -0.776   0.146  0.00  0.00    +0.068 A 
ATOM      3  C   LIG    1       -2.323  -0.803   0.126  0.00  0.00    +0.063 A 
ATOM      4 CL   LIG    1       -3.119  -2.296   0.576  0.00  0.00    -0.082 Cl
ATOM      5  C   LIG    1       -2.998   0.340  -0.244  0.00  0.00    +0.061 A 
ATOM      6 CL   LIG    1       -4.746   0.291  -0.264  0.00  0.00    -0.082 Cl
ATOM      7  C   LIG    1       -2.290   1.474  -0.583  0.00  0.00    +0.045 A 
ATOM      8  C   LIG    1       -0.899   1.470  -0.554  0.00  0.00    +0.084 A 
ATOM      9 CL   LIG    1        0.027   2.885  -0.977  0.00  0.00    -0.080 Cl
ENDROOT
BRANCH   1  10
ATOM     10  O   LIG    1        1.158   0.287  -0.143  0.00  0.00    -0.478 OA
BRANCH  10  11
ATOM     11  C   LIG    1        1.898  -0.838   0.222  0.00  0.00    +0.318 C 
BRANCH  11  12
ATOM     12  C   LIG    1        3.327  -0.462   0.134  0.00  0.00    -0.050 C 
ATOM     13  C   LIG    1        4.491  -0.151   0.077  0.00  0.00    -0.027 C 
ATOM     14  I   LIG    1        6.514   0.382   0.006  0.00  0.00    +0.018 I 
ENDBRANCH  11  12
ENDBRANCH  10  11
ENDBRANCH   1  10
TORSDOF 3
