REMARK  Name = molecules/CTPKSRZFJSJGML-UHFFFAOYSA-N.pdb
REMARK                            x       y       z     vdW  Elec       q    Type
REMARK                         _______ _______ _______ _____ _____    ______ ____
ROOT
ATOM      1  S   LIG    1       -0.146  -0.182   0.179  0.00  0.00    -0.044 S 
ENDROOT
BRANCH   1   2
ATOM      2  C   LIG    1        1.358   0.717   0.409  0.00  0.00    +0.115 C 
ATOM      3  S   LIG    1        1.261   2.271   0.935  0.00  0.00    -0.028 S 
BRANCH   2   4
ATOM      4  N   LIG    1        2.629   0.154   0.160  0.00  0.00    -0.319 N 
BRANCH   4   5
ATOM      5  C   LIG    1        3.859   0.900   0.354  0.00  0.00    +0.102 C 
ATOM      6  C   LIG    1        4.483   1.159  -0.996  0.00  0.00    +0.024 C 
ENDBRANCH   4   5
BRANCH   4   7
ATOM      7  C   LIG    1        2.707  -1.211  -0.314  0.00  0.00    +0.102 C 
ATOM      8  C   LIG    1        3.325  -2.122   0.717  0.00  0.00    +0.024 C 
ENDBRANCH   4   7
ENDBRANCH   2   4
ENDBRANCH   1   2
BRANCH   1   9
ATOM      9  C   LIG    1       -1.575   0.826   0.528  0.00  0.00    +0.115 C 
ATOM     10  S   LIG    1       -1.289   2.389   0.993  0.00  0.00    -0.028 S 
BRANCH   9  11
ATOM     11  N   LIG    1       -2.895   0.326   0.414  0.00  0.00    -0.319 N 
BRANCH  11  12
ATOM     12  C   LIG    1       -3.987   1.262   0.727  0.00  0.00    +0.102 C 
ATOM     13  C   LIG    1       -4.767   1.599  -0.523  0.00  0.00    +0.024 C 
ENDBRANCH  11  12
BRANCH  11  14
ATOM     14  C   LIG    1       -3.294  -0.982   0.031  0.00  0.00    +0.102 C 
ATOM     15  C   LIG    1       -2.202  -1.952  -0.278  0.00  0.00    +0.024 C 
ENDBRANCH  11  14
ENDBRANCH   9  11
ENDBRANCH   1   9
TORSDOF 8
