REMARK  Name = molecules/CTPOHARTNNSRSR-NOQAJONNSA-N.pdb
REMARK                            x       y       z     vdW  Elec       q    Type
REMARK                         _______ _______ _______ _____ _____    ______ ____
ROOT
ATOM      1  C   LIG    1       -4.270   1.302   0.516  0.00  0.00    -0.005 A 
ATOM      2  C   LIG    1       -2.975   0.829   0.679  0.00  0.00    +0.128 A 
ATOM      3  O   LIG    1       -2.442  -0.240   1.405  0.00  0.00    -0.488 OA
ATOM      4  C   LIG    1       -1.046  -0.140   1.518  0.00  0.00    +0.184 C 
ATOM      5  C   LIG    1       -0.382  -1.440   1.204  0.00  0.00    +0.077 C 
ATOM      6  C   LIG    1       -0.287  -1.447  -0.289  0.00  0.00    +0.126 C 
ATOM      7  C   LIG    1       -0.069  -0.051  -0.697  0.00  0.00    +0.051 C 
ATOM      8  C   LIG    1       -0.643   0.788   0.409  0.00  0.00    +0.073 C 
ATOM      9  C   LIG    1       -1.914   1.456   0.047  0.00  0.00    +0.002 A 
ATOM     10  C   LIG    1       -2.210   2.557  -0.740  0.00  0.00    +0.007 A 
ATOM     11  C   LIG    1       -3.478   3.033  -0.909  0.00  0.00    +0.001 A 
ATOM     12  C   LIG    1       -4.527   2.416  -0.285  0.00  0.00    +0.007 A 
ENDROOT
BRANCH   7  13
ATOM     13  C   LIG    1        1.341   0.371  -0.883  0.00  0.00    -0.022 C 
ATOM     14  C   LIG    1        2.409  -0.363  -0.756  0.00  0.00    +0.000 C 
BRANCH  14  15
ATOM     15  C   LIG    1        3.746   0.276  -0.993  0.00  0.00    +0.141 C 
BRANCH  15  16
ATOM     16  C   LIG    1        4.200   0.992   0.286  0.00  0.00    +0.030 C 
ATOM     17  C   LIG    1        4.361   0.026   1.420  0.00  0.00    +0.011 C 
BRANCH  16  18
ATOM     18  C   LIG    1        5.548   1.629   0.029  0.00  0.00    +0.095 C 
BRANCH  18  19
ATOM     19  C   LIG    1        6.511   0.589  -0.332  0.00  0.00    -0.102 C 
ATOM     20  C   LIG    1        7.320  -0.254  -0.631  0.00  0.00    -0.106 C 
ATOM     21  C   LIG    1        8.315  -1.254  -0.987  0.00  0.00    +0.106 C 
ENDBRANCH  18  19
ENDBRANCH  16  18
ENDBRANCH  15  16
BRANCH  15  22
ATOM     22  O   LIG    1        3.577   1.216  -2.001  0.00  0.00    -0.387 OA
ATOM     23  H   LIG    1        4.157   1.045  -2.785  0.00  0.00    +0.210 HD
ENDBRANCH  15  22
ENDBRANCH  14  15
ENDBRANCH   7  13
BRANCH   6  24
ATOM     24  O   LIG    1       -1.565  -1.845  -0.755  0.00  0.00    -0.391 OA
ATOM     25  H   LIG    1       -1.528  -2.816  -0.943  0.00  0.00    +0.210 HD
ENDBRANCH   6  24
BRANCH   1  26
ATOM     26  C   LIG    1       -5.429   0.671   1.153  0.00  0.00    +0.039 C 
BRANCH  26  27
ATOM     27  C   LIG    1       -5.974  -0.482   0.401  0.00  0.00    +0.016 C 
BRANCH  27  28
ATOM     28  C   LIG    1       -4.969  -1.564   0.211  0.00  0.00    +0.121 C 
BRANCH  28  29
ATOM     29  C   LIG    1       -5.559  -2.728  -0.537  0.00  0.00    +0.305 C 
ATOM     30  O   LIG    1       -4.804  -3.688  -0.751  0.00  0.00    -0.251 OA
BRANCH  29  31
ATOM     31  O   LIG    1       -6.861  -2.760  -0.975  0.00  0.00    -0.481 OA
ATOM     32  H   LIG    1       -7.605  -2.164  -0.669  0.00  0.00    +0.295 HD
ENDBRANCH  29  31
ENDBRANCH  28  29
ENDBRANCH  27  28
ENDBRANCH  26  27
ENDBRANCH   1  26
TORSDOF 12
