REMARK  Name = molecules/CTRLABGOLIVAIY-UHFFFAOYSA-N.pdb
REMARK                            x       y       z     vdW  Elec       q    Type
REMARK                         _______ _______ _______ _____ _____    ______ ____
ROOT
ATOM      1  C   LIG    1        0.157   2.256  -0.149  0.00  0.00    +0.308 C 
ATOM      2  N   LIG    1        0.065   0.877   0.064  0.00  0.00    -0.224 N 
ATOM      3  C   LIG    1        1.334   0.193   0.205  0.00  0.00    +0.046 A 
ATOM      4  C   LIG    1        2.203   0.921   0.982  0.00  0.00    +0.024 A 
ATOM      5  C   LIG    1        3.476   0.463   1.243  0.00  0.00    +0.002 A 
ATOM      6  C   LIG    1        3.795  -0.759   0.672  0.00  0.00    +0.000 A 
ATOM      7  C   LIG    1        2.931  -1.493  -0.104  0.00  0.00    +0.006 A 
ATOM      8  C   LIG    1        1.649  -1.024  -0.363  0.00  0.00    -0.018 A 
ATOM      9  C   LIG    1        0.907  -1.982  -1.210  0.00  0.00    +0.116 C 
ATOM     10  C   LIG    1       -0.558  -1.888  -1.142  0.00  0.00    +0.169 C 
ATOM     11  C   LIG    1       -1.498  -0.980  -0.487  0.00  0.00    +0.039 A 
ATOM     12  C   LIG    1       -2.808  -1.460  -0.418  0.00  0.00    +0.013 A 
ATOM     13  C   LIG    1       -3.764  -0.673   0.224  0.00  0.00    +0.001 A 
ATOM     14  C   LIG    1       -3.424   0.543   0.776  0.00  0.00    +0.002 A 
ATOM     15  C   LIG    1       -2.133   1.022   0.713  0.00  0.00    +0.024 A 
ATOM     16  O   LIG    1       -1.131  -2.808  -1.806  0.00  0.00    -0.292 OA
ATOM     17  C   LIG    1       -1.201   0.240   0.075  0.00  0.00    +0.053 A 
ATOM     18  O   LIG    1        1.244   2.931  -0.133  0.00  0.00    -0.252 OA
ATOM     19  N   LIG    1       -1.042   3.014  -0.421  0.00  0.00    -0.313 N 
ATOM     20  H   LIG    1       -1.226   3.935   0.043  0.00  0.00    +0.147 HD
ATOM     21  H   LIG    1       -1.709   2.602  -1.105  0.00  0.00    +0.147 HD
ENDROOT
TORSDOF 0
