REMARK  Name = molecules/CUCHJCMWNFEYOM-INIZCTEOSA-N.pdb
REMARK                            x       y       z     vdW  Elec       q    Type
REMARK                         _______ _______ _______ _____ _____    ______ ____
ROOT
ATOM      1  C   LIG    1       -0.989   0.223  -0.052  0.00  0.00    +0.079 C 
ATOM      2  N   LIG    1        0.207   0.447   0.406  0.00  0.00    -0.258 NA
ATOM      3  C   LIG    1        1.413  -0.349   0.387  0.00  0.00    +0.299 C 
ATOM      4  C   LIG    1        1.674  -0.957  -0.944  0.00  0.00    +0.253 C 
ATOM      5  O   LIG    1        2.833  -0.822  -1.366  0.00  0.00    -0.273 OA
ATOM      6  N   LIG    1        0.751  -1.671  -1.778  0.00  0.00    -0.283 N 
ATOM      7  C   LIG    1       -0.622  -1.920  -1.419  0.00  0.00    +0.043 A 
ATOM      8  C   LIG    1       -1.090  -3.120  -1.883  0.00  0.00    +0.025 A 
ATOM      9  C   LIG    1       -2.353  -3.499  -1.485  0.00  0.00    +0.022 A 
ATOM     10  C   LIG    1       -3.119  -2.696  -0.645  0.00  0.00    +0.042 A 
ATOM     11 CL   LIG    1       -4.739  -3.169  -0.131  0.00  0.00    -0.084 Cl
ATOM     12  C   LIG    1       -2.622  -1.498  -0.197  0.00  0.00    +0.032 A 
ATOM     13  H   LIG    1        1.047  -2.053  -2.681  0.00  0.00    +0.155 HD
ATOM     14  C   LIG    1       -1.355  -1.072  -0.577  0.00  0.00    +0.023 A 
ENDROOT
BRANCH   1  17
ATOM     15  F   LIG    1       -3.564   0.375  -1.525  0.00  0.00    -0.205 F 
ATOM     16  C   LIG    1       -3.263   1.224  -0.479  0.00  0.00    +0.133 A 
ATOM     17  C   LIG    1       -2.030   1.205   0.091  0.00  0.00    +0.036 A 
ATOM     18  C   LIG    1       -1.830   2.248   1.045  0.00  0.00    +0.013 A 
ATOM     19  C   LIG    1       -2.800   3.163   1.342  0.00  0.00    +0.001 A 
ATOM     20  C   LIG    1       -4.030   3.134   0.740  0.00  0.00    +0.003 A 
ATOM     21  C   LIG    1       -4.253   2.142  -0.187  0.00  0.00    +0.039 A 
ENDBRANCH   1  17
BRANCH   3  22
ATOM     22  C   LIG    1        2.553   0.534   0.715  0.00  0.00    +0.341 C 
ATOM     23  O   LIG    1        2.371   1.756   0.958  0.00  0.00    -0.248 OA
BRANCH  22  24
ATOM     24  O   LIG    1        3.864   0.089   0.776  0.00  0.00    -0.463 OA
BRANCH  24  25
ATOM     25  C   LIG    1        4.929   0.975   1.095  0.00  0.00    +0.229 C 
ATOM     26  C   LIG    1        6.217   0.145   1.069  0.00  0.00    +0.048 C 
ENDBRANCH  24  25
ENDBRANCH  22  24
ENDBRANCH   3  22
TORSDOF 4
