REMARK  Name = molecules/CUIHSIWYWATEQL-UHFFFAOYSA-N.pdb
REMARK                            x       y       z     vdW  Elec       q    Type
REMARK                         _______ _______ _______ _____ _____    ______ ____
ROOT
ATOM      1  C   LIG    1       -0.566  -0.688  -0.170  0.00  0.00    +0.130 A 
ATOM      2  C   LIG    1       -0.464  -0.154   1.091  0.00  0.00    +0.064 A 
ATOM      3  C   LIG    1        0.803   0.253   1.479  0.00  0.00    +0.118 A 
ATOM      4  N   LIG    1        1.858   0.127   0.662  0.00  0.00    -0.223 NA
ATOM      5  C   LIG    1        1.749  -0.391  -0.552  0.00  0.00    +0.221 A 
ATOM      6  N   LIG    1        0.532  -0.799  -0.968  0.00  0.00    -0.199 NA
ENDROOT
BRANCH   1   7
ATOM      7  N   LIG    1       -1.811  -1.163  -0.653  0.00  0.00    -0.288 N 
ATOM      8  C   LIG    1       -1.794  -2.400  -1.456  0.00  0.00    +0.137 C 
BRANCH   7  19
ATOM      9  C   LIG    1       -4.233  -1.293  -0.586  0.00  0.00    +0.053 A 
ATOM     10  C   LIG    1       -5.480  -0.770  -0.365  0.00  0.00    +0.095 A 
ATOM     11  C   LIG    1       -5.589   0.526   0.091  0.00  0.00    +0.023 A 
ATOM     12  C   LIG    1       -4.431   1.230   0.300  0.00  0.00    +0.013 A 
ATOM     13  C   LIG    1       -3.175   0.706   0.079  0.00  0.00    +0.024 A 
ATOM     14  C   LIG    1       -6.924   0.835   0.240  0.00  0.00    +0.044 A 
ATOM     15  C   LIG    1       -7.477   2.110   0.702  0.00  0.00    +0.066 C 
ATOM     16  N   LIG    1       -7.601  -0.266  -0.123  0.00  0.00    -0.270 N 
ATOM     17  C   LIG    1       -9.038  -0.409  -0.129  0.00  0.00    +0.172 C 
ATOM     18  N   LIG    1       -6.759  -1.230  -0.487  0.00  0.00    -0.171 NA
ATOM     19  C   LIG    1       -3.062  -0.588  -0.376  0.00  0.00    +0.037 A 
ENDBRANCH   7  19
ENDBRANCH   1   7
BRANCH   5  20
ATOM     20  N   LIG    1        2.892  -0.486  -1.391  0.00  0.00    -0.284 N 
ATOM     21  H   LIG    1        2.700  -0.894  -2.344  0.00  0.00    +0.155 HD
BRANCH  20  22
ATOM     22  C   LIG    1        4.208  -0.104  -1.076  0.00  0.00    +0.035 A 
ATOM     23  C   LIG    1        4.708   0.171   0.171  0.00  0.00    +0.052 A 
ATOM     24  C   LIG    1        6.030   0.536   0.414  0.00  0.00    +0.110 A 
ATOM     25  C   LIG    1        6.870   0.622  -0.667  0.00  0.00    -0.024 A 
ATOM     26  C   LIG    1        8.290   1.009  -0.471  0.00  0.00    +0.046 C 
ATOM     27  C   LIG    1        6.384   0.347  -1.940  0.00  0.00    +0.007 A 
ATOM     28  C   LIG    1        5.092  -0.008  -2.156  0.00  0.00    +0.024 A 
BRANCH  24  29
ATOM     29  S   LIG    1        6.567   0.861   2.037  0.00  0.00    +0.056 S 
ATOM     30  O   LIG    1        5.429   0.596   2.995  0.00  0.00    -0.153 OA
ATOM     31  O   LIG    1        7.055   2.276   2.168  0.00  0.00    -0.153 OA
BRANCH  29  32
ATOM     32  N   LIG    1        7.843  -0.252   2.444  0.00  0.00    -0.204 NA
ATOM     33  H   LIG    1        8.273   0.017   3.359  0.00  0.00    +0.144 HD
ATOM     34  H   LIG    1        7.357  -1.188   2.539  0.00  0.00    +0.144 HD
ENDBRANCH  29  32
ENDBRANCH  24  29
ENDBRANCH  20  22
ENDBRANCH   5  20
TORSDOF 6
