REMARK  Name = molecules/CURLTUGMZLYLDI-UHFFFAOYSA-N.pdb
REMARK                            x       y       z     vdW  Elec       q    Type
REMARK                         _______ _______ _______ _____ _____    ______ ____
ROOT
ATOM      1  O   LIG    1        1.228  -0.055   0.000  0.00  0.00    -0.186 OA
ATOM      2  C   LIG    1       -0.004   0.111   0.000  0.00  0.00    +0.372 C 
ATOM      3  O   LIG    1       -1.224  -0.056   0.000  0.00  0.00    -0.186 OA
ENDROOT
TORSDOF 0
