REMARK  Name = molecules/CVWILQHZFWRYPB-UHFFFAOYSA-N.pdb
REMARK                            x       y       z     vdW  Elec       q    Type
REMARK                         _______ _______ _______ _____ _____    ______ ____
ROOT
ATOM      1  N   LIG    1       -0.322  -0.122   0.933  0.00  0.00    -0.075 NA
ATOM      2  C   LIG    1        0.862   0.160   0.520  0.00  0.00    +0.370 C 
ATOM      3  N   LIG    1        1.856   0.753   1.358  0.00  0.00    -0.235 N 
ATOM      4  H   LIG    1        1.766   1.241   2.270  0.00  0.00    +0.245 HD
ATOM      5  C   LIG    1        3.177   0.588   0.737  0.00  0.00    +0.219 C 
ATOM      6  C   LIG    1        2.905  -0.025  -0.622  0.00  0.00    +0.219 C 
ATOM      7  N   LIG    1        1.469   0.000  -0.754  0.00  0.00    -0.235 N 
ATOM      8  H   LIG    1        0.966  -0.085  -1.659  0.00  0.00    +0.245 HD
ENDROOT
BRANCH   1   9
ATOM      9  C   LIG    1       -1.301  -0.731   0.030  0.00  0.00    +0.170 A 
ATOM     10  C   LIG    1       -2.520  -0.171  -0.148  0.00  0.00    +0.000 A 
ATOM     11  C   LIG    1       -3.003   1.099   0.545  0.00  0.00    +0.048 C 
ATOM     12  C   LIG    1       -3.372  -0.799  -1.017  0.00  0.00    +0.053 A 
ATOM     13  S   LIG    1       -2.467  -2.132  -1.555  0.00  0.00    -0.081 S 
ATOM     14  C   LIG    1       -1.036  -1.875  -0.676  0.00  0.00    +0.120 A 
ATOM     15 CL   LIG    1        0.459  -2.833  -0.645  0.00  0.00    -0.072 Cl
ENDBRANCH   1   9
TORSDOF 1
