REMARK  Name = molecules/CVWXJKQAOSCOAB-UHFFFAOYSA-N.pdb
REMARK                            x       y       z     vdW  Elec       q    Type
REMARK                         _______ _______ _______ _____ _____    ______ ____
ROOT
ATOM      1  C   LIG    1       -5.660   1.025  -1.387  0.00  0.00    +0.062 A 
ATOM      2  C   LIG    1       -6.214   0.764  -0.110  0.00  0.00    +0.122 A 
ATOM      3  C   LIG    1       -5.311   0.579   0.866  0.00  0.00    +0.048 A 
ATOM      4  C   LIG    1       -3.950   0.621   0.720  0.00  0.00    +0.031 A 
ATOM      5  C   LIG    1       -3.379   0.881  -0.558  0.00  0.00    +0.063 A 
ATOM      6  N   LIG    1       -2.091   0.931  -0.881  0.00  0.00    -0.293 N 
ATOM      7  C   LIG    1       -0.863   0.768  -0.264  0.00  0.00    +0.122 A 
ATOM      8  C   LIG    1        0.162   0.904  -1.145  0.00  0.00    +0.090 A 
ATOM      9  N   LIG    1       -0.426   1.163  -2.354  0.00  0.00    -0.221 NA
ATOM     10  C   LIG    1       -1.775   1.167  -2.147  0.00  0.00    +0.179 A 
ATOM     11  S   LIG    1       -3.277   1.325  -2.927  0.00  0.00    -0.049 S 
ATOM     12  C   LIG    1       -4.290   1.075  -1.568  0.00  0.00    +0.043 A 
ENDROOT
BRANCH   8  13
ATOM     13  C   LIG    1        1.603   0.743  -0.967  0.00  0.00    +0.002 A 
ATOM     14  C   LIG    1        2.201   0.441   0.223  0.00  0.00    +0.012 A 
ATOM     15  C   LIG    1        3.584   0.230   0.309  0.00  0.00    +0.024 A 
ATOM     16  C   LIG    1        4.383   0.321  -0.799  0.00  0.00    +0.035 A 
ATOM     17  C   LIG    1        3.806   0.630  -2.011  0.00  0.00    +0.024 A 
ATOM     18  C   LIG    1        2.439   0.833  -2.075  0.00  0.00    +0.012 A 
BRANCH  16  19
ATOM     19  N   LIG    1        5.804   0.015  -0.766  0.00  0.00    -0.269 N 
ATOM     20  H   LIG    1        6.358   0.333   0.019  0.00  0.00    +0.156 HD
ATOM     21  C   LIG    1        6.366  -0.702  -1.834  0.00  0.00    +0.309 C 
ATOM     22  N   LIG    1        7.649  -1.120  -2.122  0.00  0.00    -0.251 N 
ATOM     23  H   LIG    1        7.762  -1.672  -3.082  0.00  0.00    +0.158 HD
ATOM     24  O   LIG    1        5.488  -1.039  -2.750  0.00  0.00    -0.252 OA
BRANCH  22  25
ATOM     25  C   LIG    1        8.852  -1.024  -1.434  0.00  0.00    +0.169 A 
ATOM     26  C   LIG    1        9.175  -0.567  -0.211  0.00  0.00    +0.092 A 
ATOM     27  C   LIG    1       10.545  -0.656  -0.012  0.00  0.00    +0.144 A 
ATOM     28  O   LIG    1       11.010  -1.165  -1.128  0.00  0.00    -0.357 OA
ATOM     29  N   LIG    1       10.088  -1.394  -1.972  0.00  0.00    -0.063 NA
BRANCH  27  30
ATOM     30  C   LIG    1       11.340  -0.287   1.158  0.00  0.00    +0.023 C 
ATOM     31  C   LIG    1       11.139  -1.277   2.307  0.00  0.00    +0.019 C 
ATOM     32  C   LIG    1       10.990   1.083   1.664  0.00  0.00    +0.019 C 
ATOM     33  C   LIG    1       12.811  -0.377   0.781  0.00  0.00    +0.019 C 
ENDBRANCH  27  30
ENDBRANCH  22  25
ENDBRANCH  16  19
ENDBRANCH   8  13
BRANCH   2  34
ATOM     34  O   LIG    1       -7.524   0.735  -0.067  0.00  0.00    -0.491 OA
BRANCH  34  35
ATOM     35  C   LIG    1       -8.459   0.521   0.911  0.00  0.00    +0.244 C 
BRANCH  35  36
ATOM     36  C   LIG    1       -9.870   0.582   0.300  0.00  0.00    +0.125 C 
BRANCH  36  37
ATOM     37  N   LIG    1      -10.841   0.355   1.312  0.00  0.00    -0.295 NA
ATOM     38  C   LIG    1      -10.833  -1.009   1.839  0.00  0.00    +0.112 C 
ATOM     39  C   LIG    1      -10.933  -2.040   0.731  0.00  0.00    +0.175 C 
ATOM     40  O   LIG    1      -11.717  -1.570  -0.328  0.00  0.00    -0.377 OA
ATOM     41  C   LIG    1      -12.707  -0.761   0.182  0.00  0.00    +0.175 C 
ATOM     42  C   LIG    1      -12.186   0.547   0.745  0.00  0.00    +0.112 C 
ENDBRANCH  36  37
ENDBRANCH  35  36
ENDBRANCH  34  35
ENDBRANCH   2  34
TORSDOF 8
