REMARK  Name = molecules/CWJNMKKMGIAGDK-UHFFFAOYSA-N.pdb
REMARK                            x       y       z     vdW  Elec       q    Type
REMARK                         _______ _______ _______ _____ _____    ______ ____
ROOT
ATOM      1  C   LIG    1       -0.010   2.100  -0.340  0.00  0.00    +0.149 C 
ENDROOT
BRANCH   1   5
ATOM      2  C   LIG    1        2.799  -0.124   0.096  0.00  0.00    +0.090 A 
ATOM      3  N   LIG    1        2.038   0.961   0.454  0.00  0.00    -0.344 N 
ATOM      4  C   LIG    1        2.354   1.803   1.575  0.00  0.00    +0.149 C 
ATOM      5  C   LIG    1        1.035   1.031  -0.412  0.00  0.00    +0.028 A 
ATOM      6  C   LIG    1        1.110   0.024  -1.331  0.00  0.00    +0.024 A 
ATOM      7  C   LIG    1        2.236  -0.702  -0.995  0.00  0.00    +0.031 A 
BRANCH   2   8
ATOM      8  C   LIG    1        3.973  -0.562   0.822  0.00  0.00    +0.209 C 
ATOM      9  O   LIG    1        3.839  -0.802   2.065  0.00  0.00    -0.285 OA
BRANCH   8  10
ATOM     10  C   LIG    1        5.249  -0.730   0.217  0.00  0.00    +0.024 A 
ATOM     11  C   LIG    1        6.378  -0.759   1.038  0.00  0.00    +0.012 A 
ATOM     12  C   LIG    1        7.643  -0.900   0.533  0.00  0.00    +0.004 A 
ATOM     13  C   LIG    1        7.860  -1.019  -0.814  0.00  0.00    -0.050 A 
ATOM     14  C   LIG    1        9.248  -1.174  -1.365  0.00  0.00    +0.044 C 
ATOM     15  C   LIG    1        6.758  -0.992  -1.631  0.00  0.00    +0.004 A 
ATOM     16  C   LIG    1        5.457  -0.848  -1.134  0.00  0.00    +0.012 A 
ENDBRANCH   8  10
ENDBRANCH   2   8
ENDBRANCH   1   5
BRANCH   1  17
ATOM     17  C   LIG    1       -1.167   1.705   0.481  0.00  0.00    +0.219 C 
ATOM     18  O   LIG    1       -1.173   0.574   1.017  0.00  0.00    -0.275 OA
ATOM     19  N   LIG    1       -2.252   2.579   0.664  0.00  0.00    -0.305 N 
ATOM     20  H   LIG    1       -2.194   3.530   0.185  0.00  0.00    +0.149 HD
BRANCH  19  21
ATOM     21  C   LIG    1       -3.418   2.232   1.464  0.00  0.00    +0.225 C 
BRANCH  21  22
ATOM     22  C   LIG    1       -4.042   1.035   0.866  0.00  0.00    +0.330 C 
ATOM     23  O   LIG    1       -3.526   0.523  -0.153  0.00  0.00    -0.249 OA
BRANCH  22  24
ATOM     24  O   LIG    1       -5.184   0.434   1.374  0.00  0.00    -0.421 OA
BRANCH  24  25
ATOM     25  C   LIG    1       -5.752  -0.697   0.789  0.00  0.00    +0.173 A 
ATOM     26  C   LIG    1       -5.433  -1.984   1.163  0.00  0.00    +0.050 A 
ATOM     27  C   LIG    1       -5.977  -3.113   0.603  0.00  0.00    +0.004 A 
ATOM     28  C   LIG    1       -6.912  -2.931  -0.408  0.00  0.00    +0.004 A 
ATOM     29  C   LIG    1       -7.263  -1.654  -0.817  0.00  0.00    +0.049 A 
ATOM     30  C   LIG    1       -6.684  -0.533  -0.220  0.00  0.00    +0.162 A 
BRANCH  30  31
ATOM     31  O   LIG    1       -7.008   0.763  -0.600  0.00  0.00    -0.491 OA
ATOM     32  C   LIG    1       -7.965   0.970  -1.638  0.00  0.00    +0.277 C 
ENDBRANCH  30  31
ENDBRANCH  24  25
ENDBRANCH  22  24
ENDBRANCH  21  22
ENDBRANCH  19  21
ENDBRANCH   1  17
TORSDOF 9
