REMARK  Name = molecules/CWRBDUIQDIHWJZ-SOFGYWHQSA-N.pdb
REMARK                            x       y       z     vdW  Elec       q    Type
REMARK                         _______ _______ _______ _____ _____    ______ ____
ROOT
ATOM      1  C   LIG    1        1.779  -2.068  -0.977  0.00  0.00    +0.023 A 
ATOM      2  C   LIG    1        0.833  -2.949  -0.498  0.00  0.00    +0.031 A 
ATOM      3  C   LIG    1       -0.309  -2.498   0.147  0.00  0.00    +0.037 A 
ATOM      4  I   LIG    1       -1.765  -3.835   0.887  0.00  0.00    -0.042 I 
ATOM      5  C   LIG    1       -0.484  -1.153   0.302  0.00  0.00    +0.061 A 
ATOM      6  C   LIG    1        0.480  -0.278  -0.188  0.00  0.00    +0.044 A 
ATOM      7  I   LIG    1        0.065   1.766   0.021  0.00  0.00    -0.041 I 
ATOM      8  C   LIG    1        1.620  -0.682  -0.828  0.00  0.00    +0.004 A 
ATOM      9  I   LIG    1        3.469  -2.876  -1.937  0.00  0.00    -0.043 I 
ENDROOT
BRANCH   5  10
ATOM     10  N   LIG    1       -1.653  -0.685   0.963  0.00  0.00    -0.284 N 
ATOM     11  H   LIG    1       -1.639  -0.550   2.002  0.00  0.00    +0.155 HD
ATOM     12  C   LIG    1       -2.854  -0.391   0.261  0.00  0.00    +0.217 C 
ATOM     13  O   LIG    1       -2.849  -0.560  -0.984  0.00  0.00    -0.275 OA
BRANCH  12  14
ATOM     14  C   LIG    1       -4.071   0.098   0.958  0.00  0.00    +0.096 C 
BRANCH  14  15
ATOM     15  C   LIG    1       -5.171   0.313  -0.073  0.00  0.00    +0.006 C 
ATOM     16  C   LIG    1       -6.435   0.810   0.574  0.00  0.00    +0.004 C 
ENDBRANCH  14  15
ENDBRANCH  12  14
ENDBRANCH   5  10
BRANCH   8  17
ATOM     17  C   LIG    1        2.620   0.204  -1.379  0.00  0.00    +0.020 C 
ATOM     18  C   LIG    1        3.380   0.972  -0.637  0.00  0.00    +0.037 C 
BRANCH  18  19
ATOM     19  C   LIG    1        3.274   0.904   0.839  0.00  0.00    +0.039 C 
ATOM     20  C   LIG    1        4.654   0.476   1.382  0.00  0.00    +0.009 C 
ENDBRANCH  18  19
BRANCH  18  21
ATOM     21  C   LIG    1        4.379   1.860  -1.270  0.00  0.00    +0.333 C 
ATOM     22  O   LIG    1        4.497   1.876  -2.520  0.00  0.00    -0.245 OA
BRANCH  21  23
ATOM     23  O   LIG    1        5.196   2.681  -0.525  0.00  0.00    -0.477 OA
ATOM     24  H   LIG    1        5.551   3.564  -0.811  0.00  0.00    +0.295 HD
ENDBRANCH  21  23
ENDBRANCH  18  21
ENDBRANCH   8  17
TORSDOF 7
