REMARK  Name = molecules/CXBMCYHAMVGWJQ-CABCVRRESA-N.pdb
REMARK                            x       y       z     vdW  Elec       q    Type
REMARK                         _______ _______ _______ _____ _____    ______ ____
ROOT
ATOM      1  O   LIG    1       -0.331   0.404   1.289  0.00  0.00    -0.444 OA
ENDROOT
BRANCH   1   2
ATOM      2  C   LIG    1       -0.945   0.795   0.144  0.00  0.00    +0.313 C 
ATOM      3  O   LIG    1       -0.375   1.661  -0.560  0.00  0.00    -0.250 OA
BRANCH   2   8
ATOM      4  C   LIG    1       -3.153  -0.265   0.718  0.00  0.00    +0.032 C 
ATOM      5  C   LIG    1       -2.365  -1.240  -0.146  0.00  0.00    -0.014 C 
ATOM      6  C   LIG    1       -1.260  -1.986   0.548  0.00  0.00    +0.012 C 
ATOM      7  C   LIG    1       -3.074  -1.965  -1.247  0.00  0.00    +0.012 C 
ATOM      8  C   LIG    1       -2.253   0.261  -0.329  0.00  0.00    +0.111 C 
BRANCH   4   9
ATOM      9  C   LIG    1       -4.609  -0.356   0.536  0.00  0.00    -0.023 C 
ATOM     10  C   LIG    1       -5.357   0.663   0.119  0.00  0.00    -0.079 C 
ATOM     11  C   LIG    1       -6.823   0.509  -0.045  0.00  0.00    +0.038 C 
ATOM     12  C   LIG    1       -4.769   1.993  -0.200  0.00  0.00    +0.038 C 
ENDBRANCH   4   9
ENDBRANCH   2   8
ENDBRANCH   1   2
BRANCH   1  13
ATOM     13  C   LIG    1        0.861   0.788   1.864  0.00  0.00    +0.352 C 
BRANCH  13  14
ATOM     14  N   LIG    1        2.060   0.581   1.135  0.00  0.00    -0.200 N 
ATOM     15  C   LIG    1        2.831  -0.637   1.184  0.00  0.00    +0.252 C 
ATOM     16  O   LIG    1        2.602  -1.675   1.852  0.00  0.00    -0.270 OA
ATOM     17  C   LIG    1        3.979  -0.480   0.297  0.00  0.00    +0.023 C 
ATOM     18  C   LIG    1        5.132  -1.358  -0.089  0.00  0.00    +0.041 C 
ATOM     19  C   LIG    1        6.396  -0.561   0.126  0.00  0.00    +0.005 C 
ATOM     20  C   LIG    1        6.382   0.762  -0.589  0.00  0.00    +0.005 C 
ATOM     21  C   LIG    1        5.029   1.072  -1.202  0.00  0.00    +0.041 C 
ATOM     22  C   LIG    1        3.948   0.716  -0.264  0.00  0.00    +0.023 C 
ATOM     23  C   LIG    1        2.755   1.414   0.239  0.00  0.00    +0.252 C 
ATOM     24  O   LIG    1        2.480   2.576  -0.132  0.00  0.00    -0.270 OA
ENDBRANCH  13  14
ENDBRANCH   1  13
TORSDOF 5
