REMARK  Name = molecules/CXHKZHZLDMQGFF-ZSDSSEDPSA-N.pdb
REMARK                            x       y       z     vdW  Elec       q    Type
REMARK                         _______ _______ _______ _____ _____    ______ ____
ROOT
ATOM      1  CA  LIG    1        3.171  -0.230   1.338  0.00  0.00    +0.123 C 
ATOM      2  N   LIG    1        1.906   0.394   1.671  0.00  0.00    -0.249 N 
ATOM      3  C   LIG    1        0.883  -0.267   2.456  0.00  0.00    +0.169 C 
ATOM      4  CA  LIG    1       -0.038   0.784   1.911  0.00  0.00    +0.191 C 
ATOM      5  S   LIG    1        0.685  -1.924   1.839  0.00  0.00    -0.131 S 
ATOM      6  C   LIG    1        1.900  -2.152   0.518  0.00  0.00    +0.104 C 
ATOM      7  C   LIG    1        1.133   1.571   1.527  0.00  0.00    +0.244 C 
ATOM      8  O   LIG    1        1.322   2.769   1.214  0.00  0.00    -0.273 OA
ATOM      9  C   LIG    1        3.196  -1.441   0.819  0.00  0.00    -0.021 C 
ENDROOT
BRANCH   4  10
ATOM     10  N   LIG    1       -0.919   0.361   0.819  0.00  0.00    -0.296 N 
ATOM     11  C   LIG    1       -2.286   0.613   0.911  0.00  0.00    +0.268 C 
ATOM     12  O   LIG    1       -2.565   1.239   2.054  0.00  0.00    -0.268 OA
ATOM     13  H   LIG    1       -0.426  -0.100   0.038  0.00  0.00    +0.150 HD
BRANCH  11  14
ATOM     14  C   LIG    1       -3.407   0.362   0.097  0.00  0.00    +0.190 C 
ATOM     15  N   LIG    1       -4.572   0.799   0.574  0.00  0.00    -0.078 NA
BRANCH  14  16
ATOM     16  C   LIG    1       -3.452  -0.320  -1.233  0.00  0.00    +0.107 A 
ATOM     17  C   LIG    1       -2.381  -0.902  -1.845  0.00  0.00    +0.078 A 
ATOM     18  S   LIG    1       -3.078  -1.472  -3.330  0.00  0.00    -0.060 S 
ATOM     19  C   LIG    1       -4.671  -0.936  -3.073  0.00  0.00    +0.156 A 
ATOM     20  N   LIG    1       -4.589  -0.368  -1.905  0.00  0.00    -0.223 NA
BRANCH  19  21
ATOM     21  N   LIG    1       -5.832  -1.071  -3.930  0.00  0.00    -0.338 N 
ATOM     22  H   LIG    1       -6.524  -1.779  -3.660  0.00  0.00    +0.144 HD
ATOM     23  H   LIG    1       -5.951  -0.484  -4.764  0.00  0.00    +0.144 HD
ENDBRANCH  19  21
ENDBRANCH  14  16
BRANCH  15  24
ATOM     24  O   LIG    1       -4.718   1.449   1.761  0.00  0.00    -0.396 OA
ATOM     25  C   LIG    1       -5.525   2.606   1.815  0.00  0.00    +0.313 C 
ENDBRANCH  15  24
ENDBRANCH  11  14
ENDBRANCH   4  10
BRANCH   1  26
ATOM     26  C   LIG    1        4.354   0.550   1.621  0.00  0.00    +0.351 C 
ATOM     27  O   LIG    1        5.494   0.127   1.401  0.00  0.00    -0.244 OA
BRANCH  26  28
ATOM     28  OXT LIG    1        4.286   1.824   2.159  0.00  0.00    -0.476 OA
ATOM     29  HXT LIG    1        4.538   2.668   1.687  0.00  0.00    +0.295 HD
ENDBRANCH  26  28
ENDBRANCH   1  26
BRANCH   9  30
ATOM     30  C   LIG    1        4.409  -2.160   0.467  0.00  0.00    +0.108 C 
BRANCH  30  31
ATOM     31  S   LIG    1        4.290  -2.468  -1.357  0.00  0.00    -0.111 S 
BRANCH  31  32
ATOM     32  C   LIG    1        4.374  -0.880  -2.207  0.00  0.00    +0.085 A 
ATOM     33  C   LIG    1        3.327  -0.054  -2.546  0.00  0.00    +0.159 A 
ATOM     34  N   LIG    1        3.634   1.050  -3.162  0.00  0.00    -0.148 NA
ATOM     35  N   LIG    1        4.875   1.319  -3.425  0.00  0.00    -0.109 NA
ATOM     36  S   LIG    1        5.709  -0.002  -2.802  0.00  0.00    +0.043 S 
ENDBRANCH  31  32
ENDBRANCH  30  31
ENDBRANCH   9  30
TORSDOF 10
