REMARK  Name = molecules/CXOFVDLJLONNDW-UHFFFAOYSA-N.pdb
REMARK                            x       y       z     vdW  Elec       q    Type
REMARK                         _______ _______ _______ _____ _____    ______ ____
ROOT
ATOM      1  O   LIG    1        0.270   2.014   1.927  0.00  0.00    -0.272 OA
ATOM      2  C   LIG    1        0.025   1.966   0.680  0.00  0.00    +0.253 C 
ATOM      3  N   LIG    1       -0.261   3.125  -0.081  0.00  0.00    -0.238 N 
ATOM      4  H   LIG    1       -0.372   4.119   0.279  0.00  0.00    +0.159 HD
ATOM      5  C   LIG    1       -0.385   2.777  -1.443  0.00  0.00    +0.307 C 
ATOM      6  N   LIG    1       -0.174   1.375  -1.533  0.00  0.00    -0.278 N 
ATOM      7  H   LIG    1       -0.139   0.850  -2.456  0.00  0.00    +0.152 HD
ATOM      8  O   LIG    1       -0.639   3.567  -2.414  0.00  0.00    -0.252 OA
ATOM      9  C   LIG    1       -0.025   0.802  -0.232  0.00  0.00    +0.163 C 
ENDROOT
BRANCH   9  10
ATOM     10  C   LIG    1       -1.193  -0.055   0.125  0.00  0.00    -0.011 A 
ATOM     11  C   LIG    1       -2.032   0.220   1.173  0.00  0.00    +0.006 A 
ATOM     12  C   LIG    1       -3.127  -0.587   1.502  0.00  0.00    +0.000 A 
ATOM     13  C   LIG    1       -3.357  -1.704   0.727  0.00  0.00    +0.000 A 
ATOM     14  C   LIG    1       -2.525  -2.001  -0.333  0.00  0.00    +0.000 A 
ATOM     15  C   LIG    1       -1.452  -1.190  -0.638  0.00  0.00    +0.006 A 
ENDBRANCH   9  10
BRANCH   9  16
ATOM     16  C   LIG    1        1.240   0.015  -0.150  0.00  0.00    -0.011 A 
ATOM     17  C   LIG    1        1.700  -0.383   1.102  0.00  0.00    +0.006 A 
ATOM     18  C   LIG    1        2.861  -1.112   1.233  0.00  0.00    +0.000 A 
ATOM     19  C   LIG    1        3.576  -1.451   0.101  0.00  0.00    +0.000 A 
ATOM     20  C   LIG    1        3.155  -1.077  -1.150  0.00  0.00    +0.000 A 
ATOM     21  C   LIG    1        1.978  -0.340  -1.259  0.00  0.00    +0.006 A 
ENDBRANCH   9  16
TORSDOF 2
