REMARK  Name = molecules/CXVGEDCSTKKODG-UHFFFAOYSA-N.pdb
REMARK                            x       y       z     vdW  Elec       q    Type
REMARK                         _______ _______ _______ _____ _____    ______ ____
ROOT
ATOM      1  C   LIG    1        0.234   0.632  -0.524  0.00  0.00    +0.039 A 
ATOM      2  C   LIG    1       -0.347  -0.271   0.346  0.00  0.00    +0.044 A 
ATOM      3  C   LIG    1       -1.703  -0.316   0.616  0.00  0.00    +0.159 A 
ATOM      4  C   LIG    1       -2.488   0.600  -0.034  0.00  0.00    +0.151 A 
ATOM      5  C   LIG    1       -1.942   1.506  -0.902  0.00  0.00    +0.093 A 
ATOM      6  C   LIG    1       -0.558   1.550  -1.174  0.00  0.00    +0.127 A 
ENDROOT
BRANCH   3   7
ATOM      7  S   LIG    1       -2.427  -1.461   1.719  0.00  0.00    +0.113 S 
ATOM      8  O   LIG    1       -3.172  -0.690   2.778  0.00  0.00    -0.142 OA
ATOM      9  O   LIG    1       -1.349  -2.294   2.319  0.00  0.00    -0.142 OA
BRANCH   7  10
ATOM     10  O   LIG    1       -3.565  -2.435   0.941  0.00  0.00    -0.250 OA
ATOM     11  H   LIG    1       -3.571  -2.287  -0.030  0.00  0.00    +0.245 HD
ENDBRANCH   7  10
ENDBRANCH   3   7
BRANCH   1  12
ATOM     12  C   LIG    1        1.641   0.571  -0.783  0.00  0.00    +0.198 C 
ATOM     13  O   LIG    1        2.087   1.211  -1.806  0.00  0.00    -0.213 OA
BRANCH  12  14
ATOM     14  C   LIG    1        2.647  -0.141  -0.013  0.00  0.00    -0.005 A 
ATOM     15  C   LIG    1        2.639  -0.270   1.348  0.00  0.00    +0.007 A 
ATOM     16  C   LIG    1        3.667  -0.941   2.028  0.00  0.00    +0.000 A 
ATOM     17  C   LIG    1        4.724  -1.492   1.341  0.00  0.00    +0.000 A 
ATOM     18  C   LIG    1        4.745  -1.367  -0.032  0.00  0.00    +0.000 A 
ATOM     19  C   LIG    1        3.730  -0.708  -0.690  0.00  0.00    +0.007 A 
ENDBRANCH  12  14
ENDBRANCH   1  12
BRANCH   4  20
ATOM     20  O   LIG    1       -3.867   0.578   0.220  0.00  0.00    -0.493 OA
ATOM     21  C   LIG    1       -4.720   1.498  -0.421  0.00  0.00    +0.277 C 
ENDBRANCH   4  20
BRANCH   6  22
ATOM     22  O   LIG    1       -0.137   2.503  -2.058  0.00  0.00    -0.506 OA
ATOM     23  H   LIG    1        0.700   2.784  -2.431  0.00  0.00    +0.292 HD
ENDBRANCH   6  22
TORSDOF 6
