REMARK  Name = molecules/CXYOBRKOFHQONJ-UHFFFAOYSA-N.pdb
REMARK                            x       y       z     vdW  Elec       q    Type
REMARK                         _______ _______ _______ _____ _____    ______ ____
ROOT
ATOM      1  C   LIG    1        1.710   0.738   0.209  0.00  0.00    +0.061 A 
ATOM      2  C   LIG    1        2.757   0.969   1.064  0.00  0.00    +0.018 A 
ATOM      3  C   LIG    1        3.976   0.370   0.870  0.00  0.00    +0.048 A 
ATOM      4  C   LIG    1        4.222  -0.506  -0.204  0.00  0.00    +0.141 A 
ATOM      5  C   LIG    1        3.138  -0.727  -1.066  0.00  0.00    +0.068 A 
ATOM      6  C   LIG    1        1.953  -0.118  -0.842  0.00  0.00    +0.041 A 
ENDROOT
BRANCH   5   7
ATOM      7  N   LIG    1        3.324  -1.601  -2.163  0.00  0.00    -0.355 N 
ATOM      8  H   LIG    1        2.869  -2.529  -2.206  0.00  0.00    +0.142 HD
ATOM      9  H   LIG    1        3.933  -1.310  -2.949  0.00  0.00    +0.142 HD
ENDBRANCH   5   7
BRANCH   1  10
ATOM     10  C   LIG    1        0.400   1.374   0.386  0.00  0.00    +0.339 C 
ATOM     11  O   LIG    1        0.135   2.109   1.367  0.00  0.00    -0.245 OA
BRANCH  10  12
ATOM     12  O   LIG    1       -0.614   1.182  -0.541  0.00  0.00    -0.459 OA
BRANCH  12  13
ATOM     13  C   LIG    1       -1.904   1.728  -0.467  0.00  0.00    +0.260 C 
BRANCH  13  14
ATOM     14  C   LIG    1       -2.687   1.237   0.728  0.00  0.00    +0.201 C 
BRANCH  14  15
ATOM     15  O   LIG    1       -2.849  -0.149   0.698  0.00  0.00    -0.375 OA
BRANCH  15  16
ATOM     16  C   LIG    1       -3.522  -0.582  -0.431  0.00  0.00    +0.175 C 
BRANCH  16  17
ATOM     17  C   LIG    1       -4.911  -0.064  -0.589  0.00  0.00    +0.112 C 
BRANCH  17  18
ATOM     18  N   LIG    1       -5.804  -0.411   0.464  0.00  0.00    -0.301 NA
BRANCH  18  19
ATOM     19  C   LIG    1       -6.137  -1.799   0.526  0.00  0.00    +0.081 C 
ATOM     20  C   LIG    1       -6.973  -2.256  -0.650  0.00  0.00    +0.020 C 
ENDBRANCH  18  19
BRANCH  18  21
ATOM     21  C   LIG    1       -6.941   0.459   0.458  0.00  0.00    +0.081 C 
ATOM     22  C   LIG    1       -6.614   1.879   0.842  0.00  0.00    +0.020 C 
ENDBRANCH  18  21
ENDBRANCH  17  18
ENDBRANCH  16  17
ENDBRANCH  15  16
ENDBRANCH  14  15
ENDBRANCH  13  14
ENDBRANCH  12  13
ENDBRANCH  10  12
ENDBRANCH   1  10
BRANCH   4  23
ATOM     23  O   LIG    1        5.347  -1.102  -0.438  0.00  0.00    -0.490 OA
BRANCH  23  24
ATOM     24  C   LIG    1        6.463  -1.674  -0.643  0.00  0.00    +0.229 C 
BRANCH  24  25
ATOM     25  C   LIG    1        7.622  -0.696  -0.939  0.00  0.00    +0.041 C 
BRANCH  25  26
ATOM     26  C   LIG    1        7.740   0.210   0.259  0.00  0.00    -0.000 C 
ATOM     27  C   LIG    1        8.873   1.208   0.083  0.00  0.00    +0.004 C 
ENDBRANCH  25  26
ENDBRANCH  24  25
ENDBRANCH  23  24
ENDBRANCH   4  23
TORSDOF 15
