REMARK  Name = molecules/CYDMQBQPVICBEU-XRNKAMNCSA-N.pdb
REMARK                            x       y       z     vdW  Elec       q    Type
REMARK                         _______ _______ _______ _____ _____    ______ ____
ROOT
ATOM      1  C   LIG    1       -1.279   1.386  -0.629  0.00  0.00    +0.190 C 
ATOM      2  C   LIG    1       -0.175   1.594   0.336  0.00  0.00    +0.141 C 
ATOM      3  C   LIG    1        0.991   0.987   0.049  0.00  0.00    +0.047 C 
ATOM      4  C   LIG    1        2.119   1.151   0.956  0.00  0.00    +0.197 C 
ATOM      5  O   LIG    1        1.960   1.896   1.937  0.00  0.00    -0.287 OA
ATOM      6  C   LIG    1        3.351   0.440   0.661  0.00  0.00    +0.071 A 
ATOM      7  C   LIG    1        4.449   0.574   1.533  0.00  0.00    +0.128 A 
ATOM      8  C   LIG    1        5.643  -0.110   1.281  0.00  0.00    +0.047 A 
ATOM      9  C   LIG    1        5.680  -0.902   0.159  0.00  0.00    +0.024 A 
ATOM     10  C   LIG    1        4.623  -1.040  -0.692  0.00  0.00    +0.048 A 
ATOM     11 CL   LIG    1        4.659  -2.052  -2.111  0.00  0.00    -0.083 Cl
ATOM     12  C   LIG    1        3.406  -0.353  -0.453  0.00  0.00    +0.017 A 
ATOM     13  C   LIG    1        2.313  -0.517  -1.379  0.00  0.00    +0.097 C 
ATOM     14  C   LIG    1        2.751  -0.367  -2.841  0.00  0.00    +0.047 C 
ATOM     15  C   LIG    1        1.053   0.190  -1.178  0.00  0.00    +0.063 C 
ATOM     16  C   LIG    1       -0.152  -0.781  -1.169  0.00  0.00    +0.020 C 
ATOM     17  C   LIG    1       -2.509   1.946  -0.068  0.00  0.00    +0.211 C 
ATOM     18  O   LIG    1       -2.533   3.127   0.330  0.00  0.00    -0.288 OA
ATOM     19  C   LIG    1       -3.719   1.099   0.022  0.00  0.00    +0.121 C 
ATOM     20  C   LIG    1       -3.564  -0.183   0.277  0.00  0.00    +0.127 C 
ATOM     21  C   LIG    1       -2.123  -0.601   0.445  0.00  0.00    +0.129 C 
ATOM     22  C   LIG    1       -1.402  -0.160  -0.756  0.00  0.00    +0.061 C 
ENDROOT
BRANCH  19  23
ATOM     23  C   LIG    1       -5.040   1.685  -0.164  0.00  0.00    +0.248 C 
ATOM     24  O   LIG    1       -6.044   0.942  -0.078  0.00  0.00    -0.270 OA
ATOM     25  N   LIG    1       -5.237   3.061  -0.440  0.00  0.00    -0.325 N 
ATOM     26  H   LIG    1       -5.071   3.737   0.337  0.00  0.00    +0.145 HD
ATOM     27  H   LIG    1       -5.535   3.449  -1.353  0.00  0.00    +0.145 HD
ENDBRANCH  19  23
BRANCH  21  28
ATOM     28  N   LIG    1       -1.982  -1.891   0.970  0.00  0.00    -0.299 NA
ATOM     29  C   LIG    1       -2.986  -2.213   1.962  0.00  0.00    +0.105 C 
ATOM     30  C   LIG    1       -0.695  -2.223   1.513  0.00  0.00    +0.105 C 
ENDBRANCH  21  28
BRANCH   1  31
ATOM     31  O   LIG    1       -1.055   1.965  -1.872  0.00  0.00    -0.373 OA
ATOM     32  H   LIG    1       -1.384   1.407  -2.618  0.00  0.00    +0.211 HD
ENDBRANCH   1  31
BRANCH   2  33
ATOM     33  O   LIG    1       -0.251   2.350   1.487  0.00  0.00    -0.507 OA
ATOM     34  H   LIG    1       -0.518   1.989   2.391  0.00  0.00    +0.292 HD
ENDBRANCH   2  33
BRANCH   7  35
ATOM     35  O   LIG    1        4.434   1.349   2.644  0.00  0.00    -0.506 OA
ATOM     36  H   LIG    1        3.781   1.917   3.064  0.00  0.00    +0.292 HD
ENDBRANCH   7  35
BRANCH  13  37
ATOM     37  O   LIG    1        1.986  -1.918  -1.296  0.00  0.00    -0.384 OA
ATOM     38  H   LIG    1        2.121  -2.381  -2.132  0.00  0.00    +0.211 HD
ENDBRANCH  13  37
BRANCH  20  39
ATOM     39  O   LIG    1       -4.636  -1.029   0.373  0.00  0.00    -0.509 OA
ATOM     40  H   LIG    1       -5.145  -1.376  -0.438  0.00  0.00    +0.292 HD
ENDBRANCH  20  39
TORSDOF 7
