REMARK  Name = molecules/CYDRXTMLKJDRQH-UHFFFAOYSA-N.pdb
REMARK                            x       y       z     vdW  Elec       q    Type
REMARK                         _______ _______ _______ _____ _____    ______ ____
ROOT
ATOM      1  C   LIG    1       -2.159   1.083   0.067  0.00  0.00    -0.075 C 
ENDROOT
BRANCH   1   2
ATOM      2  N   LIG    1       -3.263   0.324   0.588  0.00  0.00    +0.379 N 
ATOM      3  C   LIG    1       -2.952   0.092   2.012  0.00  0.00    -0.092 C 
ATOM      4  C   LIG    1       -3.524  -0.900  -0.078  0.00  0.00    -0.092 C 
BRANCH   2   5
ATOM      5  C   LIG    1       -4.417   1.205   0.571  0.00  0.00    -0.040 C 
BRANCH   5   6
ATOM      6  C   LIG    1       -5.709   0.566   0.369  0.00  0.00    -0.063 A 
ATOM      7  C   LIG    1       -6.382  -0.120   1.349  0.00  0.00    +0.002 A 
ATOM      8  C   LIG    1       -7.603  -0.682   1.065  0.00  0.00    +0.000 A 
ATOM      9  C   LIG    1       -8.197  -0.592  -0.172  0.00  0.00    +0.000 A 
ATOM     10  C   LIG    1       -7.533   0.093  -1.165  0.00  0.00    +0.000 A 
ATOM     11  C   LIG    1       -6.310   0.653  -0.868  0.00  0.00    +0.002 A 
ENDBRANCH   5   6
ENDBRANCH   2   5
ENDBRANCH   1   2
BRANCH   1  12
ATOM     12  C   LIG    1       -1.041   0.342  -0.550  0.00  0.00    -0.018 C 
BRANCH  12  13
ATOM     13  C   LIG    1       -0.353  -0.628   0.377  0.00  0.00    -0.002 C 
BRANCH  13  14
ATOM     14  C   LIG    1        0.780  -1.370  -0.286  0.00  0.00    -0.000 C 
BRANCH  14  15
ATOM     15  C   LIG    1        1.850  -0.472  -0.795  0.00  0.00    -0.000 C 
BRANCH  15  16
ATOM     16  C   LIG    1        2.430   0.312   0.358  0.00  0.00    -0.000 C 
BRANCH  16  17
ATOM     17  C   LIG    1        3.534   1.240  -0.105  0.00  0.00    -0.000 C 
BRANCH  17  18
ATOM     18  C   LIG    1        4.669   0.525  -0.744  0.00  0.00    -0.000 C 
BRANCH  18  19
ATOM     19  C   LIG    1        5.342  -0.473   0.166  0.00  0.00    -0.000 C 
BRANCH  19  20
ATOM     20  C   LIG    1        6.485  -1.179  -0.509  0.00  0.00    -0.000 C 
BRANCH  20  21
ATOM     21  C   LIG    1        7.566  -0.226  -0.972  0.00  0.00    -0.003 C 
ATOM     22  C   LIG    1        8.159   0.549   0.177  0.00  0.00    +0.004 C 
ENDBRANCH  20  21
ENDBRANCH  19  20
ENDBRANCH  18  19
ENDBRANCH  17  18
ENDBRANCH  16  17
ENDBRANCH  15  16
ENDBRANCH  14  15
ENDBRANCH  13  14
ENDBRANCH  12  13
ENDBRANCH   1  12
TORSDOF 13
