REMARK  Name = molecules/CYFLXLSBHQBMFT-UHFFFAOYSA-N.pdb
REMARK                            x       y       z     vdW  Elec       q    Type
REMARK                         _______ _______ _______ _____ _____    ______ ____
ROOT
ATOM      1  S   LIG    1        0.378   1.689   1.880  0.00  0.00    +0.076 S 
ATOM      2  O   LIG    1        0.988   2.147   3.188  0.00  0.00    -0.150 OA
ATOM      3  O   LIG    1       -0.173   2.892   1.161  0.00  0.00    -0.150 OA
ENDROOT
BRANCH   1   4
ATOM      4  C   LIG    1        1.603   0.981   0.868  0.00  0.00    +0.109 A 
ATOM      5  C   LIG    1        2.658   0.258   1.408  0.00  0.00    +0.030 A 
ATOM      6  C   LIG    1        3.628  -0.301   0.616  0.00  0.00    +0.024 A 
ATOM      7  C   LIG    1        3.605  -0.173  -0.758  0.00  0.00    +0.025 A 
ATOM      8  C   LIG    1        2.550   0.550  -1.299  0.00  0.00    +0.024 A 
ATOM      9  C   LIG    1        1.573   1.113  -0.503  0.00  0.00    +0.030 A 
BRANCH   7  10
ATOM     10  N   LIG    1        4.613  -0.755  -1.565  0.00  0.00    -0.358 N 
ATOM     11  H   LIG    1        5.442  -0.187  -1.835  0.00  0.00    +0.142 HD
ATOM     12  H   LIG    1        4.489  -1.740  -1.865  0.00  0.00    +0.142 HD
ENDBRANCH   7  10
ENDBRANCH   1   4
BRANCH   1  13
ATOM     13  N   LIG    1       -0.916   0.622   2.192  0.00  0.00    -0.169 N 
ATOM     14  H   LIG    1       -1.154   0.307   3.168  0.00  0.00    +0.178 HD
BRANCH  13  15
ATOM     15  C   LIG    1       -1.708   0.130   1.127  0.00  0.00    +0.308 A 
ATOM     16  N   LIG    1       -2.765  -0.718   1.190  0.00  0.00    -0.199 NA
ATOM     17  C   LIG    1       -3.209  -0.911  -0.055  0.00  0.00    +0.081 A 
ATOM     18  C   LIG    1       -4.340  -1.747  -0.539  0.00  0.00    +0.069 C 
ATOM     19  C   LIG    1       -2.406  -0.164  -0.898  0.00  0.00    +0.127 A 
ATOM     20  C   LIG    1       -2.487  -0.040  -2.360  0.00  0.00    +0.088 C 
ATOM     21  O   LIG    1       -1.532   0.432  -0.135  0.00  0.00    -0.429 OA
ENDBRANCH  13  15
ENDBRANCH   1  13
TORSDOF 4
