REMARK  Name = molecules/CYOHGALHFOKKQC-UHFFFAOYSA-N.pdb
REMARK                            x       y       z     vdW  Elec       q    Type
REMARK                         _______ _______ _______ _____ _____    ______ ____
ROOT
ATOM      1  C   LIG    1       -2.495  -1.316  -0.768  0.00  0.00    +0.172 A 
ATOM      2  C   LIG    1       -2.114  -2.602  -0.469  0.00  0.00    +0.126 A 
ATOM      3  N   LIG    1       -2.738  -3.762  -0.214  0.00  0.00    -0.233 NA
ATOM      4  C   LIG    1       -1.800  -4.704   0.017  0.00  0.00    +0.200 A 
ATOM      5  N   LIG    1       -0.564  -4.181  -0.078  0.00  0.00    -0.333 N 
ATOM      6  C   LIG    1        0.711  -4.850   0.102  0.00  0.00    +0.150 C 
ATOM      7  C   LIG    1       -0.755  -2.875  -0.380  0.00  0.00    +0.072 A 
ATOM      8  C   LIG    1        0.188  -1.873  -0.590  0.00  0.00    +0.043 A 
ATOM      9  C   LIG    1       -0.207  -0.594  -0.891  0.00  0.00    +0.065 A 
ATOM     10  F   LIG    1       -3.800  -1.029  -0.859  0.00  0.00    -0.201 F 
ATOM     11  C   LIG    1       -1.543  -0.328  -0.975  0.00  0.00    +0.082 A 
ENDROOT
BRANCH   9  12
ATOM     12  C   LIG    1        0.803   0.417  -1.192  0.00  0.00    +0.269 C 
ATOM     13  N   LIG    1        2.181   0.198  -1.064  0.00  0.00    -0.190 N 
ATOM     14  H   LIG    1        2.534  -0.708  -0.717  0.00  0.00    +0.183 HD
ATOM     15  O   LIG    1        0.434   1.572  -1.596  0.00  0.00    -0.268 OA
BRANCH  13  16
ATOM     16  O   LIG    1        3.082   1.133  -1.372  0.00  0.00    -0.277 OA
BRANCH  16  17
ATOM     17  C   LIG    1        4.085   1.181  -0.389  0.00  0.00    +0.218 C 
BRANCH  17  18
ATOM     18  C   LIG    1        5.140   2.197  -0.715  0.00  0.00    +0.186 C 
BRANCH  18  19
ATOM     19  O   LIG    1        6.070   2.142   0.343  0.00  0.00    -0.393 OA
ATOM     20  H   LIG    1        5.901   2.904   0.954  0.00  0.00    +0.209 HD
ENDBRANCH  18  19
ENDBRANCH  17  18
ENDBRANCH  16  17
ENDBRANCH  13  16
ENDBRANCH   9  12
BRANCH  11  21
ATOM     21  N   LIG    1       -1.982   1.004  -1.265  0.00  0.00    -0.310 N 
ATOM     22  H   LIG    1       -2.005   1.394  -2.225  0.00  0.00    +0.152 HD
BRANCH  21  23
ATOM     23  C   LIG    1       -2.404   1.857  -0.195  0.00  0.00    +0.050 A 
ATOM     24  C   LIG    1       -2.414   1.349   1.086  0.00  0.00    +0.026 A 
ATOM     25  C   LIG    1       -2.829   2.095   2.169  0.00  0.00    +0.017 A 
ATOM     26  C   LIG    1       -3.244   3.377   1.968  0.00  0.00    +0.019 A 
ATOM     27 BR   LIG    1       -3.840   4.462   3.437  0.00  0.00    -0.050 Br
ATOM     28  C   LIG    1       -3.238   3.901   0.683  0.00  0.00    +0.037 A 
ATOM     29  C   LIG    1       -2.820   3.146  -0.392  0.00  0.00    +0.063 A 
ATOM     30 CL   LIG    1       -2.839   3.872  -1.976  0.00  0.00    -0.082 Cl
ENDBRANCH  21  23
ENDBRANCH  11  21
TORSDOF 7
