REMARK  Name = molecules/CYQFCXCEBYINGO-IAGOWNOFSA-N.pdb
REMARK                            x       y       z     vdW  Elec       q    Type
REMARK                         _______ _______ _______ _____ _____    ______ ____
ROOT
ATOM      1  C   LIG    1        0.175   1.277  -1.149  0.00  0.00    +0.124 A 
ATOM      2  C   LIG    1       -0.514   0.232  -0.585  0.00  0.00    +0.043 A 
ATOM      3  C   LIG    1       -1.893   0.428  -0.152  0.00  0.00    +0.056 C 
ATOM      4  C   LIG    1       -2.418  -0.673   0.738  0.00  0.00    +0.044 C 
ATOM      5  C   LIG    1       -3.888  -0.478   0.906  0.00  0.00    +0.012 C 
ATOM      6  C   LIG    1       -4.379   0.885   0.512  0.00  0.00    +0.030 C 
ATOM      7  C   LIG    1       -3.403   1.948   0.915  0.00  0.00    -0.076 C 
ATOM      8  C   LIG    1       -3.766   3.173   1.631  0.00  0.00    +0.039 C 
ATOM      9  C   LIG    1       -2.036  -1.992   0.126  0.00  0.00    +0.109 C 
ATOM     10  C   LIG    1       -2.504  -3.169   0.939  0.00  0.00    +0.055 C 
ATOM     11  O   LIG    1       -0.600  -2.036   0.135  0.00  0.00    -0.486 OA
ATOM     12  C   LIG    1       -2.484  -2.117  -1.308  0.00  0.00    +0.055 C 
ATOM     13  C   LIG    1       -2.126   1.709   0.572  0.00  0.00    -0.019 C 
ATOM     14  C   LIG    1        0.111  -0.976  -0.442  0.00  0.00    +0.129 A 
ATOM     15  C   LIG    1        1.410  -1.113  -0.865  0.00  0.00    +0.049 A 
ATOM     16  C   LIG    1        2.143  -0.079  -1.441  0.00  0.00    -0.040 A 
ATOM     17  C   LIG    1        1.494   1.140  -1.579  0.00  0.00    +0.049 A 
ENDROOT
BRANCH   1  18
ATOM     18  O   LIG    1       -0.429   2.516  -1.310  0.00  0.00    -0.506 OA
ATOM     19  H   LIG    1        0.010   3.312  -1.708  0.00  0.00    +0.292 HD
ENDBRANCH   1  18
BRANCH  16  20
ATOM     20  C   LIG    1        3.546  -0.246  -1.899  0.00  0.00    +0.035 C 
BRANCH  20  21
ATOM     21  C   LIG    1        4.468   0.116  -0.765  0.00  0.00    +0.005 C 
BRANCH  21  22
ATOM     22  C   LIG    1        4.188  -0.801   0.404  0.00  0.00    +0.000 C 
BRANCH  22  23
ATOM     23  C   LIG    1        5.161  -0.386   1.517  0.00  0.00    -0.003 C 
ATOM     24  C   LIG    1        4.861   1.053   1.833  0.00  0.00    +0.004 C 
ENDBRANCH  22  23
ENDBRANCH  21  22
ENDBRANCH  20  21
ENDBRANCH  16  20
TORSDOF 5
