REMARK  Name = molecules/CYWFCPPBTWOZSF-UHFFFAOYSA-N.pdb
REMARK                            x       y       z     vdW  Elec       q    Type
REMARK                         _______ _______ _______ _____ _____    ______ ____
ROOT
ATOM      1  C   LIG    1       -0.549  -0.816   0.220  0.00  0.00    -0.047 A 
ATOM      2  C   LIG    1        0.062  -0.201   1.302  0.00  0.00    +0.004 A 
ATOM      3  C   LIG    1        1.435  -0.020   1.356  0.00  0.00    +0.004 A 
ATOM      4  C   LIG    1        2.244  -0.453   0.322  0.00  0.00    -0.037 A 
ATOM      5  C   LIG    1        1.634  -1.062  -0.749  0.00  0.00    +0.004 A 
ATOM      6  C   LIG    1        0.264  -1.240  -0.798  0.00  0.00    +0.004 A 
ENDROOT
BRANCH   1   7
ATOM      7  C   LIG    1       -2.006  -0.969   0.239  0.00  0.00    +0.038 C 
BRANCH   7   8
ATOM      8  C   LIG    1       -2.748   0.190  -0.371  0.00  0.00    -0.013 C 
ATOM      9  C   LIG    1       -2.465   1.490   0.344  0.00  0.00    +0.007 C 
ATOM     10  C   LIG    1       -4.240  -0.097  -0.191  0.00  0.00    +0.007 C 
ENDBRANCH   7   8
ENDBRANCH   1   7
BRANCH   4  11
ATOM     11  C   LIG    1        3.723  -0.254   0.390  0.00  0.00    +0.155 C 
BRANCH  11  12
ATOM     12  C   LIG    1        4.119   1.042  -0.205  0.00  0.00    +0.309 C 
ATOM     13  O   LIG    1        3.307   1.864  -0.702  0.00  0.00    -0.251 OA
BRANCH  12  14
ATOM     14  O   LIG    1        5.462   1.363  -0.212  0.00  0.00    -0.480 OA
ATOM     15  H   LIG    1        6.209   0.730   0.015  0.00  0.00    +0.295 HD
ENDBRANCH  12  14
ENDBRANCH  11  12
ENDBRANCH   4  11
TORSDOF 5
