REMARK  Name = molecules/CYXKNKQEMFBLER-SFHVURJKSA-N.pdb
REMARK                            x       y       z     vdW  Elec       q    Type
REMARK                         _______ _______ _______ _____ _____    ______ ____
ROOT
ATOM      1  C   LIG    1       -0.246  -0.533  -0.971  0.00  0.00    -0.003 C 
ENDROOT
BRANCH   1   5
ATOM      2  C   LIG    1       -3.297  -3.077   0.644  0.00  0.00    +0.000 C 
ATOM      3  C   LIG    1       -2.234  -2.559   1.576  0.00  0.00    +0.000 C 
ATOM      4  C   LIG    1       -1.676  -1.211   1.058  0.00  0.00    +0.004 C 
ATOM      5  C   LIG    1       -1.353  -1.426  -0.360  0.00  0.00    -0.008 C 
ATOM      6  C   LIG    1       -2.432  -1.837  -1.279  0.00  0.00    +0.004 C 
ATOM      7  C   LIG    1       -3.685  -2.072  -0.416  0.00  0.00    +0.000 C 
ENDBRANCH   1   5
BRANCH   1   8
ATOM      8  C   LIG    1       -0.627   0.879  -1.003  0.00  0.00    -0.008 C 
ATOM      9  C   LIG    1       -2.038   1.224  -1.376  0.00  0.00    +0.004 C 
ATOM     10  C   LIG    1       -2.349   2.681  -1.208  0.00  0.00    +0.000 C 
ATOM     11  C   LIG    1       -1.279   3.613  -0.851  0.00  0.00    +0.000 C 
ATOM     12  C   LIG    1        0.133   3.151  -0.852  0.00  0.00    +0.000 C 
ATOM     13  C   LIG    1        0.216   1.885  -1.673  0.00  0.00    +0.004 C 
ENDBRANCH   1   8
BRANCH   1  14
ATOM     14  C   LIG    1        0.991  -0.927  -0.226  0.00  0.00    +0.022 C 
BRANCH  14  15
ATOM     15  C   LIG    1        2.300  -0.311  -0.405  0.00  0.00    +0.054 C 
ATOM     16  C   LIG    1        3.329  -1.229   0.264  0.00  0.00    +0.019 C 
ATOM     17  C   LIG    1        4.679  -0.548   0.218  0.00  0.00    +0.003 C 
ATOM     18  C   LIG    1        4.591   0.653   1.141  0.00  0.00    +0.015 C 
ATOM     19  C   LIG    1        3.133   1.109   1.253  0.00  0.00    +0.081 C 
ATOM     20  N   LIG    1        2.510   1.049  -0.073  0.00  0.00    -0.313 NA
ATOM     21  H   LIG    1        3.226   1.484  -0.725  0.00  0.00    +0.122 HD
ENDBRANCH  14  15
ENDBRANCH   1  14
TORSDOF 4
