REMARK  Name = molecules/CZBOZZDZNVIXFC-VRRJBYJJSA-N.pdb
REMARK                            x       y       z     vdW  Elec       q    Type
REMARK                         _______ _______ _______ _____ _____    ______ ____
ROOT
ATOM      1  C   LIG    1        0.349   0.621   1.079  0.00  0.00    +0.015 C 
ATOM      2  C   LIG    1       -0.200   0.261  -0.252  0.00  0.00    +0.009 C 
ATOM      3  C   LIG    1       -1.107  -0.936  -0.230  0.00  0.00    +0.002 C 
ATOM      4  C   LIG    1       -2.363  -0.595   0.500  0.00  0.00    -0.000 C 
ATOM      5  C   LIG    1       -3.150  -1.801   0.896  0.00  0.00    +0.008 C 
ATOM      6  C   LIG    1       -4.401  -1.304   1.648  0.00  0.00    +0.032 C 
ATOM      7  C   LIG    1       -5.144  -0.481   0.598  0.00  0.00    -0.056 C 
ATOM      8  C   LIG    1       -6.309  -0.909   0.207  0.00  0.00    +0.051 C 
ATOM      9  C   LIG    1       -7.048  -0.233  -0.849  0.00  0.00    +0.179 C 
ATOM     10  O   LIG    1       -8.177  -0.598  -1.267  0.00  0.00    -0.288 OA
ATOM     11  C   LIG    1       -6.443   0.938  -1.460  0.00  0.00    +0.047 C 
ATOM     12  C   LIG    1       -5.263   1.323  -1.019  0.00  0.00    -0.012 C 
ATOM     13  C   LIG    1       -4.473   0.698   0.042  0.00  0.00    +0.013 C 
ATOM     14  C   LIG    1       -4.289   1.675   1.196  0.00  0.00    +0.020 C 
ATOM     15  C   LIG    1       -3.136   0.246  -0.505  0.00  0.00    +0.035 C 
ATOM     16  C   LIG    1       -2.342   1.344  -1.106  0.00  0.00    +0.120 C 
ATOM     17  C   LIG    1       -0.260  -2.008   0.277  0.00  0.00    +0.008 C 
ATOM     18  C   LIG    1        1.114  -1.660  -0.350  0.00  0.00    +0.043 C 
ATOM     19  C   LIG    1       -0.887   1.368  -0.963  0.00  0.00    +0.041 C 
ATOM     20  C   LIG    1        0.906  -0.384  -1.089  0.00  0.00    +0.130 C 
ENDROOT
BRANCH  16  21
ATOM     21  O   LIG    1       -2.828   2.558  -0.544  0.00  0.00    -0.391 OA
ATOM     22  H   LIG    1       -2.261   3.316  -0.827  0.00  0.00    +0.210 HD
ENDBRANCH  16  21
BRANCH  20  23
ATOM     23  C   LIG    1        2.094   0.405  -1.239  0.00  0.00    +0.179 C 
ATOM     24  O   LIG    1        2.186   0.920  -2.397  0.00  0.00    -0.293 OA
BRANCH  23  25
ATOM     25  C   LIG    1        3.202   0.748  -0.373  0.00  0.00    +0.162 C 
BRANCH  25  26
ATOM     26  N   LIG    1        3.741  -0.288   0.439  0.00  0.00    -0.293 NA
ATOM     27  C   LIG    1        4.559   0.134   1.522  0.00  0.00    +0.100 C 
ATOM     28  C   LIG    1        5.928   0.623   1.078  0.00  0.00    +0.099 C 
ATOM     29  N   LIG    1        6.618  -0.481   0.402  0.00  0.00    -0.303 NA
ATOM     30  C   LIG    1        7.869   0.089  -0.111  0.00  0.00    +0.105 C 
ATOM     31  C   LIG    1        5.821  -0.789  -0.772  0.00  0.00    +0.099 C 
ATOM     32  C   LIG    1        4.474  -1.292  -0.318  0.00  0.00    +0.100 C 
ENDBRANCH  25  26
ENDBRANCH  23  25
ENDBRANCH  20  23
BRANCH  20  33
ATOM     33  O   LIG    1        0.273  -0.651  -2.332  0.00  0.00    -0.380 OA
ATOM     34  H   LIG    1        0.680  -0.110  -3.059  0.00  0.00    +0.211 HD
ENDBRANCH  20  33
TORSDOF 5
