REMARK  Name = molecules/CZCHIEJNWPNBDE-UHFFFAOYSA-N.pdb
REMARK                            x       y       z     vdW  Elec       q    Type
REMARK                         _______ _______ _______ _____ _____    ______ ____
ROOT
ATOM      1  C   LIG    1        0.120  -1.024  -0.585  0.00  0.00    +0.198 C 
ATOM      2  O   LIG    1       -0.102  -2.178  -1.188  0.00  0.00    -0.213 OA
ENDROOT
BRANCH   1   3
ATOM      3  C   LIG    1       -1.028  -0.267  -0.270  0.00  0.00    +0.044 A 
ATOM      4  C   LIG    1       -2.002  -0.703   0.660  0.00  0.00    +0.027 A 
ATOM      5  C   LIG    1       -2.005  -1.817   1.454  0.00  0.00    +0.012 A 
ATOM      6  C   LIG    1       -3.091  -2.030   2.292  0.00  0.00    +0.001 A 
ATOM      7  C   LIG    1       -4.138  -1.139   2.324  0.00  0.00    +0.004 A 
ATOM      8  C   LIG    1       -4.083  -0.033   1.507  0.00  0.00    +0.047 A 
ATOM      9  C   LIG    1       -3.037   0.230   0.655  0.00  0.00    +0.136 A 
ATOM     10  O   LIG    1       -2.719   1.143  -0.194  0.00  0.00    -0.459 OA
ATOM     11  C   LIG    1       -1.530   0.884  -0.768  0.00  0.00    +0.113 A 
BRANCH  11  12
ATOM     12  C   LIG    1       -0.976   1.822  -1.768  0.00  0.00    +0.071 C 
ATOM     13  C   LIG    1       -0.429   3.050  -1.009  0.00  0.00    +0.012 C 
ENDBRANCH  11  12
ENDBRANCH   1   3
BRANCH   1  14
ATOM     14  C   LIG    1        1.530  -0.758  -0.356  0.00  0.00    -0.002 A 
ATOM     15  C   LIG    1        2.084   0.483  -0.180  0.00  0.00    +0.025 A 
ATOM     16  C   LIG    1        3.434   0.661   0.018  0.00  0.00    +0.056 A 
ATOM     17  I   LIG    1        4.274   2.571   0.233  0.00  0.00    -0.040 I 
ATOM     18  C   LIG    1        4.297  -0.451   0.050  0.00  0.00    +0.143 A 
ATOM     19  C   LIG    1        3.792  -1.712  -0.120  0.00  0.00    +0.056 A 
ATOM     20  I   LIG    1        5.065  -3.418  -0.098  0.00  0.00    -0.040 I 
ATOM     21  C   LIG    1        2.442  -1.827  -0.316  0.00  0.00    +0.025 A 
BRANCH  18  22
ATOM     22  O   LIG    1        5.639  -0.241   0.245  0.00  0.00    -0.505 OA
ATOM     23  H   LIG    1        6.078   0.650   0.379  0.00  0.00    +0.292 HD
ENDBRANCH  18  22
ENDBRANCH   1  14
TORSDOF 4
