REMARK  Name = molecules/CZFFBEXEKNGXKS-UHFFFAOYSA-N.pdb
REMARK                            x       y       z     vdW  Elec       q    Type
REMARK                         _______ _______ _______ _____ _____    ______ ____
ROOT
ATOM      1  N   LIG    1        0.369  -1.073  -0.137  0.00  0.00    -0.223 NA
ATOM      2  C   LIG    1        1.115  -2.156   0.135  0.00  0.00    +0.136 A 
ATOM      3  N   LIG    1        0.594  -3.355  -0.183  0.00  0.00    -0.295 N 
ATOM      4  C   LIG    1        1.315  -4.552   0.093  0.00  0.00    +0.154 C 
ATOM      5  C   LIG    1       -0.646  -3.467  -0.762  0.00  0.00    +0.296 A 
ATOM      6  C   LIG    1       -1.385  -2.349  -1.027  0.00  0.00    +0.213 A 
ATOM      7  O   LIG    1       -1.088  -4.601  -1.044  0.00  0.00    -0.264 OA
ATOM      8  C   LIG    1       -0.865  -1.121  -0.707  0.00  0.00    +0.174 A 
ENDROOT
BRANCH   8   9
ATOM      9  C   LIG    1       -1.602   0.111  -0.951  0.00  0.00    +0.267 C 
ATOM     10  O   LIG    1       -1.019   1.205  -0.605  0.00  0.00    -0.268 OA
ATOM     11  N   LIG    1       -2.865   0.219  -1.516  0.00  0.00    -0.306 N 
ATOM     12  H   LIG    1       -3.451  -0.579  -1.866  0.00  0.00    +0.149 HD
BRANCH  11  13
ATOM     13  C   LIG    1       -3.471   1.552  -1.664  0.00  0.00    +0.140 C 
BRANCH  13  14
ATOM     14  C   LIG    1       -4.076   2.002  -0.398  0.00  0.00    -0.030 A 
ATOM     15  C   LIG    1       -3.806   1.350   0.777  0.00  0.00    +0.008 A 
ATOM     16  C   LIG    1       -4.385   1.802   1.967  0.00  0.00    +0.038 A 
ATOM     17  C   LIG    1       -5.231   2.900   1.992  0.00  0.00    +0.123 A 
ATOM     18  F   LIG    1       -5.784   3.323   3.154  0.00  0.00    -0.205 F 
ATOM     19  C   LIG    1       -5.481   3.534   0.798  0.00  0.00    +0.038 A 
ATOM     20  C   LIG    1       -4.911   3.090  -0.382  0.00  0.00    +0.008 A 
ENDBRANCH  13  14
ENDBRANCH  11  13
ENDBRANCH   8   9
BRANCH   2  21
ATOM     21  C   LIG    1        2.463  -2.052   0.745  0.00  0.00    +0.087 C 
ATOM     22  C   LIG    1        2.544  -2.590   2.162  0.00  0.00    +0.039 C 
ATOM     23  C   LIG    1        3.528  -2.725  -0.095  0.00  0.00    +0.039 C 
BRANCH  21  24
ATOM     24  N   LIG    1        2.816  -0.666   0.842  0.00  0.00    -0.295 N 
ATOM     25  H   LIG    1        3.057  -0.244   1.774  0.00  0.00    +0.150 HD
ATOM     26  C   LIG    1        2.846   0.170  -0.290  0.00  0.00    +0.301 C 
ATOM     27  O   LIG    1        2.556  -0.229  -1.442  0.00  0.00    -0.265 OA
BRANCH  26  28
ATOM     28  C   LIG    1        3.243   1.579  -0.091  0.00  0.00    +0.304 A 
ATOM     29  N   LIG    1        3.547   2.073   1.129  0.00  0.00    -0.102 NA
ATOM     30  N   LIG    1        3.866   3.339   1.016  0.00  0.00    -0.112 NA
ATOM     31  C   LIG    1        3.762   3.649  -0.283  0.00  0.00    +0.215 A 
ATOM     32  C   LIG    1        4.050   5.004  -0.796  0.00  0.00    +0.111 C 
ATOM     33  O   LIG    1        3.381   2.557  -0.936  0.00  0.00    -0.417 OA
ENDBRANCH  26  28
ENDBRANCH  21  24
ENDBRANCH   2  21
BRANCH   6  34
ATOM     34  O   LIG    1       -2.621  -2.536  -1.604  0.00  0.00    -0.501 OA
ATOM     35  H   LIG    1       -3.032  -3.406  -1.839  0.00  0.00    +0.292 HD
ENDBRANCH   6  34
TORSDOF 7
