REMARK  Name = molecules/CZGUSIXMZVURDU-JZXHSEFVSA-N.pdb
REMARK                            x       y       z     vdW  Elec       q    Type
REMARK                         _______ _______ _______ _____ _____    ______ ____
ROOT
ATOM      1  CA  TYR A  4       -1.471   1.013   1.313  0.00  0.00    +0.163 C 
ENDROOT
BRANCH   1   3
ATOM      2  C   VAL A  3       -3.581  -0.293   1.276  0.00  0.00    +0.234 C 
ATOM      3  N   TYR A  4       -2.319  -0.026   1.877  0.00  0.00    -0.302 N 
ATOM      4  H   TYR A  4       -1.985  -0.559   2.712  0.00  0.00    +0.150 HD
ATOM      5  O   VAL A  3       -3.878   0.427   0.260  0.00  0.00    -0.274 OA
BRANCH   2   6
ATOM      6  CA  VAL A  3       -4.523  -1.323   1.757  0.00  0.00    +0.161 C 
BRANCH   6   9
ATOM      7  C   ARG A  2       -7.003  -1.423   1.227  0.00  0.00    +0.234 C 
ATOM      8  O   ARG A  2       -7.280  -1.632   2.437  0.00  0.00    -0.274 OA
ATOM      9  N   VAL A  3       -5.657  -1.282   0.866  0.00  0.00    -0.302 N 
ATOM     10  H   VAL A  3       -5.445  -1.132  -0.144  0.00  0.00    +0.150 HD
BRANCH   7  11
ATOM     11  CA  ARG A  2       -8.125  -1.335   0.234  0.00  0.00    +0.159 C 
BRANCH  11  13
ATOM     12  C   ASP A  1       -9.685  -3.269  -0.065  0.00  0.00    +0.231 C 
ATOM     13  N   ARG A  2       -9.282  -2.095   0.619  0.00  0.00    -0.303 N 
ATOM     14  H   ARG A  2       -9.880  -1.807   1.430  0.00  0.00    +0.149 HD
ATOM     15  O   ASP A  1       -8.999  -3.640  -1.035  0.00  0.00    -0.274 OA
BRANCH  12  16
ATOM     16  CA  ASP A  1      -10.867  -4.026   0.353  0.00  0.00    +0.148 C 
BRANCH  16  17
ATOM     17  N   ASP A  1      -11.479  -3.564   1.561  0.00  0.00    -0.320 NA
ATOM     18  H1  ASP A  1      -10.880  -3.810   2.373  0.00  0.00    +0.119 HD
ATOM     19  H2  ASP A  1      -12.450  -3.824   1.718  0.00  0.00    +0.119 HD
ENDBRANCH  16  17
BRANCH  16  20
ATOM     20  CB  ASP A  1      -11.857  -4.122  -0.819  0.00  0.00    +0.148 C 
BRANCH  20  21
ATOM     21  CG  ASP A  1      -12.912  -5.068  -0.496  0.00  0.00    +0.307 C 
ATOM     22  OD2 ASP A  1      -12.956  -5.733   0.543  0.00  0.00    -0.251 OA
BRANCH  21  23
ATOM     23  OD1 ASP A  1      -13.938  -5.214  -1.450  0.00  0.00    -0.481 OA
ATOM     24  HD1 ASP A  1      -14.772  -4.641  -1.452  0.00  0.00    +0.295 HD
ENDBRANCH  21  23
ENDBRANCH  20  21
ENDBRANCH  16  20
ENDBRANCH  12  16
ENDBRANCH  11  13
BRANCH  11  25
ATOM     25  CB  ARG A  2       -8.342   0.125  -0.018  0.00  0.00    +0.035 C 
BRANCH  25  26
ATOM     26  CG  ARG A  2       -9.260   0.552  -1.081  0.00  0.00    +0.039 C 
BRANCH  26  27
ATOM     27  CD  ARG A  2      -10.688   0.152  -0.952  0.00  0.00    +0.196 C 
BRANCH  27  28
ATOM     28  NE  ARG A  2      -11.458   0.699  -2.062  0.00  0.00    -0.276 N 
ATOM     29  HE  ARG A  2      -11.866   0.092  -2.792  0.00  0.00    +0.258 HD
BRANCH  28  30
ATOM     30  CZ  ARG A  2      -11.664   2.108  -2.162  0.00  0.00    +0.376 C 
ATOM     31  NH1 ARG A  2      -11.639   2.722  -3.436  0.00  0.00    -0.289 N 
ATOM     32 HH11 ARG A  2      -10.756   3.029  -3.853  0.00  0.00    +0.255 HD
ATOM     33 HH12 ARG A  2      -12.556   2.848  -3.912  0.00  0.00    +0.255 HD
BRANCH  30  34
ATOM     34  NH2 ARG A  2      -11.871   2.833  -1.113  0.00  0.00    -0.130 NA
ATOM     35  HH2 ARG A  2      -11.886   2.391  -0.191  0.00  0.00    +0.306 HD
ENDBRANCH  30  34
ENDBRANCH  28  30
ENDBRANCH  27  28
ENDBRANCH  26  27
ENDBRANCH  25  26
ENDBRANCH  11  25
ENDBRANCH   7  11
ENDBRANCH   6   9
BRANCH   6  36
ATOM     36  CB  VAL A  3       -3.798  -2.660   1.743  0.00  0.00    +0.012 C 
ATOM     37  CG2 VAL A  3       -4.681  -3.751   2.345  0.00  0.00    +0.009 C 
ATOM     38  CG1 VAL A  3       -3.251  -3.022   0.402  0.00  0.00    +0.009 C 
ENDBRANCH   6  36
ENDBRANCH   2   6
ENDBRANCH   1   3
BRANCH   1  39
ATOM     39  C   TYR A  4       -0.299   0.387   0.589  0.00  0.00    +0.234 C 
ATOM     40  O   TYR A  4       -0.163  -0.833   0.683  0.00  0.00    -0.274 OA
ATOM     41  N   ILE A  5        0.531   1.254  -0.129  0.00  0.00    -0.302 N 
ATOM     42  H   ILE A  5        0.359   2.262  -0.169  0.00  0.00    +0.150 HD
BRANCH  41  43
ATOM     43  CA  ILE A  5        1.716   0.754  -0.866  0.00  0.00    +0.162 C 
BRANCH  43  44
ATOM     44  C   ILE A  5        2.806   1.709  -0.704  0.00  0.00    +0.234 C 
ATOM     45  N   HIS A  6        4.161   1.317  -0.397  0.00  0.00    -0.302 N 
ATOM     46  H   HIS A  6        4.429   0.328  -0.269  0.00  0.00    +0.150 HD
ATOM     47  O   ILE A  5        2.610   2.953  -0.823  0.00  0.00    -0.274 OA
BRANCH  45  48
ATOM     48  CA  HIS A  6        5.131   2.431  -0.278  0.00  0.00    +0.165 C 
BRANCH  48  49
ATOM     49  C   HIS A  6        6.436   1.971  -0.731  0.00  0.00    +0.237 C 
ATOM     50  N   PRO A  7        7.710   1.976  -0.133  0.00  0.00    -0.288 N 
ATOM     51  CD  PRO A  7        8.273   2.288   1.146  0.00  0.00    +0.109 C 
ATOM     52  CG  PRO A  7        9.495   3.120   0.830  0.00  0.00    +0.021 C 
ATOM     53  CB  PRO A  7        9.916   2.673  -0.531  0.00  0.00    +0.033 C 
ATOM     54  CA  PRO A  7        8.932   1.592  -0.911  0.00  0.00    +0.162 C 
ATOM     55  O   HIS A  6        6.404   1.436  -1.944  0.00  0.00    -0.274 OA
BRANCH  54  56
ATOM     56  C   PRO A  7        9.384   0.240  -0.611  0.00  0.00    +0.234 C 
ATOM     57  O   PRO A  7        8.798  -0.482   0.265  0.00  0.00    -0.274 OA
ATOM     58  N   PHE A  8       10.499  -0.276  -1.310  0.00  0.00    -0.301 N 
ATOM     59  H   PHE A  8       10.979   0.303  -2.029  0.00  0.00    +0.150 HD
BRANCH  58  60
ATOM     60  CA  PHE A  8       11.024  -1.613  -1.062  0.00  0.00    +0.186 C 
BRANCH  60  61
ATOM     61  C   PHE A  8       12.422  -1.703  -1.435  0.00  0.00    +0.326 C 
ATOM     62  O   PHE A  8       12.997  -0.652  -1.887  0.00  0.00    -0.249 OA
BRANCH  61  63
ATOM     63  OXT PHE A  8       13.211  -2.819  -1.354  0.00  0.00    -0.479 OA
ATOM     64  HXT PHE A  8       14.209  -2.833  -1.415  0.00  0.00    +0.295 HD
ENDBRANCH  61  63
ENDBRANCH  60  61
BRANCH  60  65
ATOM     65  CB  PHE A  8       10.205  -2.596  -1.898  0.00  0.00    +0.069 C 
BRANCH  65  66
ATOM     66  CG  PHE A  8       10.655  -3.988  -1.729  0.00  0.00    -0.045 A 
ATOM     67  CD2 PHE A  8       10.171  -4.733  -0.653  0.00  0.00    +0.004 A 
ATOM     68  CE2 PHE A  8       10.590  -6.037  -0.513  0.00  0.00    +0.000 A 
ATOM     69  CZ  PHE A  8       11.462  -6.630  -1.391  0.00  0.00    +0.000 A 
ATOM     70  CE1 PHE A  8       11.947  -5.900  -2.463  0.00  0.00    +0.000 A 
ATOM     71  CD1 PHE A  8       11.523  -4.587  -2.599  0.00  0.00    +0.004 A 
ENDBRANCH  65  66
ENDBRANCH  60  65
ENDBRANCH  58  60
ENDBRANCH  54  56
ENDBRANCH  48  49
BRANCH  48  72
ATOM     72  CB  HIS A  6        5.040   3.185   0.996  0.00  0.00    +0.088 C 
BRANCH  72  73
ATOM     73  CG  HIS A  6        5.939   4.385   0.874  0.00  0.00    +0.061 A 
ATOM     74  CD2 HIS A  6        6.234   5.345   1.809  0.00  0.00    +0.107 A 
ATOM     75  NE2 HIS A  6        7.026   6.237   1.208  0.00  0.00    -0.351 N 
ATOM     76  HE2 HIS A  6        7.429   7.107   1.662  0.00  0.00    +0.166 HD
ATOM     77  CE1 HIS A  6        7.230   5.864  -0.063  0.00  0.00    +0.196 A 
ATOM     78  ND1 HIS A  6        6.560   4.728  -0.255  0.00  0.00    -0.241 NA
ENDBRANCH  72  73
ENDBRANCH  48  72
ENDBRANCH  45  48
ENDBRANCH  43  44
BRANCH  43  79
ATOM     79  CB  ILE A  5        1.294   0.478  -2.293  0.00  0.00    +0.015 C 
ATOM     80  CG2 ILE A  5        0.358   1.479  -2.882  0.00  0.00    +0.010 C 
BRANCH  79  81
ATOM     81  CG1 ILE A  5        2.384  -0.014  -3.163  0.00  0.00    +0.002 C 
ATOM     82  CD1 ILE A  5        3.324   1.002  -3.705  0.00  0.00    +0.004 C 
ENDBRANCH  79  81
ENDBRANCH  43  79
ENDBRANCH  41  43
ENDBRANCH   1  39
BRANCH   1  83
ATOM     83  CB  TYR A  4       -0.995   1.992   2.334  0.00  0.00    +0.067 C 
BRANCH  83  84
ATOM     84  CG  TYR A  4       -2.065   2.721   3.047  0.00  0.00    -0.045 A 
ATOM     85  CD2 TYR A  4       -2.581   2.263   4.247  0.00  0.00    +0.007 A 
ATOM     86  CE2 TYR A  4       -3.575   2.990   4.881  0.00  0.00    +0.045 A 
ATOM     87  CZ  TYR A  4       -4.068   4.170   4.348  0.00  0.00    +0.117 A 
ATOM     88  CE1 TYR A  4       -3.563   4.635   3.160  0.00  0.00    +0.045 A 
ATOM     89  CD1 TYR A  4       -2.558   3.883   2.532  0.00  0.00    +0.007 A 
BRANCH  87  90
ATOM     90  OH  TYR A  4       -5.063   4.866   5.020  0.00  0.00    -0.507 OA
ATOM     91  HH  TYR A  4       -5.427   5.710   4.643  0.00  0.00    +0.292 HD
ENDBRANCH  87  90
ENDBRANCH  83  84
ENDBRANCH   1  83
TORSDOF 35
