REMARK  Name = molecules/CZKPOZZJODAYPZ-LROMGURASA-N.pdb
REMARK                            x       y       z     vdW  Elec       q    Type
REMARK                         _______ _______ _______ _____ _____    ______ ____
ROOT
ATOM      1  C   LIG    1        3.460  -2.600  -0.996  0.00  0.00    +0.214 C 
ATOM      2  N   LIG    1        3.995  -2.047   0.152  0.00  0.00    -0.304 N 
ATOM      3  H   LIG    1        3.387  -2.059   1.040  0.00  0.00    +0.149 HD
ATOM      4  C   LIG    1        5.321  -1.428   0.316  0.00  0.00    +0.159 C 
ATOM      5  C   LIG    1        5.204  -0.366   1.327  0.00  0.00    +0.234 C 
ATOM      6  O   LIG    1        5.848  -0.543   2.426  0.00  0.00    -0.274 OA
ATOM      7  N   LIG    1        4.456   0.818   1.207  0.00  0.00    -0.305 N 
ATOM      8  H   LIG    1        4.875   1.681   1.669  0.00  0.00    +0.149 HD
ATOM      9  C   LIG    1        3.198   0.922   0.517  0.00  0.00    +0.200 C 
ATOM     10  C   LIG    1        2.561   2.248   0.823  0.00  0.00    +0.231 C 
ATOM     11  O   LIG    1        3.298   3.165   1.269  0.00  0.00    -0.274 OA
ATOM     12  N   LIG    1        1.196   2.518   0.639  0.00  0.00    -0.302 N 
ATOM     13  C   LIG    1        0.108   1.584   0.992  0.00  0.00    +0.169 C 
ATOM     14  C   LIG    1       -0.614   1.158  -0.216  0.00  0.00    +0.234 C 
ATOM     15  N   LIG    1       -1.874   1.477  -0.692  0.00  0.00    -0.302 N 
ATOM     16  C   LIG    1       -3.198   1.222  -0.113  0.00  0.00    +0.163 C 
ATOM     17  C   LIG    1       -4.048   0.490  -1.060  0.00  0.00    +0.237 C 
ATOM     18  N   LIG    1       -4.926  -0.573  -0.801  0.00  0.00    -0.288 N 
ATOM     19  C   LIG    1       -4.747  -1.708   0.063  0.00  0.00    +0.162 C 
ATOM     20  C   LIG    1       -3.498  -1.852   0.776  0.00  0.00    +0.234 C 
ATOM     21  O   LIG    1       -3.562  -1.664   2.062  0.00  0.00    -0.274 OA
ATOM     22  N   LIG    1       -2.217  -2.163   0.311  0.00  0.00    -0.302 N 
ATOM     23  H   LIG    1       -1.432  -1.493   0.590  0.00  0.00    +0.150 HD
ATOM     24  C   LIG    1       -1.798  -3.282  -0.505  0.00  0.00    +0.169 C 
ATOM     25  C   LIG    1       -0.285  -3.441  -0.467  0.00  0.00    +0.112 C 
ATOM     26  S   LIG    1        0.271  -3.780  -2.155  0.00  0.00    -0.091 S 
ATOM     27  S   LIG    1        1.685  -5.326  -2.290  0.00  0.00    -0.093 S 
ATOM     28  C   LIG    1        3.100  -4.997  -1.246  0.00  0.00    +0.090 C 
ATOM     29  C   LIG    1       -5.037  -2.825  -0.928  0.00  0.00    +0.033 C 
ATOM     30  C   LIG    1       -6.366  -2.284  -1.485  0.00  0.00    +0.021 C 
ATOM     31  C   LIG    1       -6.278  -0.808  -1.369  0.00  0.00    +0.109 C 
ATOM     32  O   LIG    1       -3.958   0.892  -2.277  0.00  0.00    -0.274 OA
ATOM     33  H   LIG    1       -1.951   1.987  -1.636  0.00  0.00    +0.150 HD
ATOM     34  O   LIG    1        0.084   0.340  -0.939  0.00  0.00    -0.274 OA
ATOM     35  H   LIG    1        0.879   3.428   0.229  0.00  0.00    +0.150 HD
ATOM     36  O   LIG    1        2.422  -2.054  -1.535  0.00  0.00    -0.276 OA
ATOM     37  C   LIG    1        3.938  -3.807  -1.738  0.00  0.00    +0.107 C 
ENDROOT
BRANCH  24  38
ATOM     38  C   LIG    1       -2.339  -4.589  -0.055  0.00  0.00    +0.232 C 
ATOM     39  O   LIG    1       -3.068  -4.675   0.963  0.00  0.00    -0.274 OA
ATOM     40  N   LIG    1       -2.002  -5.726  -0.814  0.00  0.00    -0.328 N 
ATOM     41  H   LIG    1       -1.008  -6.017  -0.885  0.00  0.00    +0.145 HD
ATOM     42  H   LIG    1       -2.712  -6.298  -1.317  0.00  0.00    +0.145 HD
ENDBRANCH  24  38
BRANCH  13  43
ATOM     43  C   LIG    1       -0.699   2.257   2.049  0.00  0.00    +0.152 C 
BRANCH  43  44
ATOM     44  C   LIG    1        0.198   2.515   3.200  0.00  0.00    +0.307 C 
ATOM     45  O   LIG    1        0.443   1.594   4.004  0.00  0.00    -0.251 OA
BRANCH  44  46
ATOM     46  O   LIG    1        0.760   3.753   3.392  0.00  0.00    -0.481 OA
ATOM     47  H   LIG    1        1.533   3.974   3.974  0.00  0.00    +0.295 HD
ENDBRANCH  44  46
ENDBRANCH  43  44
ENDBRANCH  13  43
BRANCH  16  48
ATOM     48  C   LIG    1       -3.855   2.530   0.257  0.00  0.00    +0.069 C 
BRANCH  48  49
ATOM     49  C   LIG    1       -5.210   2.407   0.835  0.00  0.00    -0.020 A 
ATOM     50  C   LIG    1       -5.495   2.265   2.206  0.00  0.00    +0.087 A 
ATOM     51  N   LIG    1       -6.817   2.127   2.385  0.00  0.00    -0.360 N 
ATOM     52  H   LIG    1       -7.274   2.004   3.322  0.00  0.00    +0.165 HD
ATOM     53  C   LIG    1       -7.434   2.171   1.186  0.00  0.00    +0.047 A 
ATOM     54  C   LIG    1       -8.743   2.102   0.772  0.00  0.00    +0.026 A 
ATOM     55  C   LIG    1       -9.060   2.206  -0.565  0.00  0.00    +0.002 A 
ATOM     56  C   LIG    1       -8.080   2.381  -1.526  0.00  0.00    +0.001 A 
ATOM     57  C   LIG    1       -6.778   2.449  -1.117  0.00  0.00    +0.010 A 
ATOM     58  C   LIG    1       -6.453   2.343   0.233  0.00  0.00    +0.003 A 
ENDBRANCH  48  49
ENDBRANCH  16  48
BRANCH   4  59
ATOM     59  C   LIG    1        5.973  -1.052  -0.949  0.00  0.00    +0.032 C 
BRANCH  59  60
ATOM     60  C   LIG    1        7.305  -0.419  -0.916  0.00  0.00    +0.005 C 
BRANCH  60  61
ATOM     61  C   LIG    1        7.424   0.934  -0.293  0.00  0.00    +0.037 C 
BRANCH  61  62
ATOM     62  C   LIG    1        6.617   1.992  -1.022  0.00  0.00    +0.196 C 
BRANCH  62  63
ATOM     63  N   LIG    1        6.793   3.243  -0.318  0.00  0.00    -0.276 N 
ATOM     64  H   LIG    1        5.993   3.652   0.182  0.00  0.00    +0.258 HD
BRANCH  63  65
ATOM     65  C   LIG    1        8.037   3.901  -0.308  0.00  0.00    +0.376 C 
ATOM     66  N   LIG    1        8.906   3.840  -1.435  0.00  0.00    -0.289 N 
ATOM     67  H   LIG    1        9.795   3.306  -1.401  0.00  0.00    +0.255 HD
ATOM     68  H   LIG    1        8.637   4.339  -2.300  0.00  0.00    +0.255 HD
BRANCH  65  69
ATOM     69  N   LIG    1        8.413   4.575   0.735  0.00  0.00    -0.130 NA
ATOM     70  H   LIG    1        9.348   5.069   0.745  0.00  0.00    +0.306 HD
ENDBRANCH  65  69
ENDBRANCH  63  65
ENDBRANCH  62  63
ENDBRANCH  61  62
ENDBRANCH  60  61
ENDBRANCH  59  60
ENDBRANCH   4  59
TORSDOF 13
