REMARK  Name = molecules/CZMRCDWAGMRECN-UGDNZRGBSA-N.pdb
REMARK                            x       y       z     vdW  Elec       q    Type
REMARK                         _______ _______ _______ _____ _____    ______ ____
ROOT
ATOM      1  O   LIG    1        0.134  -0.039  -0.195  0.00  0.00    -0.313 OA
ENDROOT
BRANCH   1   2
ATOM      2  C   LIG    1       -1.002   0.464   0.258  0.00  0.00    +0.285 C 
ATOM      3  C   LIG    1       -1.865  -0.396   1.129  0.00  0.00    +0.201 C 
ATOM      4  C   LIG    1       -3.306   0.098   1.076  0.00  0.00    +0.179 C 
ATOM      5  C   LIG    1       -3.877  -0.085  -0.328  0.00  0.00    +0.177 C 
ATOM      6  C   LIG    1       -2.726   0.205  -1.258  0.00  0.00    +0.178 C 
ATOM      7  O   LIG    1       -1.811   1.087  -0.722  0.00  0.00    -0.340 OA
BRANCH   4   8
ATOM      8  O   LIG    1       -3.402   1.436   1.415  0.00  0.00    -0.386 OA
ATOM      9  H   LIG    1       -4.267   1.602   1.867  0.00  0.00    +0.210 HD
ENDBRANCH   4   8
BRANCH   5  10
ATOM     10  O   LIG    1       -4.281  -1.400  -0.552  0.00  0.00    -0.386 OA
ATOM     11  H   LIG    1       -4.906  -1.667   0.157  0.00  0.00    +0.210 HD
ENDBRANCH   5  10
BRANCH   3  12
ATOM     12  O   LIG    1       -1.898  -1.725   0.712  0.00  0.00    -0.384 OA
ATOM     13  H   LIG    1       -1.928  -2.306   1.515  0.00  0.00    +0.210 HD
ENDBRANCH   3  12
BRANCH   6  14
ATOM     14  C   LIG    1       -3.282   0.690  -2.574  0.00  0.00    +0.190 C 
BRANCH  14  15
ATOM     15  O   LIG    1       -2.209   0.838  -3.482  0.00  0.00    -0.392 OA
ATOM     16  H   LIG    1       -1.786  -0.062  -3.528  0.00  0.00    +0.210 HD
ENDBRANCH  14  15
ENDBRANCH   6  14
ENDBRANCH   1   2
BRANCH   1  17
ATOM     17  C   LIG    1        1.363   0.375   0.061  0.00  0.00    +0.225 C 
ATOM     18  C   LIG    1        1.921   0.323   1.414  0.00  0.00    +0.207 C 
ATOM     19  C   LIG    1        3.171  -0.572   1.349  0.00  0.00    +0.179 C 
ATOM     20  C   LIG    1        3.440  -0.474  -0.142  0.00  0.00    +0.178 C 
ATOM     21  O   LIG    1        2.184  -0.502  -0.667  0.00  0.00    -0.336 OA
BRANCH  18  22
ATOM     22  O   LIG    1        1.152  -0.175   2.415  0.00  0.00    -0.384 OA
ATOM     23  H   LIG    1        1.234  -1.175   2.415  0.00  0.00    +0.210 HD
ENDBRANCH  18  22
BRANCH  19  24
ATOM     24  O   LIG    1        4.234  -0.033   2.025  0.00  0.00    -0.386 OA
ATOM     25  H   LIG    1        5.111  -0.185   1.623  0.00  0.00    +0.210 HD
ENDBRANCH  19  24
BRANCH  20  26
ATOM     26  C   LIG    1        4.160  -1.735  -0.618  0.00  0.00    +0.190 C 
BRANCH  26  27
ATOM     27  O   LIG    1        4.182  -1.688  -2.011  0.00  0.00    -0.392 OA
ATOM     28  H   LIG    1        4.875  -1.045  -2.326  0.00  0.00    +0.210 HD
ENDBRANCH  26  27
ENDBRANCH  20  26
BRANCH  17  29
ATOM     29  C   LIG    1        1.714   1.746  -0.541  0.00  0.00    +0.223 C 
BRANCH  29  30
ATOM     30  O   LIG    1        1.597   1.723  -1.930  0.00  0.00    -0.390 OA
ATOM     31  H   LIG    1        1.149   2.520  -2.288  0.00  0.00    +0.210 HD
ENDBRANCH  29  30
ENDBRANCH  17  29
ENDBRANCH   1  17
TORSDOF 13
