REMARK  Name = molecules/DACOQFZGGLCXMA-UHFFFAOYSA-N.pdb
REMARK                            x       y       z     vdW  Elec       q    Type
REMARK                         _______ _______ _______ _____ _____    ______ ____
ROOT
ATOM      1  C   LIG    1        0.519  -0.566  -0.387  0.00  0.00    +0.148 C 
ATOM      2  C   LIG    1        0.720   0.646   0.478  0.00  0.00    +0.244 C 
ATOM      3  O   LIG    1        1.823   0.824   1.099  0.00  0.00    -0.274 OA
ATOM      4  N   LIG    1       -0.338   1.581   0.587  0.00  0.00    -0.200 N 
ATOM      5  C   LIG    1       -1.670   1.114   0.418  0.00  0.00    +0.321 C 
ATOM      6  O   LIG    1       -2.630   1.905   0.508  0.00  0.00    -0.251 OA
ATOM      7  N   LIG    1       -1.916  -0.276   0.144  0.00  0.00    -0.200 N 
ATOM      8  C   LIG    1       -0.803  -1.148   0.048  0.00  0.00    +0.244 C 
ATOM      9  O   LIG    1       -0.910  -2.363   0.316  0.00  0.00    -0.274 OA
ENDROOT
BRANCH   1  10
ATOM     10  C   LIG    1        1.599  -1.508  -0.061  0.00  0.00    -0.024 A 
ATOM     11  C   LIG    1        1.723  -1.931   1.277  0.00  0.00    +0.005 A 
ATOM     12  C   LIG    1        2.723  -2.788   1.674  0.00  0.00    +0.000 A 
ATOM     13  C   LIG    1        3.642  -3.261   0.762  0.00  0.00    +0.000 A 
ATOM     14  C   LIG    1        3.542  -2.864  -0.549  0.00  0.00    +0.000 A 
ATOM     15  C   LIG    1        2.513  -1.986  -0.946  0.00  0.00    +0.005 A 
ENDBRANCH   1  10
BRANCH   1  16
ATOM     16  C   LIG    1        0.468  -0.113  -1.784  0.00  0.00    +0.027 C 
ATOM     17  C   LIG    1        1.693   0.542  -2.336  0.00  0.00    +0.006 C 
ENDBRANCH   1  16
BRANCH   4  18
ATOM     18  C   LIG    1       -0.024   2.970   0.864  0.00  0.00    +0.279 C 
BRANCH  18  19
ATOM     19  O   LIG    1        0.165   3.702  -0.301  0.00  0.00    -0.364 OA
ATOM     20  C   LIG    1        0.459   5.015   0.092  0.00  0.00    +0.196 C 
ENDBRANCH  18  19
ENDBRANCH   4  18
BRANCH   7  21
ATOM     21  C   LIG    1       -3.259  -0.775  -0.029  0.00  0.00    +0.279 C 
BRANCH  21  22
ATOM     22  O   LIG    1       -3.786  -1.181   1.193  0.00  0.00    -0.364 OA
ATOM     23  C   LIG    1       -5.085  -1.659   0.992  0.00  0.00    +0.196 C 
ENDBRANCH  21  22
ENDBRANCH   7  21
TORSDOF 6
