REMARK  Name = molecules/DAFOCGYVTAOKAJ-VIFPVBQESA-N.pdb
REMARK                            x       y       z     vdW  Elec       q    Type
REMARK                         _______ _______ _______ _____ _____    ______ ____
ROOT
ATOM      1  C   LIG    1       -0.817   0.277  -0.586  0.00  0.00    +0.043 C 
ENDROOT
BRANCH   1   2
ATOM      2  C   LIG    1        0.604   0.019  -0.263  0.00  0.00    -0.043 A 
ATOM      3  C   LIG    1        1.188   0.296   0.953  0.00  0.00    +0.004 A 
ATOM      4  C   LIG    1        2.530   0.044   1.186  0.00  0.00    +0.000 A 
ATOM      5  C   LIG    1        3.335  -0.496   0.205  0.00  0.00    +0.000 A 
ATOM      6  C   LIG    1        2.770  -0.779  -1.015  0.00  0.00    +0.000 A 
ATOM      7  C   LIG    1        1.432  -0.520  -1.224  0.00  0.00    +0.004 A 
ENDBRANCH   1   2
BRANCH   1   8
ATOM      8  C   LIG    1       -1.412   1.444   0.126  0.00  0.00    +0.086 C 
BRANCH   8   9
ATOM      9  N   LIG    1       -0.607   2.644   0.011  0.00  0.00    -0.329 NA
ATOM     10  H   LIG    1       -1.038   3.393   0.598  0.00  0.00    +0.118 HD
ATOM     11  H   LIG    1       -0.410   2.915  -0.959  0.00  0.00    +0.118 HD
ENDBRANCH   8   9
ENDBRANCH   1   8
BRANCH   1  12
ATOM     12  C   LIG    1       -1.685  -0.933  -0.437  0.00  0.00    +0.129 C 
BRANCH  12  13
ATOM     13  C   LIG    1       -1.928  -1.405   0.927  0.00  0.00    +0.305 C 
ATOM     14  O   LIG    1       -1.495  -0.909   1.983  0.00  0.00    -0.251 OA
BRANCH  13  15
ATOM     15  O   LIG    1       -2.735  -2.536   1.057  0.00  0.00    -0.481 OA
ATOM     16  H   LIG    1       -3.525  -2.660   0.436  0.00  0.00    +0.295 HD
ENDBRANCH  13  15
ENDBRANCH  12  13
ENDBRANCH   1  12
TORSDOF 6
