REMARK  Name = molecules/DASYMCLQENWCJG-XUKDPADISA-N.pdb
REMARK                            x       y       z     vdW  Elec       q    Type
REMARK                         _______ _______ _______ _____ _____    ______ ____
ROOT
ATOM      1  C   LIG    1        0.810  -0.206  -1.082  0.00  0.00    +0.122 C 
ATOM      2  C   LIG    1        0.601   1.104  -0.928  0.00  0.00    -0.034 C 
ATOM      3  C   LIG    1        1.681   2.051  -0.658  0.00  0.00    +0.042 C 
ATOM      4  C   LIG    1       -0.787   1.614  -1.015  0.00  0.00    +0.103 C 
ATOM      5  S   LIG    1       -1.756   0.839  -2.329  0.00  0.00    -0.131 S 
ATOM      6  C   LIG    1       -1.204  -0.848  -2.497  0.00  0.00    +0.169 C 
ATOM      7  C   LIG    1       -2.015  -1.935  -1.927  0.00  0.00    +0.191 C 
ATOM      8  C   LIG    1       -0.933  -2.283  -0.979  0.00  0.00    +0.244 C 
ATOM      9  O   LIG    1       -0.745  -3.238  -0.196  0.00  0.00    -0.273 OA
ATOM     10  N   LIG    1       -0.278  -1.092  -1.379  0.00  0.00    -0.249 N 
ENDROOT
BRANCH   7  11
ATOM     11  N   LIG    1       -3.296  -1.566  -1.331  0.00  0.00    -0.296 N 
ATOM     12  H   LIG    1       -3.318  -0.648  -0.830  0.00  0.00    +0.150 HD
ATOM     13  C   LIG    1       -4.424  -2.365  -1.347  0.00  0.00    +0.268 C 
ATOM     14  O   LIG    1       -4.241  -3.520  -1.911  0.00  0.00    -0.268 OA
BRANCH  13  15
ATOM     15  C   LIG    1       -5.712  -2.112  -0.861  0.00  0.00    +0.190 C 
ATOM     16  N   LIG    1       -6.582  -3.108  -0.898  0.00  0.00    -0.078 NA
BRANCH  15  17
ATOM     17  C   LIG    1       -6.202  -0.821  -0.294  0.00  0.00    +0.107 A 
ATOM     18  N   LIG    1       -7.263  -0.817   0.476  0.00  0.00    -0.223 NA
ATOM     19  C   LIG    1       -7.770   0.305   0.923  0.00  0.00    +0.156 A 
ATOM     20  S   LIG    1       -6.731   1.477   0.251  0.00  0.00    -0.060 S 
ATOM     21  C   LIG    1       -5.672   0.405  -0.596  0.00  0.00    +0.078 A 
BRANCH  19  22
ATOM     22  N   LIG    1       -8.911   0.523   1.773  0.00  0.00    -0.338 N 
ATOM     23  H   LIG    1       -9.009   1.431   2.219  0.00  0.00    +0.144 HD
ATOM     24  H   LIG    1       -9.579  -0.247   1.893  0.00  0.00    +0.144 HD
ENDBRANCH  19  22
ENDBRANCH  15  17
BRANCH  16  25
ATOM     25  O   LIG    1       -6.276  -4.357  -1.383  0.00  0.00    -0.396 OA
ATOM     26  C   LIG    1       -5.738  -5.293  -0.450  0.00  0.00    +0.313 C 
ENDBRANCH  16  25
ENDBRANCH  13  15
ENDBRANCH   7  11
BRANCH   1  27
ATOM     27  C   LIG    1        2.159  -0.763  -0.980  0.00  0.00    +0.356 C 
ATOM     28  O   LIG    1        2.450  -1.974  -1.146  0.00  0.00    -0.243 OA
BRANCH  27  29
ATOM     29  O   LIG    1        3.207   0.085  -0.680  0.00  0.00    -0.423 OA
BRANCH  29  30
ATOM     30  C   LIG    1        4.540  -0.429  -0.591  0.00  0.00    +0.473 C 
BRANCH  30  31
ATOM     31  O   LIG    1        5.462   0.565  -0.255  0.00  0.00    -0.427 OA
BRANCH  31  32
ATOM     32  C   LIG    1        5.421   1.282   0.935  0.00  0.00    +0.315 C 
ATOM     33  O   LIG    1        4.501   1.020   1.758  0.00  0.00    -0.250 OA
BRANCH  32  34
ATOM     34  C   LIG    1        6.397   2.326   1.279  0.00  0.00    +0.059 C 
ATOM     35  C   LIG    1        6.363   2.665   2.764  0.00  0.00    +0.022 C 
ATOM     36  C   LIG    1        7.800   1.807   0.997  0.00  0.00    +0.022 C 
ATOM     37  C   LIG    1        6.224   3.617   0.526  0.00  0.00    +0.022 C 
ENDBRANCH  32  34
ENDBRANCH  31  32
ENDBRANCH  30  31
ENDBRANCH  29  30
ENDBRANCH  27  29
ENDBRANCH   1  27
TORSDOF 11
