REMARK  Name = molecules/DAXBISKSIDBYEU-PWNYCUMCSA-N.pdb
REMARK                            x       y       z     vdW  Elec       q    Type
REMARK                         _______ _______ _______ _____ _____    ______ ____
ROOT
ATOM      1  C   UNK    1       -0.766   0.110   0.060  0.00  0.00    +0.174 C 
ATOM      2  C   UNK    1       -0.783  -1.000   1.120  0.00  0.00    +0.101 C 
ATOM      3  S   UNK    1        0.977  -1.514   0.985  0.00  0.00    -0.129 S 
ATOM      4  C   UNK    1        1.304  -0.713  -0.638  0.00  0.00    +0.223 C 
ATOM      5  N   UNK    1        0.036  -0.275  -1.005  0.00  0.00    -0.283 NA
ATOM      6  H   UNK    1       -0.184  -0.038  -1.951  0.00  0.00    +0.124 HD
ENDROOT
BRANCH   1   7
ATOM      7  C   UNK    1       -2.121   0.452  -0.343  0.00  0.00    +0.323 C 
ATOM      8  O   UNK    1       -2.511   0.400  -1.534  0.00  0.00    -0.249 OA
BRANCH   7   9
ATOM      9  O   UNK    1       -3.049   0.860   0.629  0.00  0.00    -0.480 OA
ATOM     10  H   UNK    1       -3.274   1.849   0.727  0.00  0.00    +0.295 HD
ENDBRANCH   7   9
ENDBRANCH   1   7
BRANCH   4  11
ATOM     11  C   UNK    1        2.218   0.429  -0.431  0.00  0.00    +0.332 C 
ATOM     12  O   UNK    1        1.782   1.594  -0.597  0.00  0.00    -0.248 OA
BRANCH  11  13
ATOM     13  O   UNK    1        3.542   0.212  -0.058  0.00  0.00    -0.479 OA
ATOM     14  H   UNK    1        3.849   0.560   0.849  0.00  0.00    +0.295 HD
ENDBRANCH  11  13
ENDBRANCH   4  11
TORSDOF 4
