REMARK  Name = molecules/DB00336.pdb
REMARK                            x       y       z     vdW  Elec       q    Type
REMARK                         _______ _______ _______ _____ _____    ______ ____
ROOT
ATOM      1  C   LIG    1        0.443   0.240  -0.391  0.00  0.00    +0.176 C 
ATOM      2  N   LIG    1        1.252  -0.603  -0.913  0.00  0.00    -0.183 NA
ENDROOT
BRANCH   2   3
ATOM      3  N   LIG    1        2.587  -0.227  -1.083  0.00  0.00    -0.191 N 
ATOM      4  C   LIG    1        3.314   0.222   0.027  0.00  0.00    +0.317 C 
ATOM      5  O   LIG    1        2.822   0.309   1.193  0.00  0.00    -0.251 OA
ATOM      6  N   LIG    1        4.665   0.603  -0.144  0.00  0.00    -0.312 N 
ATOM      7  H   LIG    1        5.410  -0.117  -0.072  0.00  0.00    +0.147 HD
ATOM      8  H   LIG    1        4.874   1.604  -0.339  0.00  0.00    +0.147 HD
ATOM      9  H   LIG    1        3.043  -0.276  -2.014  0.00  0.00    +0.179 HD
ENDBRANCH   2   3
BRANCH   1  14
ATOM     10  O   LIG    1       -1.888   0.720   0.351  0.00  0.00    -0.433 OA
ATOM     11  C   LIG    1       -3.067   0.137   0.403  0.00  0.00    +0.280 A 
ATOM     12  C   LIG    1       -2.932  -1.140  -0.130  0.00  0.00    +0.076 A 
ATOM     13  C   LIG    1       -1.609  -1.255  -0.490  0.00  0.00    +0.053 A 
ATOM     14  C   LIG    1       -0.970  -0.053  -0.170  0.00  0.00    +0.150 A 
BRANCH  11  15
ATOM     15  N   LIG    1       -4.284   0.679   0.905  0.00  0.00    +0.093 N 
ATOM     16  O   LIG    1       -4.326   1.947   1.412  0.00  0.00    -0.123 OA
ATOM     17  O   LIG    1       -5.305  -0.011   0.877  0.00  0.00    -0.123 OA
ENDBRANCH  11  15
ENDBRANCH   1  14
TORSDOF 3
