REMARK  Name = molecules/DB04786.pdb
REMARK                            x       y       z     vdW  Elec       q    Type
REMARK                         _______ _______ _______ _____ _____    ______ ____
ROOT
ATOM      1  N   LIG    1       -0.783  -2.361  -1.412  0.00  0.00    -0.269 N 
ATOM      2  C   LIG    1       -0.095  -1.447  -0.535  0.00  0.00    +0.308 C 
ATOM      3  N   LIG    1        0.445  -1.899   0.683  0.00  0.00    -0.269 N 
ATOM      4  H   LIG    1        0.328  -2.892   0.958  0.00  0.00    +0.156 HD
ATOM      5  O   LIG    1       -0.026  -0.260  -0.929  0.00  0.00    -0.252 OA
ATOM      6  H   LIG    1       -0.813  -3.344  -1.119  0.00  0.00    +0.156 HD
ENDROOT
BRANCH   1   9
ATOM      7  C   LIG    1       -3.220  -0.575  -3.418  0.00  0.00    +0.039 A 
ATOM      8  C   LIG    1       -2.504  -1.081  -2.369  0.00  0.00    +0.036 A 
ATOM      9  C   LIG    1       -1.379  -1.895  -2.598  0.00  0.00    +0.035 A 
ATOM     10  C   LIG    1       -0.981  -2.190  -3.872  0.00  0.00    +0.023 A 
ATOM     11  C   LIG    1       -1.710  -1.673  -4.932  0.00  0.00    +0.003 A 
ATOM     12  C   LIG    1       -2.840  -0.858  -4.699  0.00  0.00    +0.013 A 
BRANCH   7  15
ATOM     13  N   LIG    1       -4.361   1.195  -2.098  0.00  0.00    -0.281 N 
ATOM     14  H   LIG    1       -3.419   1.400  -1.629  0.00  0.00    +0.155 HD
ATOM     15  C   LIG    1       -4.425   0.210  -3.108  0.00  0.00    +0.248 C 
ATOM     16  O   LIG    1       -5.455  -0.033  -3.738  0.00  0.00    -0.270 OA
BRANCH  13  22
ATOM     17  C   LIG    1       -7.813   1.907  -1.038  0.00  0.00    +0.039 A 
ATOM     18  C   LIG    1       -7.683   3.081  -0.396  0.00  0.00    +0.013 A 
ATOM     19  C   LIG    1       -6.435   3.718  -0.344  0.00  0.00    +0.006 A 
ATOM     20  C   LIG    1       -5.325   3.170  -0.940  0.00  0.00    -0.029 A 
ATOM     21  C   LIG    1       -4.019   3.888  -0.880  0.00  0.00    +0.045 C 
ATOM     22  C   LIG    1       -5.433   1.967  -1.602  0.00  0.00    +0.037 A 
ATOM     23  C   LIG    1       -6.689   1.349  -1.644  0.00  0.00    +0.036 A 
BRANCH  17  26
ATOM     24  N   LIG    1       -9.868   0.853   0.006  0.00  0.00    -0.281 N 
ATOM     25  H   LIG    1       -9.618   1.373   0.811  0.00  0.00    +0.155 HD
ATOM     26  C   LIG    1       -9.032   1.089  -1.121  0.00  0.00    +0.248 C 
ATOM     27  O   LIG    1       -9.285   0.607  -2.231  0.00  0.00    -0.270 OA
BRANCH  24  36
ATOM     28  C   LIG    1      -10.760  -1.089   1.939  0.00  0.00    +0.128 A 
ATOM     29  C   LIG    1      -11.338  -2.047   2.807  0.00  0.00    +0.059 A 
ATOM     30  C   LIG    1      -12.518  -2.675   2.588  0.00  0.00    +0.119 A 
ATOM     31  C   LIG    1      -13.212  -2.381   1.466  0.00  0.00    +0.040 A 
ATOM     32  C   LIG    1      -12.710  -1.459   0.572  0.00  0.00    +0.015 A 
ATOM     33  C   LIG    1      -13.421  -1.252  -0.587  0.00  0.00    +0.125 A 
ATOM     34  C   LIG    1      -12.945  -0.406  -1.539  0.00  0.00    +0.032 A 
ATOM     35  C   LIG    1      -11.750   0.237  -1.324  0.00  0.00    +0.026 A 
ATOM     36  C   LIG    1      -10.984   0.057  -0.152  0.00  0.00    +0.043 A 
ATOM     37  C   LIG    1      -11.473  -0.801   0.803  0.00  0.00    +0.033 A 
BRANCH  33  38
ATOM     38  S   LIG    1      -14.954  -2.095  -0.838  0.00  0.00    +0.110 S 
ATOM     39  O   LIG    1      -15.941  -1.697   0.212  0.00  0.00    -0.142 OA
ATOM     40  O   LIG    1      -14.684  -3.582  -0.844  0.00  0.00    -0.142 OA
BRANCH  38  41
ATOM     41  O   LIG    1      -15.580  -1.627  -2.331  0.00  0.00    -0.250 OA
ATOM     42  H   LIG    1      -15.592  -0.627  -2.327  0.00  0.00    +0.245 HD
ENDBRANCH  38  41
ENDBRANCH  33  38
BRANCH  30  43
ATOM     43  S   LIG    1      -13.131  -3.867   3.716  0.00  0.00    +0.110 S 
ATOM     44  O   LIG    1      -12.811  -3.564   5.132  0.00  0.00    -0.142 OA
ATOM     45  O   LIG    1      -14.618  -3.961   3.557  0.00  0.00    -0.142 OA
BRANCH  43  46
ATOM     46  O   LIG    1      -12.507  -5.403   3.333  0.00  0.00    -0.250 OA
ATOM     47  H   LIG    1      -13.064  -5.730   2.586  0.00  0.00    +0.245 HD
ENDBRANCH  43  46
ENDBRANCH  30  43
BRANCH  28  48
ATOM     48  S   LIG    1       -9.282  -0.347   2.366  0.00  0.00    +0.110 S 
ATOM     49  O   LIG    1       -8.752  -1.131   3.589  0.00  0.00    -0.142 OA
ATOM     50  O   LIG    1       -8.131  -0.578   1.422  0.00  0.00    -0.142 OA
BRANCH  48  51
ATOM     51  O   LIG    1       -9.365   1.192   3.007  0.00  0.00    -0.250 OA
ATOM     52  H   LIG    1      -10.310   1.450   3.081  0.00  0.00    +0.245 HD
ENDBRANCH  48  51
ENDBRANCH  28  48
ENDBRANCH  24  36
ENDBRANCH  17  26
ENDBRANCH  13  22
ENDBRANCH   7  15
ENDBRANCH   1   9
BRANCH   3  53
ATOM     53  C   LIG    1        1.142  -1.057   1.558  0.00  0.00    +0.035 A 
ATOM     54  C   LIG    1        0.816  -0.897   2.914  0.00  0.00    +0.023 A 
ATOM     55  C   LIG    1        1.582  -0.049   3.713  0.00  0.00    +0.003 A 
ATOM     56  C   LIG    1        2.654   0.626   3.175  0.00  0.00    +0.013 A 
ATOM     57  C   LIG    1        2.986   0.477   1.845  0.00  0.00    +0.039 A 
ATOM     58  C   LIG    1        2.226  -0.348   1.093  0.00  0.00    +0.036 A 
BRANCH  57  59
ATOM     59  C   LIG    1        4.183   1.180   1.360  0.00  0.00    +0.248 C 
ATOM     60  O   LIG    1        5.160   1.310   2.187  0.00  0.00    -0.270 OA
ATOM     61  N   LIG    1        4.194   1.659   0.039  0.00  0.00    -0.281 N 
ATOM     62  H   LIG    1        3.315   1.484  -0.520  0.00  0.00    +0.155 HD
BRANCH  61  63
ATOM     63  C   LIG    1        5.314   2.320  -0.528  0.00  0.00    +0.037 A 
ATOM     64  C   LIG    1        6.596   2.187  -0.006  0.00  0.00    +0.036 A 
ATOM     65  C   LIG    1        7.706   2.756  -0.570  0.00  0.00    +0.039 A 
ATOM     66  C   LIG    1        7.561   3.501  -1.709  0.00  0.00    +0.013 A 
ATOM     67  C   LIG    1        6.278   3.651  -2.253  0.00  0.00    +0.006 A 
ATOM     68  C   LIG    1        5.155   3.063  -1.668  0.00  0.00    -0.029 A 
ATOM     69  C   LIG    1        3.825   3.306  -2.334  0.00  0.00    +0.045 C 
BRANCH  65  70
ATOM     70  C   LIG    1        9.054   2.535   0.009  0.00  0.00    +0.248 C 
ATOM     71  N   LIG    1        9.435   1.218   0.437  0.00  0.00    -0.281 N 
ATOM     72  H   LIG    1        8.703   0.549   0.392  0.00  0.00    +0.155 HD
ATOM     73  O   LIG    1        9.757   3.556   0.070  0.00  0.00    -0.270 OA
BRANCH  71  74
ATOM     74  C   LIG    1       10.687   1.032   0.983  0.00  0.00    +0.043 A 
ATOM     75  C   LIG    1       11.134   2.033   1.884  0.00  0.00    +0.026 A 
ATOM     76  C   LIG    1       12.272   1.892   2.635  0.00  0.00    +0.032 A 
ATOM     77  C   LIG    1       13.025   0.750   2.531  0.00  0.00    +0.125 A 
ATOM     78  C   LIG    1       12.614  -0.238   1.660  0.00  0.00    +0.015 A 
ATOM     79  C   LIG    1       13.430  -1.343   1.532  0.00  0.00    +0.040 A 
ATOM     80  C   LIG    1       13.120  -2.316   0.647  0.00  0.00    +0.119 A 
ATOM     81  C   LIG    1       11.992  -2.180  -0.106  0.00  0.00    +0.059 A 
ATOM     82  C   LIG    1       11.108  -1.084  -0.032  0.00  0.00    +0.128 A 
ATOM     83  C   LIG    1       11.437  -0.096   0.877  0.00  0.00    +0.033 A 
BRANCH  80  84
ATOM     84  S   LIG    1       14.184  -3.694   0.489  0.00  0.00    +0.110 S 
ATOM     85  O   LIG    1       14.780  -4.108   1.774  0.00  0.00    -0.142 OA
ATOM     86  O   LIG    1       13.398  -4.827  -0.103  0.00  0.00    -0.142 OA
BRANCH  84  87
ATOM     87  O   LIG    1       15.351  -3.262  -0.672  0.00  0.00    -0.250 OA
ATOM     88  H   LIG    1       15.071  -2.443  -1.164  0.00  0.00    +0.245 HD
ENDBRANCH  84  87
ENDBRANCH  80  84
BRANCH  77  89
ATOM     89  S   LIG    1       14.478   0.536   3.481  0.00  0.00    +0.110 S 
ATOM     90  O   LIG    1       14.338  -0.634   4.421  0.00  0.00    -0.142 OA
ATOM     91  O   LIG    1       14.653   1.748   4.354  0.00  0.00    -0.142 OA
BRANCH  89  92
ATOM     92  O   LIG    1       15.848   0.352   2.541  0.00  0.00    -0.250 OA
ATOM     93  H   LIG    1       16.354  -0.416   2.898  0.00  0.00    +0.245 HD
ENDBRANCH  89  92
ENDBRANCH  77  89
BRANCH  82  94
ATOM     94  S   LIG    1        9.717  -1.011  -1.026  0.00  0.00    +0.110 S 
ATOM     95  O   LIG    1        8.446  -1.574  -0.400  0.00  0.00    -0.142 OA
ATOM     96  O   LIG    1        9.548   0.105  -1.954  0.00  0.00    -0.142 OA
BRANCH  94  97
ATOM     97  O   LIG    1        9.942  -2.312  -2.180  0.00  0.00    -0.250 OA
ATOM     98  H   LIG    1        9.940  -3.148  -1.664  0.00  0.00    +0.245 HD
ENDBRANCH  94  97
ENDBRANCH  82  94
ENDBRANCH  71  74
ENDBRANCH  65  70
ENDBRANCH  61  63
ENDBRANCH  57  59
ENDBRANCH   3  53
TORSDOF 22
