REMARK  Name = molecules/DB04909.pdb
REMARK                            x       y       z     vdW  Elec       q    Type
REMARK                         _______ _______ _______ _____ _____    ______ ____
ROOT
ATOM      1  C   LIG    1       -5.017   0.979   0.649  0.00  0.00    +0.123 A 
ATOM      2  C   LIG    1       -5.484  -0.307   0.480  0.00  0.00    +0.056 A 
ATOM      3  C   LIG    1       -4.694  -1.260  -0.118  0.00  0.00    +0.009 A 
ATOM      4  C   LIG    1       -5.164  -2.543  -0.282  0.00  0.00    -0.040 A 
ATOM      5  C   LIG    1       -6.514  -2.977   0.152  0.00  0.00    +0.044 C 
ATOM      6  C   LIG    1       -4.324  -3.454  -0.887  0.00  0.00    +0.023 A 
ATOM      7  C   LIG    1       -3.060  -3.060  -1.302  0.00  0.00    +0.112 A 
ATOM      8  N   LIG    1       -2.627  -1.783  -1.124  0.00  0.00    -0.253 NA
ATOM      9  C   LIG    1       -3.425  -0.875  -0.538  0.00  0.00    +0.092 A 
ATOM     10  C   LIG    1       -2.938   0.387  -0.385  0.00  0.00    +0.057 A 
ATOM     11  C   LIG    1       -3.735   1.331   0.214  0.00  0.00    +0.070 A 
ENDROOT
BRANCH   1  12
ATOM     12  O   LIG    1       -5.844   1.908   1.256  0.00  0.00    -0.495 OA
ATOM     13  C   LIG    1       -5.359   3.226   1.424  0.00  0.00    +0.277 C 
ENDBRANCH   1  12
BRANCH  10  14
ATOM     14  N   LIG    1       -1.638   0.787  -0.837  0.00  0.00    -0.342 N 
ATOM     15  H   LIG    1       -1.120   0.049  -1.355  0.00  0.00    +0.146 HD
BRANCH  14  16
ATOM     16  C   LIG    1       -1.190   2.126  -0.583  0.00  0.00    +0.101 C 
BRANCH  16  17
ATOM     17  C   LIG    1        0.181   2.478  -0.983  0.00  0.00    +0.019 C 
BRANCH  17  18
ATOM     18  C   LIG    1        1.313   1.816  -0.307  0.00  0.00    +0.002 C 
BRANCH  18  19
ATOM     19  C   LIG    1        1.354   0.347  -0.407  0.00  0.00    +0.001 C 
BRANCH  19  20
ATOM     20  C   LIG    1        2.579  -0.271   0.252  0.00  0.00    +0.015 C 
BRANCH  20  21
ATOM     21  C   LIG    1        3.864   0.190  -0.327  0.00  0.00    +0.084 C 
BRANCH  21  22
ATOM     22  N   LIG    1        4.984  -0.433   0.327  0.00  0.00    -0.303 NA
BRANCH  22  23
ATOM     23  C   LIG    1        6.226   0.260   0.125  0.00  0.00    +0.081 C 
ATOM     24  C   LIG    1        6.307   1.591   0.780  0.00  0.00    +0.020 C 
ENDBRANCH  22  23
BRANCH  22  25
ATOM     25  C   LIG    1        5.083  -1.847   0.052  0.00  0.00    +0.081 C 
ATOM     26  C   LIG    1        6.277  -2.392   0.786  0.00  0.00    +0.020 C 
ENDBRANCH  22  25
ENDBRANCH  21  22
ENDBRANCH  20  21
ENDBRANCH  19  20
ENDBRANCH  18  19
ENDBRANCH  17  18
ENDBRANCH  16  17
ENDBRANCH  14  16
ENDBRANCH  10  14
TORSDOF 11
