REMARK  Name = molecules/DB06243.pdb
REMARK                            x       y       z     vdW  Elec       q    Type
REMARK                         _______ _______ _______ _____ _____    ______ ____
ROOT
ATOM      1  C   LIG    1        1.092  -0.160   0.215  0.00  0.00    +0.175 C 
ENDROOT
BRANCH   1   2
ATOM      2  N   LIG    1        1.223   0.899   1.217  0.00  0.00    -0.311 NA
ATOM      3  H   LIG    1        1.009   0.540   2.152  0.00  0.00    +0.119 HD
ATOM      4  H   LIG    1        0.712   1.760   0.938  0.00  0.00    +0.119 HD
ENDBRANCH   1   2
BRANCH   1   5
ATOM      5  C   LIG    1        2.450  -0.895   0.296  0.00  0.00    +0.372 C 
ATOM      6  F   LIG    1        2.592  -1.341   1.607  0.00  0.00    -0.207 F 
ATOM      7  F   LIG    1        3.461  -0.002   0.011  0.00  0.00    -0.207 F 
ENDBRANCH   1   5
BRANCH   1   8
ATOM      8  C   LIG    1        1.073   0.482  -1.103  0.00  0.00    +0.331 C 
ATOM      9  O   LIG    1        0.934  -0.225  -2.124  0.00  0.00    -0.249 OA
BRANCH   8  10
ATOM     10  O   LIG    1        1.207   1.845  -1.222  0.00  0.00    -0.479 OA
ATOM     11  H   LIG    1        2.018   2.383  -0.969  0.00  0.00    +0.295 HD
ENDBRANCH   8  10
ENDBRANCH   1   8
BRANCH   1  12
ATOM     12  C   LIG    1       -0.024  -1.087   0.516  0.00  0.00    +0.040 C 
BRANCH  12  13
ATOM     13  C   LIG    1       -1.400  -0.554   0.515  0.00  0.00    +0.017 C 
BRANCH  13  14
ATOM     14  C   LIG    1       -1.913   0.038  -0.751  0.00  0.00    +0.078 C 
BRANCH  14  15
ATOM     15  N   LIG    1       -3.307   0.474  -0.502  0.00  0.00    -0.330 NA
ATOM     16  H   LIG    1       -3.220   1.236   0.205  0.00  0.00    +0.118 HD
ATOM     17  H   LIG    1       -3.705   0.845  -1.408  0.00  0.00    +0.118 HD
ENDBRANCH  14  15
ENDBRANCH  13  14
ENDBRANCH  12  13
ENDBRANCH   1  12
TORSDOF 8
