REMARK  Name = molecules/DB11989.pdb
REMARK                            x       y       z     vdW  Elec       q    Type
REMARK                         _______ _______ _______ _____ _____    ______ ____
ROOT
ATOM      1  C   LIG    1       -0.988  -0.390   0.274  0.00  0.00    +0.233 C 
ATOM      2  O   LIG    1       -1.220  -0.803   1.433  0.00  0.00    -0.274 OA
ATOM      3  N   LIG    1        0.348  -0.115  -0.095  0.00  0.00    -0.310 N 
ATOM      4  H   LIG    1        0.625   0.233  -1.043  0.00  0.00    +0.149 HD
ENDROOT
BRANCH   1   5
ATOM      5  C   LIG    1       -2.042  -0.171  -0.745  0.00  0.00    +0.220 C 
BRANCH   5   6
ATOM      6  N   LIG    1       -3.360  -0.485  -0.253  0.00  0.00    -0.303 N 
ATOM      7  C   LIG    1       -4.166   0.378   0.347  0.00  0.00    +0.291 A 
ATOM      8  N   LIG    1       -5.288  -0.298   0.650  0.00  0.00    -0.215 NA
ATOM      9  C   LIG    1       -5.183  -1.575   0.241  0.00  0.00    +0.132 A 
ATOM     10  C   LIG    1       -3.943  -1.709  -0.343  0.00  0.00    +0.109 A 
BRANCH   7  11
ATOM     11  N   LIG    1       -3.949   1.769   0.647  0.00  0.00    +0.093 N 
ATOM     12  O   LIG    1       -4.900   2.503   1.274  0.00  0.00    -0.123 OA
ATOM     13  O   LIG    1       -2.887   2.329   0.339  0.00  0.00    -0.123 OA
ENDBRANCH   7  11
ENDBRANCH   5   6
ENDBRANCH   1   5
BRANCH   3  14
ATOM     14  C   LIG    1        1.394  -0.320   0.878  0.00  0.00    +0.139 C 
BRANCH  14  15
ATOM     15  C   LIG    1        2.729   0.005   0.361  0.00  0.00    -0.030 A 
ATOM     16  C   LIG    1        3.197   1.294   0.512  0.00  0.00    +0.005 A 
ATOM     17  C   LIG    1        4.441   1.671   0.051  0.00  0.00    +0.000 A 
ATOM     18  C   LIG    1        5.238   0.751  -0.571  0.00  0.00    +0.000 A 
ATOM     19  C   LIG    1        4.778  -0.540  -0.726  0.00  0.00    +0.000 A 
ATOM     20  C   LIG    1        3.536  -0.930  -0.270  0.00  0.00    +0.005 A 
ENDBRANCH  14  15
ENDBRANCH   3  14
TORSDOF 5
