REMARK  Name = molecules/DB12265.pdb
REMARK                            x       y       z     vdW  Elec       q    Type
REMARK                         _______ _______ _______ _____ _____    ______ ____
ROOT
ATOM      1  C   LIG    1       -0.916  -0.508  -0.524  0.00  0.00    +0.303 C 
ENDROOT
BRANCH   1   4
ATOM      2  C   LIG    1       -2.840   1.844  -0.999  0.00  0.00    +0.152 C 
ATOM      3  N   LIG    1       -3.245   0.470  -0.779  0.00  0.00    -0.309 N 
ATOM      4  C   LIG    1       -2.397  -0.548  -0.573  0.00  0.00    +0.149 A 
ATOM      5  N   LIG    1       -3.161  -1.643  -0.415  0.00  0.00    -0.235 NA
ATOM      6  C   LIG    1       -4.460  -1.322  -0.519  0.00  0.00    +0.164 A 
ATOM      7  C   LIG    1       -4.519   0.054  -0.756  0.00  0.00    +0.215 A 
BRANCH   7   8
ATOM      8  N   LIG    1       -5.705   0.824  -0.932  0.00  0.00    +0.075 N 
ATOM      9  O   LIG    1       -6.934   0.226  -0.876  0.00  0.00    -0.125 OA
ATOM     10  O   LIG    1       -5.638   2.046  -1.139  0.00  0.00    -0.125 OA
ENDBRANCH   7   8
ENDBRANCH   1   4
BRANCH   1  11
ATOM     11  O   LIG    1       -0.438  -0.273   0.787  0.00  0.00    -0.484 OA
BRANCH  11  12
ATOM     12  C   LIG    1        0.940  -0.215   0.950  0.00  0.00    +0.121 A 
ATOM     13  C   LIG    1        1.475   0.014   2.215  0.00  0.00    +0.047 A 
ATOM     14  C   LIG    1        2.834   0.075   2.405  0.00  0.00    +0.018 A 
ATOM     15  C   LIG    1        3.722  -0.082   1.380  0.00  0.00    +0.008 A 
ATOM     16  C   LIG    1        3.208  -0.310   0.117  0.00  0.00    +0.018 A 
ATOM     17  C   LIG    1        1.839  -0.372  -0.075  0.00  0.00    +0.047 A 
BRANCH  15  18
ATOM     18  S   LIG    1        5.490  -0.004   1.615  0.00  0.00    -0.129 S 
ATOM     19  C   LIG    1        6.343  -0.253   0.059  0.00  0.00    +0.090 C 
ENDBRANCH  15  18
ENDBRANCH  11  12
ENDBRANCH   1  11
TORSDOF 5
