REMARK  Name = molecules/DB12328.pdb
REMARK                            x       y       z     vdW  Elec       q    Type
REMARK                         _______ _______ _______ _____ _____    ______ ____
ROOT
ATOM      1  C   LIG    1       -1.534   1.195  -0.501  0.00  0.00    +0.027 C 
ATOM      2  C   LIG    1       -0.503   0.707   0.453  0.00  0.00    +0.109 C 
ATOM      3  C   LIG    1       -0.886   1.049   1.821  0.00  0.00    +0.324 C 
ATOM      4  O   LIG    1       -1.088  -0.112   2.538  0.00  0.00    -0.392 OA
ATOM      5  C   LIG    1       -0.868  -1.222   1.703  0.00  0.00    +0.324 C 
ATOM      6  O   LIG    1       -1.171  -2.394   2.072  0.00  0.00    -0.250 OA
ATOM      7  O   LIG    1       -1.022   2.196   2.311  0.00  0.00    -0.250 OA
ATOM      8  C   LIG    1       -0.272  -0.772   0.438  0.00  0.00    +0.109 C 
ATOM      9  C   LIG    1        1.243  -0.857   0.437  0.00  0.00    +0.136 C 
ATOM     10  O   LIG    1        1.627   0.373   1.027  0.00  0.00    -0.371 OA
ATOM     11  C   LIG    1        1.757  -0.645  -0.956  0.00  0.00    +0.035 C 
ATOM     12  C   LIG    1        1.416   0.834  -1.166  0.00  0.00    +0.035 C 
ATOM     13  C   LIG    1       -0.892  -1.488  -0.707  0.00  0.00    +0.027 C 
ATOM     14  C   LIG    1        0.882   1.236   0.184  0.00  0.00    +0.136 C 
ENDROOT
TORSDOF 0
