REMARK  Name = molecules/DB12864.pdb
REMARK                            x       y       z     vdW  Elec       q    Type
REMARK                         _______ _______ _______ _____ _____    ______ ____
ROOT
ATOM      1  C   LIG    1       -1.123  -0.860  -0.182  0.00  0.00    +0.000 A 
ATOM      2  C   LIG    1        0.096  -1.452   0.106  0.00  0.00    +0.000 A 
ATOM      3  C   LIG    1        1.177  -0.740   0.537  0.00  0.00    +0.000 A 
ATOM      4  C   LIG    1        1.027   0.613   0.684  0.00  0.00    +0.000 A 
ATOM      5  C   LIG    1       -0.154   1.257   0.416  0.00  0.00    +0.000 A 
ATOM      6  C   LIG    1       -1.261   0.497  -0.030  0.00  0.00    +0.000 A 
ENDROOT
BRANCH   3   7
ATOM      7 AS   LIG    1        2.842  -1.606   0.922  0.00  0.00    +0.000 As
ATOM      8  S   LIG    1        4.095  -0.338   2.383  0.00  0.00    +0.000 S 
ATOM      9  C   LIG    1        5.640  -0.357   1.385  0.00  0.00    +0.000 C 
ATOM     10  C   LIG    1        5.272   0.107   0.007  0.00  0.00    +0.000 C 
ATOM     11  S   LIG    1        4.345  -1.267  -0.793  0.00  0.00    +0.000 S 
BRANCH  10  12
ATOM     12  C   LIG    1        6.567   0.262  -0.765  0.00  0.00    +0.000 C 
BRANCH  12  13
ATOM     13  O   LIG    1        6.303   0.699  -2.079  0.00  0.00    +0.000 OA
ATOM     14  H   LIG    1        7.102   1.233  -2.373  0.00  0.00    +0.000 HD
ENDBRANCH  12  13
ENDBRANCH  10  12
ENDBRANCH   3   7
BRANCH   6  15
ATOM     15  N   LIG    1       -2.439   1.213  -0.268  0.00  0.00    +0.000 N 
ATOM     16  H   LIG    1       -2.380   2.272  -0.330  0.00  0.00    +0.000 HD
BRANCH  15  17
ATOM     17  C   LIG    1       -3.714   0.655  -0.442  0.00  0.00    +0.000 A 
ATOM     18  N   LIG    1       -4.002  -0.644  -0.399  0.00  0.00    +0.000 NA
ATOM     19  C   LIG    1       -5.225  -1.162  -0.566  0.00  0.00    +0.000 A 
ATOM     20  N   LIG    1       -6.253  -0.325  -0.797  0.00  0.00    +0.000 NA
ATOM     21  C   LIG    1       -6.037   0.997  -0.854  0.00  0.00    +0.000 A 
ATOM     22  N   LIG    1       -4.801   1.462  -0.680  0.00  0.00    +0.000 NA
BRANCH  19  23
ATOM     23  N   LIG    1       -5.372  -2.553  -0.493  0.00  0.00    +0.000 N 
ATOM     24  H   LIG    1       -4.947  -3.071   0.305  0.00  0.00    +0.000 HD
ATOM     25  H   LIG    1       -5.904  -3.048  -1.238  0.00  0.00    +0.000 HD
ENDBRANCH  19  23
BRANCH  21  26
ATOM     26  N   LIG    1       -7.116   1.910  -1.099  0.00  0.00    +0.000 N 
ATOM     27  H   LIG    1       -7.335   2.594  -0.370  0.00  0.00    +0.000 HD
ATOM     28  H   LIG    1       -7.629   1.847  -1.989  0.00  0.00    +0.000 HD
ENDBRANCH  21  26
ENDBRANCH  15  17
ENDBRANCH   6  15
TORSDOF 7
