REMARK  Name = molecules/DB13732.pdb
REMARK                            x       y       z     vdW  Elec       q    Type
REMARK                         _______ _______ _______ _____ _____    ______ ____
ROOT
ATOM      1  C   LIG    1       -4.217   0.406   1.066  0.00  0.00    +0.120 C 
ATOM      2  N   LIG    1       -2.875   0.685   0.674  0.00  0.00    -0.260 NA
ATOM      3  H   LIG    1       -2.447   1.507   1.110  0.00  0.00    +0.140 HD
ENDROOT
TORSDOF 0
REMARK  Name = molecules/DB13732.pdb
REMARK                            x       y       z     vdW  Elec       q    Type
REMARK                         _______ _______ _______ _____ _____    ______ ____
ROOT
ATOM      1  C   LIG    1       -2.025  -0.471   0.594  0.00  0.00    +0.000 C 
ENDROOT
TORSDOF 0
REMARK  Name = molecules/DB13732.pdb
REMARK                            x       y       z     vdW  Elec       q    Type
REMARK                         _______ _______ _______ _____ _____    ______ ____
ROOT
ATOM      1  C   LIG    1       -0.651   0.087   0.158  0.00  0.00    +0.343 C 
ATOM      2  O   LIG    1       -1.185   1.700  -0.024  0.00  0.00    -0.195 OA
ENDROOT
BRANCH   1   3
ATOM      3  O   LIG    1       -0.900   0.688  -1.062  0.00  0.00    -0.361 OA
ATOM      4  H   LIG    1       -1.813   1.032  -1.163  0.00  0.00    +0.213 HD
ENDBRANCH   1   3
TORSDOF 1
REMARK  Name = molecules/DB13732.pdb
REMARK                            x       y       z     vdW  Elec       q    Type
REMARK                         _______ _______ _______ _____ _____    ______ ____
ROOT
ATOM      1  C   LIG    1        0.331  -1.030  -0.036  0.00  0.00    +0.000 C 
ENDROOT
BRANCH   1   2
ATOM      2  O   LIG    1       -0.312  -1.941  -0.926  0.00  0.00    +0.000 OA
ATOM      3  H   LIG    1       -0.409  -2.828  -0.541  0.00  0.00    +0.000 HD
ENDBRANCH   1   2
BRANCH   1   4
ATOM      4 SB   LIG    1       -0.551  -0.003   0.137  0.00  0.00    +0.000 Sb
BRANCH   4   5
ATOM      5  O   LIG    1       -1.661  -1.424  -0.128  0.00  0.00    +0.000 OA
ATOM      6  H   LIG    1       -2.421  -1.140  -0.191  0.00  0.00    +0.000 HD
ENDBRANCH   4   5
ENDBRANCH   1   4
TORSDOF 3
REMARK  Name = molecules/DB13732.pdb
REMARK                            x       y       z     vdW  Elec       q    Type
REMARK                         _______ _______ _______ _____ _____    ______ ____
ROOT
ATOM      1  C   LIG    1        1.604  -0.657  -0.717  0.00  0.00    +0.000 C 
ATOM      2  O   LIG    1        1.445  -0.321   0.392  0.00  0.00    +0.000 OA
ENDROOT
BRANCH   1   3
ATOM      3  O   LIG    1        2.292  -1.901  -0.888  0.00  0.00    +0.000 OA
ATOM      4  H   LIG    1        1.861  -2.432  -1.585  0.00  0.00    +0.000 HD
ENDBRANCH   1   3
TORSDOF 1
REMARK  Name = molecules/DB13732.pdb
REMARK                            x       y       z     vdW  Elec       q    Type
REMARK                         _______ _______ _______ _____ _____    ______ ____
ROOT
ATOM      1  C   LIG    1        2.553   0.210   0.013  0.00  0.00    +0.000 C 
ATOM      2  O   LIG    1        2.901  -0.284   1.268  0.00  0.00    +0.000 OA
ATOM      3  H   LIG    1        3.358  -1.157   1.149  0.00  0.00    +0.000 HD
ENDROOT
TORSDOF 0
REMARK  Name = molecules/DB13732.pdb
REMARK                            x       y       z     vdW  Elec       q    Type
REMARK                         _______ _______ _______ _____ _____    ______ ____
ROOT
ATOM      1  C   LIG    1        2.299   1.670   0.047  0.00  0.00    +0.000 C 
ATOM      2  O   LIG    1        3.515   2.280   0.472  0.00  0.00    +0.000 OA
ATOM      3  H   LIG    1        4.231   1.984  -0.113  0.00  0.00    +0.000 HD
ENDROOT
TORSDOF 0
