REMARK  Name = molecules/DB15096.pdb
REMARK                            x       y       z     vdW  Elec       q    Type
REMARK                         _______ _______ _______ _____ _____    ______ ____
ROOT
ATOM      1  C   LIG    1        2.299  -0.988  -0.313  0.00  0.00    +0.010 C 
ATOM      2  C   LIG    1        2.345  -1.886   0.926  0.00  0.00    +0.010 C 
ATOM      3  C   LIG    1        1.078  -1.650   1.703  0.00  0.00    +0.005 C 
ATOM      4  C   LIG    1        0.833  -0.184   1.995  0.00  0.00    +0.088 C 
ATOM      5  N   LIG    1        1.077   0.650   0.866  0.00  0.00    -0.297 NA
ATOM      6  C   LIG    1        0.442   1.900   0.827  0.00  0.00    +0.089 C 
ATOM      7  C   LIG    1       -0.625   2.068  -0.215  0.00  0.00    +0.053 C 
ATOM      8  C   LIG    1       -1.634   1.022  -0.012  0.00  0.00    -0.017 A 
ATOM      9  C   LIG    1       -2.971   1.224   0.261  0.00  0.00    +0.003 A 
ATOM     10  C   LIG    1       -3.741   2.375   0.419  0.00  0.00    +0.010 A 
ATOM     11  C   LIG    1       -5.089   2.297   0.693  0.00  0.00    +0.001 A 
ATOM     12  C   LIG    1       -5.710   1.072   0.818  0.00  0.00    +0.002 A 
ATOM     13  C   LIG    1       -4.928  -0.053   0.658  0.00  0.00    +0.026 A 
ATOM     14  C   LIG    1       -3.577   0.001   0.383  0.00  0.00    +0.047 A 
ATOM     15  N   LIG    1       -2.605  -0.908   0.184  0.00  0.00    -0.357 N 
ATOM     16  H   LIG    1       -2.771  -1.937   0.216  0.00  0.00    +0.166 HD
ATOM     17  C   LIG    1       -1.428  -0.340  -0.055  0.00  0.00    +0.039 A 
ATOM     18  C   LIG    1       -0.157  -1.105  -0.315  0.00  0.00    +0.124 C 
ATOM     19  C   LIG    1       -0.064  -2.131   0.797  0.00  0.00    +0.030 C 
ATOM     20  C   LIG    1        1.019  -0.157  -0.321  0.00  0.00    +0.082 C 
ENDROOT
BRANCH  18  21
ATOM     21  C   LIG    1       -0.232  -1.804  -1.618  0.00  0.00    +0.320 C 
ATOM     22  O   LIG    1        0.560  -1.603  -2.575  0.00  0.00    -0.250 OA
BRANCH  21  23
ATOM     23  O   LIG    1       -1.230  -2.760  -1.854  0.00  0.00    -0.467 OA
ATOM     24  C   LIG    1       -1.339  -3.452  -3.082  0.00  0.00    +0.280 C 
ENDBRANCH  21  23
ENDBRANCH  18  21
BRANCH   1  25
ATOM     25  C   LIG    1        3.444   0.018  -0.107  0.00  0.00    +0.033 C 
BRANCH  25  26
ATOM     26  C   LIG    1        3.545   0.981  -1.235  0.00  0.00    +0.160 C 
BRANCH  26  28
ATOM     27  C   LIG    1        4.440   2.595   0.156  0.00  0.00    +0.193 C 
ATOM     28  O   LIG    1        4.594   1.855  -1.009  0.00  0.00    -0.383 OA
ENDBRANCH  26  28
ENDBRANCH  25  26
ENDBRANCH   1  25
TORSDOF 5
