REMARK  Name = molecules/DBABZHXKTCFAPX-UHFFFAOYSA-N.pdb
REMARK                            x       y       z     vdW  Elec       q    Type
REMARK                         _______ _______ _______ _____ _____    ______ ____
ROOT
ATOM      1  S   LIG    1        0.013  -1.240   0.890  0.00  0.00    +0.061 S 
ATOM      2  O   LIG    1        0.402  -1.496   2.347  0.00  0.00    -0.153 OA
ATOM      3  O   LIG    1       -0.265  -2.614   0.350  0.00  0.00    -0.153 OA
ENDROOT
BRANCH   1   4
ATOM      4  C   LIG    1        1.400  -0.633   0.033  0.00  0.00    +0.106 A 
ATOM      5  C   LIG    1        2.304   0.228   0.613  0.00  0.00    +0.029 A 
ATOM      6  C   LIG    1        3.410   0.699  -0.104  0.00  0.00    +0.017 A 
ATOM      7  C   LIG    1        3.622   0.310  -1.411  0.00  0.00    +0.059 A 
ATOM      8  C   LIG    1        2.716  -0.548  -1.981  0.00  0.00    +0.017 A 
ATOM      9  C   LIG    1        1.630  -1.008  -1.270  0.00  0.00    +0.029 A 
BRANCH   7  10
ATOM     10  C   LIG    1        4.792   0.815  -2.150  0.00  0.00    +0.337 C 
ATOM     11  O   LIG    1        4.931   0.429  -3.329  0.00  0.00    -0.245 OA
BRANCH  10  12
ATOM     12  O   LIG    1        5.684   1.668  -1.573  0.00  0.00    -0.477 OA
ATOM     13  H   LIG    1        6.488   1.321  -1.076  0.00  0.00    +0.295 HD
ENDBRANCH  10  12
ENDBRANCH   7  10
ENDBRANCH   1   4
BRANCH   1  14
ATOM     14  N   LIG    1       -1.353  -0.294   0.743  0.00  0.00    -0.177 NA
BRANCH  14  15
ATOM     15  C   LIG    1       -2.051   0.072   1.913  0.00  0.00    +0.109 C 
BRANCH  15  16
ATOM     16  C   LIG    1       -1.569   1.368   2.527  0.00  0.00    +0.014 C 
ATOM     17  C   LIG    1       -1.728   2.526   1.547  0.00  0.00    +0.005 C 
ENDBRANCH  15  16
ENDBRANCH  14  15
BRANCH  14  18
ATOM     18  C   LIG    1       -1.935  -0.069  -0.493  0.00  0.00    +0.109 C 
BRANCH  18  19
ATOM     19  C   LIG    1       -3.074  -0.892  -0.947  0.00  0.00    +0.014 C 
ATOM     20  C   LIG    1       -2.872  -2.352  -1.084  0.00  0.00    +0.005 C 
ENDBRANCH  18  19
ENDBRANCH  14  18
ENDBRANCH   1  14
TORSDOF 8
