REMARK  Name = molecules/DBHODFSFBXJZNY-UHFFFAOYSA-N.pdb
REMARK                            x       y       z     vdW  Elec       q    Type
REMARK                         _______ _______ _______ _____ _____    ______ ____
ROOT
ATOM      1  C   LIG    1       -0.511   0.023  -0.006  0.00  0.00    -0.004 A 
ATOM      2  C   LIG    1        0.161   1.220   0.137  0.00  0.00    +0.048 A 
ATOM      3 CL   LIG    1       -0.775   2.687   0.356  0.00  0.00    -0.083 Cl
ATOM      4  C   LIG    1        1.550   1.254   0.107  0.00  0.00    +0.040 A 
ATOM      5  C   LIG    1        2.317   0.122  -0.063  0.00  0.00    +0.042 A 
ATOM      6 CL   LIG    1        4.079   0.196  -0.097  0.00  0.00    -0.083 Cl
ATOM      7  C   LIG    1        1.642  -1.072  -0.205  0.00  0.00    +0.020 A 
ATOM      8  C   LIG    1        0.256  -1.109  -0.176  0.00  0.00    +0.009 A 
ENDROOT
BRANCH   1   9
ATOM      9  C   LIG    1       -1.990   0.010   0.029  0.00  0.00    +0.192 C 
BRANCH   9  10
ATOM     10  O   LIG    1       -2.469  -1.290  -0.133  0.00  0.00    -0.390 OA
ATOM     11  H   LIG    1       -3.425  -1.265   0.182  0.00  0.00    +0.210 HD
ENDBRANCH   9  10
ENDBRANCH   1   9
TORSDOF 2
