REMARK  Name = molecules/DBOUGBAQLIXZLV-UHFFFAOYSA-N.pdb
REMARK                            x       y       z     vdW  Elec       q    Type
REMARK                         _______ _______ _______ _____ _____    ______ ____
ROOT
ATOM      1  N   LIG    1        1.524   0.169  -0.356  0.00  0.00    -0.298 N 
ATOM      2  C   LIG    1        2.063   0.966   0.709  0.00  0.00    +0.046 C 
ATOM      3  C   LIG    1        1.189   1.749   1.429  0.00  0.00    +0.026 C 
ATOM      4  C   LIG    1        1.603   2.593   2.462  0.00  0.00    +0.110 C 
ATOM      5 CL   LIG    1        0.402   3.543   3.308  0.00  0.00    -0.107 Cl
ATOM      6  C   LIG    1        2.940   2.645   2.776  0.00  0.00    +0.003 C 
ATOM      7  C   LIG    1        3.802   1.858   2.051  0.00  0.00    +0.015 C 
ATOM      8  C   LIG    1        3.395   1.028   1.034  0.00  0.00    +0.034 C 
ATOM      9  S   LIG    1        4.590   0.033   0.167  0.00  0.00    -0.086 S 
ATOM     10  C   LIG    1        3.682  -0.808  -1.121  0.00  0.00    +0.034 A 
ATOM     11  C   LIG    1        4.420  -1.572  -1.979  0.00  0.00    +0.017 A 
ATOM     12  C   LIG    1        3.826  -2.259  -3.010  0.00  0.00    +0.001 A 
ATOM     13  C   LIG    1        2.462  -2.138  -3.134  0.00  0.00    +0.002 A 
ATOM     14  C   LIG    1        1.727  -1.364  -2.263  0.00  0.00    +0.024 A 
ATOM     15  C   LIG    1        2.312  -0.664  -1.215  0.00  0.00    +0.048 A 
ENDROOT
BRANCH   1  16
ATOM     16  C   LIG    1        0.110   0.152  -0.571  0.00  0.00    +0.112 C 
BRANCH  16  17
ATOM     17  C   LIG    1       -0.604  -1.097  -0.165  0.00  0.00    +0.035 C 
BRANCH  17  18
ATOM     18  C   LIG    1       -2.089  -0.865  -0.466  0.00  0.00    +0.086 C 
BRANCH  18  19
ATOM     19  N   LIG    1       -2.551   0.233   0.372  0.00  0.00    -0.303 NA
BRANCH  19  21
ATOM     20  C   LIG    1       -3.470  -1.418   1.970  0.00  0.00    +0.020 C 
ATOM     21  C   LIG    1       -2.625  -0.185   1.758  0.00  0.00    +0.081 C 
ENDBRANCH  19  21
BRANCH  19  22
ATOM     22  C   LIG    1       -3.815   0.750  -0.070  0.00  0.00    +0.081 C 
ATOM     23  C   LIG    1       -3.693   1.331  -1.469  0.00  0.00    +0.020 C 
ENDBRANCH  19  22
ENDBRANCH  18  19
ENDBRANCH  17  18
ENDBRANCH  16  17
ENDBRANCH   1  16
TORSDOF 6
