REMARK  Name = molecules/DBPPRLRVDVJOCL-FQRUVTKNSA-N.pdb
REMARK                            x       y       z     vdW  Elec       q    Type
REMARK                         _______ _______ _______ _____ _____    ______ ____
ROOT
ATOM      1  CA  LIG    1       -0.185  -0.512  -1.372  0.00  0.00    +0.125 C 
ATOM      2  C   LIG    1        0.369  -0.862  -0.204  0.00  0.00    -0.047 C 
ATOM      3  C   LIG    1       -0.192  -0.654   1.130  0.00  0.00    +0.102 C 
ATOM      4  S   LIG    1       -1.637   0.461   1.255  0.00  0.00    -0.131 S 
ATOM      5  C   LIG    1       -1.696   1.239  -0.382  0.00  0.00    +0.169 C 
ATOM      6  CA  LIG    1       -2.959   1.510  -0.954  0.00  0.00    +0.191 C 
ATOM      7  C   LIG    1       -2.757   0.294  -1.808  0.00  0.00    +0.244 C 
ATOM      8  O   LIG    1       -3.489  -0.341  -2.628  0.00  0.00    -0.273 OA
ATOM      9  N   LIG    1       -1.470   0.152  -1.345  0.00  0.00    -0.249 N 
ENDROOT
BRANCH   6  10
ATOM     10  N   LIG    1       -4.242   1.334  -0.276  0.00  0.00    -0.296 N 
ATOM     11  C   LIG    1       -4.736   0.102   0.151  0.00  0.00    +0.268 C 
ATOM     12  O   LIG    1       -3.958  -0.896  -0.056  0.00  0.00    -0.268 OA
ATOM     13  H   LIG    1       -4.838   2.197  -0.098  0.00  0.00    +0.150 HD
BRANCH  11  14
ATOM     14  C   LIG    1       -5.988  -0.208   0.782  0.00  0.00    +0.190 C 
ATOM     15  N   LIG    1       -6.865   0.688   1.000  0.00  0.00    -0.077 NA
BRANCH  14  16
ATOM     16  C   LIG    1       -6.282  -1.625   1.203  0.00  0.00    +0.107 A 
ATOM     17  C   LIG    1       -7.497  -1.970   1.723  0.00  0.00    +0.078 A 
ATOM     18  S   LIG    1       -7.271  -3.658   2.001  0.00  0.00    -0.060 S 
ATOM     19  C   LIG    1       -5.665  -3.792   1.440  0.00  0.00    +0.156 A 
ATOM     20  N   LIG    1       -5.389  -2.553   1.075  0.00  0.00    -0.223 NA
BRANCH  19  21
ATOM     21  N   LIG    1       -4.806  -4.933   1.381  0.00  0.00    -0.338 N 
ATOM     22  H   LIG    1       -4.310  -5.227   2.240  0.00  0.00    +0.144 HD
ATOM     23  H   LIG    1       -4.666  -5.465   0.508  0.00  0.00    +0.144 HD
ENDBRANCH  19  21
ENDBRANCH  14  16
BRANCH  15  24
ATOM     24  O   LIG    1       -6.787   1.984   0.708  0.00  0.00    -0.376 OA
BRANCH  24  25
ATOM     25  C   LIG    1       -7.728   2.638  -0.103  0.00  0.00    +0.228 C 
ATOM     26  C   LIG    1       -9.091   2.417   0.581  0.00  0.00    +0.070 C 
ATOM     27  C   LIG    1       -7.449   4.137  -0.119  0.00  0.00    +0.070 C 
BRANCH  25  28
ATOM     28  C   LIG    1       -7.776   2.056  -1.426  0.00  0.00    +0.351 C 
ATOM     29  O   LIG    1       -7.107   1.066  -1.763  0.00  0.00    -0.246 OA
BRANCH  28  30
ATOM     30  O   LIG    1       -8.615   2.614  -2.433  0.00  0.00    -0.478 OA
ATOM     31  H   LIG    1       -8.302   2.634  -3.397  0.00  0.00    +0.295 HD
ENDBRANCH  28  30
ENDBRANCH  25  28
ENDBRANCH  24  25
ENDBRANCH  15  24
ENDBRANCH  11  14
ENDBRANCH   6  10
BRANCH   1  32
ATOM     32  C   LIG    1        0.349  -0.777  -2.690  0.00  0.00    +0.401 C 
ATOM     33  OXT LIG    1        1.394  -1.353  -3.026  0.00  0.00    -0.239 OA
ATOM     34  O   LIG    1       -0.402  -0.330  -3.814  0.00  0.00    -0.239 OA
ENDBRANCH   1  32
BRANCH   2  35
ATOM     35  C   LIG    1        1.651  -1.610  -0.264  0.00  0.00    -0.041 C 
BRANCH  35  36
ATOM     36  N   LIG    1        2.845  -0.991   0.189  0.00  0.00    +0.384 N 
ATOM     37  C   LIG    1        3.456  -1.833   1.227  0.00  0.00    -0.075 C 
ATOM     38  C   LIG    1        4.263  -2.890   0.507  0.00  0.00    -0.020 C 
ATOM     39  C   LIG    1        4.186  -2.485  -0.968  0.00  0.00    -0.020 C 
ATOM     40  C   LIG    1        3.871  -1.031  -0.881  0.00  0.00    -0.075 C 
BRANCH  36  41
ATOM     41  C   LIG    1        2.686   0.325   0.684  0.00  0.00    -0.056 C 
BRANCH  41  42
ATOM     42  C   LIG    1        3.863   1.266   0.471  0.00  0.00    +0.086 C 
BRANCH  42  43
ATOM     43  N   LIG    1        5.055   1.001   1.073  0.00  0.00    -0.313 N 
ATOM     44  H   LIG    1        4.420   1.037   2.283  0.00  0.00    +0.149 HD
ATOM     45  C   LIG    1        6.262   0.733   1.685  0.00  0.00    +0.246 C 
ATOM     46  O   LIG    1        6.446   0.612   2.924  0.00  0.00    -0.270 OA
BRANCH  45  47
ATOM     47  C   LIG    1        7.452   0.574   0.800  0.00  0.00    +0.059 A 
ATOM     48  C   LIG    1        8.203   1.703   0.525  0.00  0.00    +0.098 A 
ATOM     49 CL   LIG    1        7.760   3.259   1.184  0.00  0.00    -0.079 Cl
ATOM     50  C   LIG    1        9.313   1.601  -0.269  0.00  0.00    +0.178 A 
ATOM     51  C   LIG    1        9.726   0.391  -0.821  0.00  0.00    +0.160 A 
ATOM     52  C   LIG    1        8.968  -0.708  -0.536  0.00  0.00    +0.050 A 
ATOM     53  C   LIG    1        7.841  -0.615   0.268  0.00  0.00    +0.018 A 
BRANCH  50  54
ATOM     54  O   LIG    1       10.096   2.718  -0.568  0.00  0.00    -0.502 OA
ATOM     55  H   LIG    1        9.820   3.598  -0.180  0.00  0.00    +0.292 HD
ENDBRANCH  50  54
BRANCH  51  56
ATOM     56  O   LIG    1       10.844   0.312  -1.612  0.00  0.00    -0.503 OA
ATOM     57  H   LIG    1       11.131  -0.555  -2.003  0.00  0.00    +0.292 HD
ENDBRANCH  51  56
ENDBRANCH  45  47
ENDBRANCH  42  43
ENDBRANCH  41  42
ENDBRANCH  36  41
ENDBRANCH  35  36
ENDBRANCH   2  35
TORSDOF 17
