REMARK  Name = molecules/DBVJJBKOTRCVKF-UHFFFAOYSA-N.pdb
REMARK                            x       y       z     vdW  Elec       q    Type
REMARK                         _______ _______ _______ _____ _____    ______ ____
ROOT
ATOM      1  C   LIG    1       -0.201  -0.439   0.313  0.00  0.00    +0.264 C 
ATOM      2  C   LIG    1       -1.218  -1.396  -0.292  0.00  0.00    +0.068 C 
ENDROOT
BRANCH   1   3
ATOM      3  O   LIG    1       -0.073  -0.815   1.668  0.00  0.00    -0.367 OA
ATOM      4  H   LIG    1       -0.926  -1.177   2.001  0.00  0.00    +0.212 HD
ENDBRANCH   1   3
BRANCH   1   5
ATOM      5  P   LIG    1       -0.843   1.224   0.230  0.00  0.00    +0.371 P 
ATOM      6  O   LIG    1       -2.369   1.155   0.125  0.00  0.00    -0.255 OA
BRANCH   5   7
ATOM      7  O   LIG    1       -0.517   2.095   1.650  0.00  0.00    -0.322 OA
ATOM      8  H   LIG    1        0.439   2.345   1.683  0.00  0.00    +0.220 HD
ENDBRANCH   5   7
BRANCH   5   9
ATOM      9  O   LIG    1       -0.300   2.060  -1.119  0.00  0.00    -0.322 OA
ATOM     10  H   LIG    1       -0.981   2.070  -1.848  0.00  0.00    +0.220 HD
ENDBRANCH   5   9
ENDBRANCH   1   5
BRANCH   1  11
ATOM     11  P   LIG    1        1.407  -0.640  -0.451  0.00  0.00    +0.371 P 
ATOM     12  O   LIG    1        1.621  -2.144  -0.647  0.00  0.00    -0.255 OA
BRANCH  11  13
ATOM     13  O   LIG    1        2.608  -0.048   0.557  0.00  0.00    -0.322 OA
ATOM     14  H   LIG    1        2.649  -0.571   1.390  0.00  0.00    +0.220 HD
ENDBRANCH  11  13
BRANCH  11  15
ATOM     15  O   LIG    1        1.522   0.067  -1.966  0.00  0.00    -0.322 OA
ATOM     16  H   LIG    1        1.690   1.043  -1.875  0.00  0.00    +0.220 HD
ENDBRANCH  11  15
ENDBRANCH   1  11
TORSDOF 7
