REMARK  Name = molecules/DBZJJPROPLPMSN-UHFFFAOYSA-N.pdb
REMARK                            x       y       z     vdW  Elec       q    Type
REMARK                         _______ _______ _______ _____ _____    ______ ____
ROOT
ATOM      1  O   LIG    1        2.409  -1.191  -2.993  0.00  0.00    -0.245 OA
ATOM      2  C   LIG    1        1.768  -0.775  -1.970  0.00  0.00    +0.341 C 
ATOM      3  C   LIG    1        2.424  -0.432  -0.710  0.00  0.00    +0.067 A 
ATOM      4  C   LIG    1        1.480  -0.029   0.167  0.00  0.00    +0.019 A 
ATOM      5  C   LIG    1        1.826   0.363   1.467  0.00  0.00    +0.009 A 
ATOM      6  C   LIG    1        3.145   0.320   1.801  0.00  0.00    +0.000 A 
ATOM      7  C   LIG    1        4.139  -0.084   0.938  0.00  0.00    +0.001 A 
ATOM      8  C   LIG    1        0.166  -0.098  -0.498  0.00  0.00    +0.196 C 
ATOM      9  C   LIG    1       -0.655  -1.185   0.097  0.00  0.00    +0.050 A 
ATOM     10  C   LIG    1       -1.907  -1.005   0.569  0.00  0.00    +0.154 A 
ATOM     11  C   LIG    1       -2.647  -2.074   1.126  0.00  0.00    +0.103 A 
ATOM     12 BR   LIG    1       -4.408  -1.771   1.778  0.00  0.00    -0.043 Br
ATOM     13  C   LIG    1       -2.075  -3.313   1.185  0.00  0.00    +0.148 A 
ATOM     14  C   LIG    1       -0.796  -3.494   0.703  0.00  0.00    +0.061 A 
ATOM     15 BR   LIG    1        0.058  -5.215   0.760  0.00  0.00    -0.046 Br
ATOM     16  O   LIG    1       -2.534   0.244   0.530  0.00  0.00    -0.453 OA
ATOM     17  C   LIG    1       -1.798   1.293  -0.021  0.00  0.00    +0.154 A 
ATOM     18  C   LIG    1       -2.412   2.570  -0.072  0.00  0.00    +0.103 A 
ATOM     19 BR   LIG    1       -4.181   2.730   0.617  0.00  0.00    -0.043 Br
ATOM     20  C   LIG    1       -1.771   3.667  -0.596  0.00  0.00    +0.148 A 
ATOM     21  C   LIG    1       -0.504   3.478  -1.072  0.00  0.00    +0.061 A 
ATOM     22  C   LIG    1        0.143   2.272  -1.051  0.00  0.00    +0.031 A 
ATOM     23 BR   LIG    1        0.422   4.980  -1.809  0.00  0.00    -0.046 Br
ATOM     24  C   LIG    1       -0.075  -2.462   0.162  0.00  0.00    +0.031 A 
ATOM     25  C   LIG    1       -0.547   1.169  -0.506  0.00  0.00    +0.050 A 
ATOM     26  C   LIG    1        3.783  -0.466  -0.334  0.00  0.00    +0.015 A 
ATOM     27  O   LIG    1        0.450  -0.562  -1.793  0.00  0.00    -0.440 OA
ENDROOT
BRANCH  13  28
ATOM     28  O   LIG    1       -2.734  -4.424   1.720  0.00  0.00    -0.504 OA
ATOM     29  H   LIG    1       -3.657  -4.398   2.093  0.00  0.00    +0.292 HD
ENDBRANCH  13  28
BRANCH  20  30
ATOM     30  O   LIG    1       -2.423   4.892  -0.619  0.00  0.00    -0.504 OA
ATOM     31  H   LIG    1       -3.344   5.003  -0.267  0.00  0.00    +0.292 HD
ENDBRANCH  20  30
TORSDOF 2
