REMARK  Name = molecules/DCPACFSINCUFEC-CYBMUJFWSA-N.pdb
REMARK                            x       y       z     vdW  Elec       q    Type
REMARK                         _______ _______ _______ _____ _____    ______ ____
ROOT
ATOM      1  O   LIG    1        0.711   1.633  -2.179  0.00  0.00    -0.272 OA
ATOM      2  C   LIG    1        0.603   1.731  -0.920  0.00  0.00    +0.254 C 
ATOM      3  C   LIG    1        0.417   0.640   0.066  0.00  0.00    +0.169 C 
ATOM      4  N   LIG    1        0.616   1.331   1.317  0.00  0.00    -0.277 N 
ATOM      5  H   LIG    1        0.716   0.863   2.236  0.00  0.00    +0.152 HD
ATOM      6  C   LIG    1        0.657   2.732   1.128  0.00  0.00    +0.307 C 
ATOM      7  O   LIG    1        0.695   3.623   2.043  0.00  0.00    -0.252 OA
ATOM      8  N   LIG    1        0.649   2.987  -0.255  0.00  0.00    -0.238 N 
ATOM      9  H   LIG    1        0.673   3.940  -0.728  0.00  0.00    +0.159 HD
ENDROOT
BRANCH   3  10
ATOM     10  C   LIG    1       -0.922   0.058   0.043  0.00  0.00    -0.010 A 
ATOM     11  C   LIG    1       -1.666   0.009   1.222  0.00  0.00    +0.006 A 
ATOM     12  C   LIG    1       -2.935  -0.528   1.282  0.00  0.00    +0.000 A 
ATOM     13  C   LIG    1       -3.527  -1.045   0.158  0.00  0.00    +0.000 A 
ATOM     14  C   LIG    1       -2.802  -1.004  -1.019  0.00  0.00    +0.000 A 
ATOM     15  C   LIG    1       -1.533  -0.465  -1.069  0.00  0.00    +0.006 A 
ENDBRANCH   3  10
BRANCH   3  16
ATOM     16  C   LIG    1        1.497  -0.396  -0.068  0.00  0.00    +0.026 A 
ATOM     17  S   LIG    1        2.608  -0.862   1.141  0.00  0.00    -0.099 S 
ATOM     18  C   LIG    1        3.481  -2.043   0.269  0.00  0.00    +0.045 A 
ATOM     19  C   LIG    1        2.866  -2.034  -0.956  0.00  0.00    +0.008 A 
ATOM     20  C   LIG    1        1.845  -1.182  -1.122  0.00  0.00    +0.014 A 
ENDBRANCH   3  16
TORSDOF 2
