REMARK  Name = molecules/DCSCXTJOXBUFGB-JGVFFNPUSA-N.pdb
REMARK                            x       y       z     vdW  Elec       q    Type
REMARK                         _______ _______ _______ _____ _____    ______ ____
ROOT
ATOM      1  C   LIG    1       -2.178  -0.746  -0.816  0.00  0.00    +0.012 C 
ATOM      2  C   LIG    1       -1.039  -0.159  -0.011  0.00  0.00    -0.019 C 
ATOM      3  C   LIG    1       -1.131  -0.452   1.448  0.00  0.00    +0.012 C 
ATOM      4  C   LIG    1       -0.736   1.295  -0.324  0.00  0.00    +0.066 C 
ATOM      5  C   LIG    1        0.217   1.780   0.697  0.00  0.00    +0.160 C 
ATOM      6  O   LIG    1        0.062   2.793   1.400  0.00  0.00    -0.292 OA
ATOM      7  C   LIG    1        1.443   0.953   0.856  0.00  0.00    +0.046 C 
ATOM      8  C   LIG    1        1.438  -0.167   0.159  0.00  0.00    -0.066 C 
ATOM      9  C   LIG    1        2.578  -1.098   0.205  0.00  0.00    +0.039 C 
ATOM     10  C   LIG    1        0.037   0.766  -1.535  0.00  0.00    +0.020 C 
ATOM     11  C   LIG    1        0.277  -0.490  -0.675  0.00  0.00    +0.022 C 
ENDROOT
TORSDOF 0
