REMARK  Name = molecules/DDBREPKUVSBGFI-UHFFFAOYSA-N.pdb
REMARK                            x       y       z     vdW  Elec       q    Type
REMARK                         _______ _______ _______ _____ _____    ______ ____
ROOT
ATOM      1  C   LIG    1        0.623   0.161   0.196  0.00  0.00    +0.148 C 
ATOM      2  C   LIG    1        1.218  -0.512   1.379  0.00  0.00    +0.240 C 
ATOM      3  O   LIG    1        0.519  -0.463   2.451  0.00  0.00    -0.274 OA
ATOM      4  N   LIG    1        2.462  -1.155   1.323  0.00  0.00    -0.239 N 
ATOM      5  H   LIG    1        2.933  -1.423   2.232  0.00  0.00    +0.159 HD
ATOM      6  C   LIG    1        3.058  -1.431   0.066  0.00  0.00    +0.312 C 
ATOM      7  O   LIG    1        4.181  -2.012   0.040  0.00  0.00    -0.252 OA
ATOM      8  N   LIG    1        2.382  -1.048  -1.118  0.00  0.00    -0.239 N 
ATOM      9  H   LIG    1        2.861  -1.272  -2.039  0.00  0.00    +0.159 HD
ATOM     10  C   LIG    1        1.131  -0.401  -1.061  0.00  0.00    +0.240 C 
ATOM     11  O   LIG    1        0.461  -0.317  -2.114  0.00  0.00    -0.274 OA
ENDROOT
BRANCH   1  12
ATOM     12  C   LIG    1       -0.842  -0.121   0.248  0.00  0.00    -0.024 A 
ATOM     13  C   LIG    1       -1.788   0.804   0.617  0.00  0.00    +0.005 A 
ATOM     14  C   LIG    1       -3.108   0.433   0.629  0.00  0.00    +0.000 A 
ATOM     15  C   LIG    1       -3.510  -0.850   0.279  0.00  0.00    +0.000 A 
ATOM     16  C   LIG    1       -2.559  -1.778  -0.091  0.00  0.00    +0.000 A 
ATOM     17  C   LIG    1       -1.236  -1.399  -0.101  0.00  0.00    +0.005 A 
ENDBRANCH   1  12
BRANCH   1  19
ATOM     18  C   LIG    1        0.318   2.472  -0.738  0.00  0.00    +0.006 C 
ATOM     19  C   LIG    1        0.917   1.633   0.345  0.00  0.00    +0.027 C 
ENDBRANCH   1  19
TORSDOF 2
