REMARK  Name = molecules/DDDQVDIPBFGVIG-UHFFFAOYSA-N.pdb
REMARK                            x       y       z     vdW  Elec       q    Type
REMARK                         _______ _______ _______ _____ _____    ______ ____
ROOT
ATOM      1  C   LIG    1        0.741   0.184  -0.385  0.00  0.00    +0.264 C 
ATOM      2  N   LIG    1        0.428  -0.950   0.364  0.00  0.00    -0.237 N 
ATOM      3  H   LIG    1        1.250  -1.499   0.762  0.00  0.00    +0.159 HD
ATOM      4  C   LIG    1       -0.842  -1.452   0.656  0.00  0.00    +0.307 C 
ATOM      5  O   LIG    1       -0.979  -2.502   1.355  0.00  0.00    -0.252 OA
ATOM      6  N   LIG    1       -2.021  -0.829   0.196  0.00  0.00    -0.286 N 
ATOM      7  H   LIG    1       -2.083   0.023  -0.378  0.00  0.00    +0.151 HD
ATOM      8  O   LIG    1       -0.130   0.934  -0.919  0.00  0.00    -0.271 OA
ENDROOT
BRANCH   1   9
ATOM      9  C   LIG    1        2.184   0.569  -0.592  0.00  0.00    +0.180 C 
ATOM     10  C   LIG    1        2.401   1.923   0.032  0.00  0.00    +0.065 C 
ATOM     11  C   LIG    1        2.496   0.655  -2.067  0.00  0.00    +0.065 C 
BRANCH   9  12
ATOM     12  O   LIG    1        3.011  -0.363   0.063  0.00  0.00    -0.477 OA
BRANCH  12  13
ATOM     13  C   LIG    1        4.391  -0.290   0.063  0.00  0.00    +0.122 A 
ATOM     14  C   LIG    1        5.046   0.424   1.071  0.00  0.00    +0.047 A 
ATOM     15  C   LIG    1        6.420   0.513   1.095  0.00  0.00    +0.023 A 
ATOM     16  C   LIG    1        7.147  -0.111   0.111  0.00  0.00    +0.041 A 
ATOM     17 CL   LIG    1        8.892   0.032   0.186  0.00  0.00    -0.084 Cl
ATOM     18  C   LIG    1        6.519  -0.821  -0.894  0.00  0.00    +0.023 A 
ATOM     19  C   LIG    1        5.143  -0.909  -0.917  0.00  0.00    +0.047 A 
ENDBRANCH  12  13
ENDBRANCH   9  12
ENDBRANCH   1   9
BRANCH   6  20
ATOM     20  C   LIG    1       -3.327  -1.415   0.543  0.00  0.00    +0.193 C 
BRANCH  20  21
ATOM     21  N   LIG    1       -4.420  -0.674   0.008  0.00  0.00    -0.283 NA
ATOM     22  C   LIG    1       -5.705  -1.211   0.322  0.00  0.00    +0.114 C 
ATOM     23  C   LIG    1       -6.795  -0.330  -0.256  0.00  0.00    +0.175 C 
ATOM     24  O   LIG    1       -6.722   0.913   0.323  0.00  0.00    -0.377 OA
ATOM     25  C   LIG    1       -5.540   1.204   0.948  0.00  0.00    +0.175 C 
ATOM     26  C   LIG    1       -4.318   0.739   0.152  0.00  0.00    +0.114 C 
ENDBRANCH  20  21
ENDBRANCH   6  20
TORSDOF 5
