REMARK  Name = molecules/DDINXHAORAAYAD-UHFFFAOYSA-N.pdb
REMARK                            x       y       z     vdW  Elec       q    Type
REMARK                         _______ _______ _______ _____ _____    ______ ____
ROOT
ATOM      1  C   LIG    1        2.072   2.436   0.631  0.00  0.00    +0.122 A 
ATOM      2  C   LIG    1        2.461   3.711   0.183  0.00  0.00    +0.046 A 
ATOM      3  C   LIG    1        2.099   4.181  -1.050  0.00  0.00    +0.009 A 
ATOM      4  C   LIG    1        1.335   3.432  -1.919  0.00  0.00    -0.025 A 
ATOM      5  C   LIG    1        0.934   2.156  -1.493  0.00  0.00    +0.046 A 
ATOM      6  N   LIG    1        0.197   1.348  -2.394  0.00  0.00    -0.237 N 
ATOM      7  C   LIG    1       -0.092   1.888  -3.705  0.00  0.00    +0.223 C 
ATOM      8  C   LIG    1       -0.023   3.316  -4.014  0.00  0.00    +0.101 C 
ATOM      9  O   LIG    1       -0.414   1.040  -4.580  0.00  0.00    -0.275 OA
ATOM     10  C   LIG    1        1.008   4.038  -3.208  0.00  0.00    +0.046 C 
ATOM     11  C   LIG    1        1.309   1.701  -0.248  0.00  0.00    +0.069 A 
ENDROOT
BRANCH   6  12
ATOM     12  C   LIG    1       -0.218   0.015  -2.070  0.00  0.00    +0.349 C 
BRANCH  12  13
ATOM     13  O   LIG    1       -1.511  -0.058  -1.608  0.00  0.00    -0.445 OA
BRANCH  13  14
ATOM     14  C   LIG    1       -2.171   0.473  -0.586  0.00  0.00    +0.309 C 
ATOM     15  O   LIG    1       -1.653   1.237   0.244  0.00  0.00    -0.251 OA
BRANCH  14  16
ATOM     16  C   LIG    1       -3.655   0.203  -0.310  0.00  0.00    +0.120 C 
BRANCH  16  17
ATOM     17  C   LIG    1       -3.795  -0.759   0.797  0.00  0.00    +0.011 C 
BRANCH  17  18
ATOM     18  C   LIG    1       -5.138  -1.095   1.256  0.00  0.00    +0.001 C 
BRANCH  18  19
ATOM     19  C   LIG    1       -6.152  -1.775   0.445  0.00  0.00    +0.000 C 
BRANCH  19  20
ATOM     20  C   LIG    1       -6.612  -1.106  -0.794  0.00  0.00    +0.000 C 
BRANCH  20  21
ATOM     21  C   LIG    1       -7.743  -1.941  -1.453  0.00  0.00    +0.000 C 
BRANCH  21  22
ATOM     22  C   LIG    1       -8.895  -2.067  -0.518  0.00  0.00    -0.000 C 
BRANCH  22  23
ATOM     23  C   LIG    1       -9.470  -0.713  -0.120  0.00  0.00    -0.000 C 
BRANCH  23  24
ATOM     24  C   LIG    1      -10.635  -1.002   0.825  0.00  0.00    -0.000 C 
BRANCH  24  25
ATOM     25  C   LIG    1      -11.234   0.336   1.242  0.00  0.00    -0.003 C 
ATOM     26  C   LIG    1      -10.101   1.097   1.938  0.00  0.00    +0.004 C 
ENDBRANCH  24  25
ENDBRANCH  23  24
ENDBRANCH  22  23
ENDBRANCH  21  22
ENDBRANCH  20  21
ENDBRANCH  19  20
ENDBRANCH  18  19
ENDBRANCH  17  18
ENDBRANCH  16  17
ENDBRANCH  14  16
ENDBRANCH  13  14
ENDBRANCH  12  13
ENDBRANCH   6  12
BRANCH   1  27
ATOM     27  O   LIG    1        2.450   1.996   1.867  0.00  0.00    -0.492 OA
BRANCH  27  28
ATOM     28  C   LIG    1        2.342   0.907   2.623  0.00  0.00    +0.229 C 
BRANCH  28  29
ATOM     29  C   LIG    1        2.989  -0.384   2.471  0.00  0.00    +0.042 C 
BRANCH  29  30
ATOM     30  C   LIG    1        2.973  -1.215   1.257  0.00  0.00    +0.019 C 
BRANCH  30  31
ATOM     31  C   LIG    1        3.771  -0.688   0.109  0.00  0.00    +0.084 C 
BRANCH  31  32
ATOM     32  N   LIG    1        5.157  -0.522   0.536  0.00  0.00    -0.299 NA
ATOM     33  C   LIG    1        5.823  -1.711   0.946  0.00  0.00    +0.103 C 
ATOM     34  C   LIG    1        7.077  -1.265   1.720  0.00  0.00    +0.120 C 
ATOM     35  N   LIG    1        7.896  -0.524   0.776  0.00  0.00    -0.326 N 
ATOM     36  C   LIG    1        7.255   0.510  -0.013  0.00  0.00    +0.120 C 
ATOM     37  C   LIG    1        5.914   0.125  -0.553  0.00  0.00    +0.103 C 
BRANCH  35  38
ATOM     38  C   LIG    1        9.270  -0.834   0.664  0.00  0.00    +0.050 A 
ATOM     39  C   LIG    1       10.146  -0.705   1.721  0.00  0.00    +0.025 A 
ATOM     40  C   LIG    1       11.487  -1.008   1.602  0.00  0.00    +0.003 A 
ATOM     41  C   LIG    1       11.980  -1.455   0.399  0.00  0.00    +0.021 A 
ATOM     42  C   LIG    1       11.103  -1.583  -0.656  0.00  0.00    +0.061 A 
ATOM     43 CL   LIG    1       11.708  -2.157  -2.216  0.00  0.00    -0.082 Cl
ATOM     44  C   LIG    1        9.779  -1.279  -0.522  0.00  0.00    +0.080 A 
ATOM     45 CL   LIG    1        8.715  -1.463  -1.892  0.00  0.00    -0.080 Cl
ENDBRANCH  35  38
ENDBRANCH  31  32
ENDBRANCH  30  31
ENDBRANCH  29  30
ENDBRANCH  28  29
ENDBRANCH  27  28
ENDBRANCH   1  27
TORSDOF 20
