REMARK  Name = molecules/DDLIGBOFAVUZHB-UHFFFAOYSA-N.pdb
REMARK                            x       y       z     vdW  Elec       q    Type
REMARK                         _______ _______ _______ _____ _____    ______ ____
ROOT
ATOM      1  C   LIG    1        3.687  -1.145   1.267  0.00  0.00    +0.086 C 
ATOM      2  C   LIG    1        3.247   0.172   0.772  0.00  0.00    +0.111 A 
ATOM      3  N   LIG    1        3.810   1.389   1.048  0.00  0.00    -0.240 NA
ATOM      4  C   LIG    1        3.084   2.383   0.468  0.00  0.00    +0.136 A 
ATOM      5  C   LIG    1        2.039   1.796  -0.191  0.00  0.00    +0.065 A 
ATOM      6  C   LIG    1        0.931   2.453  -0.955  0.00  0.00    +0.197 C 
ATOM      7  N   LIG    1       -0.370   1.986  -0.470  0.00  0.00    -0.276 NA
ATOM      8  C   LIG    1       -0.844   0.768  -0.324  0.00  0.00    +0.078 C 
ATOM      9  C   LIG    1       -0.033  -0.386  -0.679  0.00  0.00    +0.026 A 
ATOM     10  C   LIG    1        1.335  -0.568  -0.508  0.00  0.00    +0.057 A 
ATOM     11  C   LIG    1        2.038  -1.678  -0.882  0.00  0.00    +0.028 A 
ATOM     12  C   LIG    1        1.276  -2.691  -1.481  0.00  0.00    +0.022 A 
ATOM     13  C   LIG    1       -0.099  -2.531  -1.666  0.00  0.00    +0.042 A 
ATOM     14 CL   LIG    1       -1.049  -3.796  -2.409  0.00  0.00    -0.084 Cl
ATOM     15  C   LIG    1       -0.767  -1.390  -1.275  0.00  0.00    +0.032 A 
ATOM     16  N   LIG    1        2.195   0.446   0.029  0.00  0.00    -0.298 N 
ENDROOT
BRANCH   8  17
ATOM     17  C   LIG    1       -2.165   0.544   0.129  0.00  0.00    +0.036 A 
ATOM     18  C   LIG    1       -2.638  -0.639   0.607  0.00  0.00    +0.013 A 
ATOM     19  C   LIG    1       -3.891  -0.788   1.177  0.00  0.00    +0.001 A 
ATOM     20  C   LIG    1       -4.730   0.275   1.290  0.00  0.00    +0.003 A 
ATOM     21  C   LIG    1       -4.287   1.507   0.817  0.00  0.00    +0.039 A 
ATOM     22  C   LIG    1       -3.049   1.640   0.256  0.00  0.00    +0.133 A 
ATOM     23  F   LIG    1       -2.653   2.845  -0.191  0.00  0.00    -0.205 F 
ENDBRANCH   8  17
TORSDOF 1
