REMARK  Name = molecules/DDNCQMVWWZOMLN-IRLDBZIGSA-N.pdb
REMARK                            x       y       z     vdW  Elec       q    Type
REMARK                         _______ _______ _______ _____ _____    ______ ____
ROOT
ATOM      1  C   LIG    1       -0.936  -1.610  -0.004  0.00  0.00    +0.012 C 
ATOM      2  C   LIG    1       -1.622  -0.368   0.388  0.00  0.00    +0.114 C 
ATOM      3  C   LIG    1       -0.724   0.790   0.427  0.00  0.00    +0.046 A 
ATOM      4  C   LIG    1       -1.214   2.012   0.727  0.00  0.00    -0.016 A 
ATOM      5  C   LIG    1       -2.674   2.115   0.985  0.00  0.00    +0.053 C 
ATOM      6  C   LIG    1       -3.317   1.301  -0.122  0.00  0.00    +0.090 C 
ATOM      7  C   LIG    1       -0.154   2.869   0.703  0.00  0.00    +0.004 A 
ATOM      8  C   LIG    1       -0.042   4.236   0.928  0.00  0.00    +0.010 A 
ATOM      9  C   LIG    1        1.178   4.869   0.837  0.00  0.00    +0.001 A 
ATOM     10  C   LIG    1        2.303   4.143   0.520  0.00  0.00    +0.002 A 
ATOM     11  C   LIG    1        2.207   2.771   0.291  0.00  0.00    +0.027 A 
ATOM     12  C   LIG    1        0.992   2.142   0.382  0.00  0.00    +0.055 A 
ATOM     13  N   LIG    1        0.582   0.850   0.219  0.00  0.00    -0.305 N 
ATOM     14  C   LIG    1        1.244  -0.344  -0.120  0.00  0.00    +0.128 C 
ATOM     15  N   LIG    1       -2.826  -0.036  -0.239  0.00  0.00    -0.293 NA
ATOM     16  C   LIG    1       -3.205  -0.599  -1.464  0.00  0.00    +0.085 C 
ATOM     17  C   LIG    1       -1.987  -1.121  -2.197  0.00  0.00    +0.016 C 
ATOM     18  C   LIG    1        0.503  -1.450  -0.210  0.00  0.00    +0.015 C 
ATOM     19  C   LIG    1       -1.460  -2.236  -1.282  0.00  0.00    +0.014 C 
ENDROOT
BRANCH   1  20
ATOM     20  C   LIG    1       -1.064  -2.724   1.050  0.00  0.00    +0.009 C 
ATOM     21  C   LIG    1       -2.482  -3.095   1.305  0.00  0.00    +0.005 C 
ENDBRANCH   1  20
BRANCH  14  22
ATOM     22  C   LIG    1        2.655  -0.431  -0.370  0.00  0.00    +0.356 C 
ATOM     23  O   LIG    1        3.481   0.440  -0.335  0.00  0.00    -0.243 OA
BRANCH  22  24
ATOM     24  O   LIG    1        3.214  -1.702  -0.712  0.00  0.00    -0.460 OA
BRANCH  24  25
ATOM     25  C   LIG    1        4.604  -1.826  -0.966  0.00  0.00    +0.229 C 
ATOM     26  C   LIG    1        5.465  -1.441   0.194  0.00  0.00    +0.048 C 
ENDBRANCH  24  25
ENDBRANCH  22  24
ENDBRANCH  14  22
TORSDOF 4
