REMARK  Name = molecules/DDOOFTLHJSMHLN-ZQHRPCGSSA-N.pdb
REMARK                            x       y       z     vdW  Elec       q    Type
REMARK                         _______ _______ _______ _____ _____    ______ ____
ROOT
ATOM      1  N   LIG    1       -0.482   0.027  -0.483  0.00  0.00    -0.300 N 
ATOM      2  C   LIG    1        0.716   0.676  -0.111  0.00  0.00    +0.246 C 
ATOM      3  O   LIG    1        0.679   1.548   0.793  0.00  0.00    -0.270 OA
ATOM      4  H   LIG    1       -0.487  -0.704  -1.238  0.00  0.00    +0.150 HD
ENDROOT
BRANCH   2   5
ATOM      5  C   LIG    1        1.996   0.381  -0.729  0.00  0.00    +0.055 A 
ATOM      6  C   LIG    1        3.096   1.204  -0.474  0.00  0.00    +0.020 A 
ATOM      7  C   LIG    1        4.309   0.943  -1.050  0.00  0.00    -0.024 A 
ATOM      8  C   LIG    1        5.638   1.654  -0.952  0.00  0.00    +0.058 C 
ATOM      9  C   LIG    1        6.590   0.515  -1.255  0.00  0.00    +0.085 C 
ATOM     10  C   LIG    1        6.808  -0.360  -0.102  0.00  0.00    +0.008 A 
ATOM     11  C   LIG    1        5.885  -1.073   0.661  0.00  0.00    +0.009 A 
ATOM     12  C   LIG    1        6.324  -1.834   1.709  0.00  0.00    +0.020 A 
ATOM     13  C   LIG    1        7.684  -1.852   1.956  0.00  0.00    +0.113 A 
ATOM     14  N   LIG    1        8.562  -1.164   1.218  0.00  0.00    -0.240 NA
ATOM     15  C   LIG    1        8.150  -0.402   0.173  0.00  0.00    +0.129 A 
ATOM     16  N   LIG    1        8.863   0.418  -0.762  0.00  0.00    -0.269 N 
ATOM     17  H   LIG    1        9.907   0.533  -0.739  0.00  0.00    +0.156 HD
ATOM     18  C   LIG    1        7.913   0.985  -1.647  0.00  0.00    +0.230 C 
ATOM     19  O   LIG    1        8.244   1.763  -2.596  0.00  0.00    -0.274 OA
ATOM     20  C   LIG    1        5.856  -0.198  -2.372  0.00  0.00    +0.077 C 
ATOM     21  C   LIG    1        4.452  -0.141  -1.889  0.00  0.00    +0.046 A 
ATOM     22  N   LIG    1        3.377  -0.905  -2.108  0.00  0.00    -0.259 NA
ATOM     23  C   LIG    1        2.160  -0.694  -1.568  0.00  0.00    +0.124 A 
ENDBRANCH   2   5
BRANCH   1  31
ATOM     24  C   LIG    1       -2.387  -0.834   0.790  0.00  0.00    +0.236 C 
ATOM     25  N   LIG    1       -3.568  -0.527   1.573  0.00  0.00    -0.288 N 
ATOM     26  C   LIG    1       -4.114   0.777   1.355  0.00  0.00    +0.081 C 
ATOM     27  C   LIG    1       -5.478   1.008   1.925  0.00  0.00    +0.028 C 
ATOM     28  C   LIG    1       -4.038   1.238  -0.099  0.00  0.00    +0.041 C 
ATOM     29  C   LIG    1       -2.759   0.917  -0.782  0.00  0.00    +0.041 C 
ATOM     30  O   LIG    1       -1.981  -1.993   0.654  0.00  0.00    -0.274 OA
ATOM     31  C   LIG    1       -1.724   0.369   0.177  0.00  0.00    +0.160 C 
BRANCH  28  32
ATOM     32  C   LIG    1       -5.237   0.850  -0.879  0.00  0.00    -0.042 A 
ATOM     33  C   LIG    1       -6.183   1.788  -1.232  0.00  0.00    +0.004 A 
ATOM     34  C   LIG    1       -7.323   1.468  -1.971  0.00  0.00    +0.000 A 
ATOM     35  C   LIG    1       -7.528   0.161  -2.375  0.00  0.00    +0.000 A 
ATOM     36  C   LIG    1       -6.599  -0.801  -2.037  0.00  0.00    +0.000 A 
ATOM     37  C   LIG    1       -5.476  -0.449  -1.301  0.00  0.00    +0.004 A 
ENDBRANCH  28  32
BRANCH  25  38
ATOM     38  C   LIG    1       -4.038  -1.537   2.467  0.00  0.00    +0.221 C 
BRANCH  38  39
ATOM     39  C   LIG    1       -5.040  -2.493   1.864  0.00  0.00    +0.405 C 
ATOM     40  F   LIG    1       -5.422  -3.455   2.808  0.00  0.00    -0.169 F 
ATOM     41  F   LIG    1       -6.186  -1.849   1.461  0.00  0.00    -0.169 F 
ATOM     42  F   LIG    1       -4.522  -3.168   0.785  0.00  0.00    -0.169 F 
ENDBRANCH  38  39
ENDBRANCH  25  38
ENDBRANCH   1  31
TORSDOF 5
