REMARK  Name = molecules/DDVUMDPCZWBYRA-KRWDZBQOSA-N.pdb
REMARK                            x       y       z     vdW  Elec       q    Type
REMARK                         _______ _______ _______ _____ _____    ______ ____
ROOT
ATOM      1  C   LIG    1        2.447  -0.606   0.178  0.00  0.00    +0.315 C 
ATOM      2  O   LIG    1        2.332   0.405   0.920  0.00  0.00    -0.250 OA
ENDROOT
BRANCH   1   3
ATOM      3  C   LIG    1        3.766  -1.231  -0.143  0.00  0.00    +0.127 C 
BRANCH   3   4
ATOM      4  C   LIG    1        4.903  -0.537   0.493  0.00  0.00    -0.034 A 
ATOM      5  C   LIG    1        5.538  -1.066   1.628  0.00  0.00    +0.004 A 
ATOM      6  C   LIG    1        6.601  -0.432   2.241  0.00  0.00    +0.000 A 
ATOM      7  C   LIG    1        7.086   0.746   1.768  0.00  0.00    +0.000 A 
ATOM      8  C   LIG    1        6.496   1.303   0.659  0.00  0.00    +0.000 A 
ATOM      9  C   LIG    1        5.427   0.656   0.050  0.00  0.00    +0.004 A 
ENDBRANCH   3   4
BRANCH   3  10
ATOM     10  C   LIG    1        3.927  -1.566  -1.581  0.00  0.00    +0.016 C 
ATOM     11  C   LIG    1        3.826  -0.448  -2.552  0.00  0.00    +0.005 C 
ENDBRANCH   3  10
ENDBRANCH   1   3
BRANCH   1  12
ATOM     12  O   LIG    1        1.262  -1.119  -0.336  0.00  0.00    -0.462 OA
BRANCH  12  13
ATOM     13  C   LIG    1       -0.007  -0.502  -0.012  0.00  0.00    +0.260 C 
BRANCH  13  14
ATOM     14  C   LIG    1       -1.037  -1.316  -0.740  0.00  0.00    +0.201 C 
BRANCH  14  15
ATOM     15  O   LIG    1       -2.340  -0.922  -0.575  0.00  0.00    -0.375 OA
BRANCH  15  16
ATOM     16  C   LIG    1       -2.535   0.373  -0.999  0.00  0.00    +0.175 C 
BRANCH  16  17
ATOM     17  C   LIG    1       -3.940   0.872  -0.888  0.00  0.00    +0.112 C 
BRANCH  17  18
ATOM     18  N   LIG    1       -4.471   0.873   0.431  0.00  0.00    -0.301 NA
BRANCH  18  19
ATOM     19  C   LIG    1       -4.741  -0.376   1.038  0.00  0.00    +0.081 C 
ATOM     20  C   LIG    1       -5.324  -0.204   2.442  0.00  0.00    +0.020 C 
ENDBRANCH  18  19
BRANCH  18  21
ATOM     21  C   LIG    1       -5.464   1.892   0.598  0.00  0.00    +0.081 C 
ATOM     22  C   LIG    1       -6.721   1.598  -0.214  0.00  0.00    +0.020 C 
ENDBRANCH  18  21
ENDBRANCH  17  18
ENDBRANCH  16  17
ENDBRANCH  15  16
ENDBRANCH  14  15
ENDBRANCH  13  14
ENDBRANCH  12  13
ENDBRANCH   1  12
TORSDOF 12
