REMARK  Name = molecules/DEFOZIFYUBUHHU-IYQKUMFPSA-N.pdb
REMARK                            x       y       z     vdW  Elec       q    Type
REMARK                         _______ _______ _______ _____ _____    ______ ____
ROOT
ATOM      1  C   LIG    1        1.040   1.411  -1.115  0.00  0.00    +0.015 C 
ATOM      2  C   LIG    1        0.786   0.366  -0.093  0.00  0.00    +0.014 C 
ATOM      3  C   LIG    1       -0.187   0.794   0.983  0.00  0.00    +0.009 C 
ATOM      4  C   LIG    1        0.483   1.958   1.592  0.00  0.00    +0.038 C 
ATOM      5  C   LIG    1        1.935   1.529   1.560  0.00  0.00    -0.037 C 
ATOM      6  C   LIG    1        2.890   2.228   2.152  0.00  0.00    +0.011 C 
ATOM      7  C   LIG    1       -1.531   0.979   0.400  0.00  0.00    +0.034 C 
ATOM      8  C   LIG    1       -2.435   1.582   1.423  0.00  0.00    +0.011 C 
ATOM      9  C   LIG    1       -3.791   1.822   0.734  0.00  0.00    +0.032 C 
ATOM     10  C   LIG    1       -4.261   0.413   0.424  0.00  0.00    -0.053 C 
ATOM     11  C   LIG    1       -5.323  -0.005   1.038  0.00  0.00    +0.051 C 
ATOM     12  C   LIG    1       -5.781  -1.361   0.788  0.00  0.00    +0.179 C 
ATOM     13  O   LIG    1       -6.825  -1.799   1.379  0.00  0.00    -0.288 OA
ATOM     14  C   LIG    1       -5.037  -2.191  -0.133  0.00  0.00    +0.047 C 
ATOM     15  C   LIG    1       -3.964  -1.712  -0.729  0.00  0.00    -0.009 C 
ATOM     16  C   LIG    1       -3.430  -0.348  -0.537  0.00  0.00    +0.044 C 
ATOM     17  C   LIG    1       -3.518   0.389  -1.856  0.00  0.00    +0.023 C 
ATOM     18  C   LIG    1       -2.019  -0.408  -0.008  0.00  0.00    +0.153 C 
ATOM     19  F   LIG    1       -2.092  -1.134   1.190  0.00  0.00    -0.238 F 
ATOM     20  C   LIG    1       -1.083  -1.119  -0.904  0.00  0.00    +0.154 C 
ATOM     21  C   LIG    1        2.042   0.262   0.787  0.00  0.00    +0.153 C 
ATOM     22  C   LIG    1        0.360  -0.947  -0.620  0.00  0.00    +0.045 C 
ENDROOT
BRANCH  20  23
ATOM     23  O   LIG    1       -1.285  -0.836  -2.272  0.00  0.00    -0.389 OA
ATOM     24  H   LIG    1       -0.796  -1.515  -2.787  0.00  0.00    +0.210 HD
ENDBRANCH  20  23
BRANCH  21  25
ATOM     25  O   LIG    1        1.880  -0.858   1.602  0.00  0.00    -0.376 OA
ATOM     26  H   LIG    1        2.380  -1.610   1.247  0.00  0.00    +0.211 HD
ENDBRANCH  21  25
BRANCH  21  27
ATOM     27  C   LIG    1        3.292   0.252   0.037  0.00  0.00    +0.206 C 
ATOM     28  O   LIG    1        3.591   1.176  -0.688  0.00  0.00    -0.290 OA
BRANCH  27  29
ATOM     29  C   LIG    1        4.218  -0.884   0.144  0.00  0.00    +0.309 C 
BRANCH  29  30
ATOM     30  O   LIG    1        5.384  -0.693  -0.672  0.00  0.00    -0.457 OA
BRANCH  30  31
ATOM     31  C   LIG    1        6.324  -1.714  -0.638  0.00  0.00    +0.304 C 
ATOM     32  O   LIG    1        6.135  -2.740   0.079  0.00  0.00    -0.251 OA
ATOM     33  C   LIG    1        7.580  -1.674  -1.420  0.00  0.00    +0.136 C 
ENDBRANCH  30  31
ENDBRANCH  29  30
ENDBRANCH  27  29
ENDBRANCH  21  27
TORSDOF 6
