REMARK  Name = molecules/DEGAKNSWVGKMLS-UHFFFAOYSA-N.pdb
REMARK                            x       y       z     vdW  Elec       q    Type
REMARK                         _______ _______ _______ _____ _____    ______ ____
ROOT
ATOM      1  O   LIG    1        1.507  -2.760  -2.802  0.00  0.00    -0.245 OA
ATOM      2  C   LIG    1        0.928  -2.174  -1.848  0.00  0.00    +0.341 C 
ATOM      3  C   LIG    1        0.497  -2.840  -0.637  0.00  0.00    +0.067 A 
ATOM      4  C   LIG    1       -0.091  -1.925   0.230  0.00  0.00    +0.019 A 
ATOM      5  C   LIG    1       -0.714  -2.355   1.380  0.00  0.00    +0.009 A 
ATOM      6  C   LIG    1       -0.773  -3.718   1.718  0.00  0.00    +0.000 A 
ATOM      7  C   LIG    1       -0.183  -4.643   0.871  0.00  0.00    +0.001 A 
ATOM      8  C   LIG    1        0.199  -0.567  -0.338  0.00  0.00    +0.196 C 
ATOM      9  C   LIG    1        1.364   0.116   0.304  0.00  0.00    +0.048 A 
ATOM     10  C   LIG    1        1.280   1.287   0.979  0.00  0.00    +0.140 A 
ATOM     11  C   LIG    1        2.381   1.882   1.600  0.00  0.00    +0.092 A 
ATOM     12  C   LIG    1        3.613   1.307   1.542  0.00  0.00    +0.125 A 
ATOM     13  C   LIG    1        3.732   0.089   0.827  0.00  0.00    +0.009 A 
ATOM     14  O   LIG    1        0.079   1.952   1.059  0.00  0.00    -0.455 OA
ATOM     15  C   LIG    1       -1.050   1.458   0.488  0.00  0.00    +0.140 A 
ATOM     16  C   LIG    1       -2.171   2.254   0.630  0.00  0.00    +0.092 A 
ATOM     17  C   LIG    1       -3.333   1.826   0.088  0.00  0.00    +0.125 A 
ATOM     18  C   LIG    1       -3.403   0.596  -0.599  0.00  0.00    +0.009 A 
ATOM     19  C   LIG    1       -2.252  -0.149  -0.708  0.00  0.00    +0.020 A 
ATOM     20  C   LIG    1        2.640  -0.462   0.247  0.00  0.00    +0.020 A 
ATOM     21  C   LIG    1       -1.025   0.230  -0.186  0.00  0.00    +0.048 A 
ATOM     22  C   LIG    1        0.431  -4.196  -0.271  0.00  0.00    +0.015 A 
ATOM     23  O   LIG    1        0.566  -0.834  -1.694  0.00  0.00    -0.440 OA
ENDROOT
BRANCH  17  24
ATOM     24  O   LIG    1       -4.499   2.598   0.201  0.00  0.00    -0.506 OA
ATOM     25  H   LIG    1       -4.490   3.463   0.701  0.00  0.00    +0.292 HD
ENDBRANCH  17  24
BRANCH  12  26
ATOM     26  O   LIG    1        4.723   1.893   2.167  0.00  0.00    -0.506 OA
ATOM     27  H   LIG    1        4.674   2.781   2.618  0.00  0.00    +0.292 HD
ENDBRANCH  12  26
BRANCH  18  28
ATOM     28  C   LIG    1       -4.720   0.282  -1.182  0.00  0.00    +0.124 C 
BRANCH  28  29
ATOM     29  N   LIG    1       -5.813   0.838  -0.336  0.00  0.00    -0.278 NA
BRANCH  29  30
ATOM     30  C   LIG    1       -5.966  -0.018   0.841  0.00  0.00    +0.206 C 
BRANCH  30  31
ATOM     31  C   LIG    1       -7.189   0.197   1.601  0.00  0.00    +0.319 C 
ATOM     32  O   LIG    1       -7.594   1.279   2.003  0.00  0.00    -0.250 OA
BRANCH  31  33
ATOM     33  O   LIG    1       -7.958  -0.955   1.878  0.00  0.00    -0.480 OA
ATOM     34  H   LIG    1       -8.453  -1.418   1.107  0.00  0.00    +0.295 HD
ENDBRANCH  31  33
ENDBRANCH  30  31
ENDBRANCH  29  30
BRANCH  29  35
ATOM     35  C   LIG    1       -7.040   0.817  -1.124  0.00  0.00    +0.206 C 
BRANCH  35  36
ATOM     36  C   LIG    1       -7.663   2.185  -1.124  0.00  0.00    +0.319 C 
ATOM     37  O   LIG    1       -7.315   3.100  -0.333  0.00  0.00    -0.250 OA
BRANCH  36  38
ATOM     38  O   LIG    1       -8.679   2.533  -2.026  0.00  0.00    -0.480 OA
ATOM     39  H   LIG    1       -8.831   3.533  -2.180  0.00  0.00    +0.295 HD
ENDBRANCH  36  38
ENDBRANCH  35  36
ENDBRANCH  29  35
ENDBRANCH  28  29
ENDBRANCH  18  28
BRANCH  13  40
ATOM     40  C   LIG    1        5.122  -0.371   0.818  0.00  0.00    +0.124 C 
BRANCH  40  41
ATOM     41  N   LIG    1        5.755  -0.510  -0.473  0.00  0.00    -0.278 NA
BRANCH  41  42
ATOM     42  C   LIG    1        5.571   0.597  -1.316  0.00  0.00    +0.206 C 
BRANCH  42  43
ATOM     43  C   LIG    1        6.104   1.883  -0.886  0.00  0.00    +0.319 C 
ATOM     44  O   LIG    1        6.767   2.207   0.101  0.00  0.00    -0.250 OA
BRANCH  43  45
ATOM     45  O   LIG    1        5.826   2.993  -1.749  0.00  0.00    -0.480 OA
ATOM     46  H   LIG    1        6.591   3.178  -2.383  0.00  0.00    +0.295 HD
ENDBRANCH  43  45
ENDBRANCH  42  43
ENDBRANCH  41  42
BRANCH  41  47
ATOM     47  C   LIG    1        6.926  -1.274  -0.533  0.00  0.00    +0.206 C 
BRANCH  47  48
ATOM     48  C   LIG    1        8.129  -0.792   0.182  0.00  0.00    +0.319 C 
ATOM     49  O   LIG    1        8.539  -1.553   1.142  0.00  0.00    -0.250 OA
BRANCH  48  50
ATOM     50  O   LIG    1        8.862   0.333  -0.028  0.00  0.00    -0.480 OA
ATOM     51  H   LIG    1        9.262   0.832   0.807  0.00  0.00    +0.295 HD
ENDBRANCH  48  50
ENDBRANCH  47  48
ENDBRANCH  41  47
ENDBRANCH  40  41
ENDBRANCH  13  40
TORSDOF 18
