REMARK  Name = molecules/DEQITUUQPICUMR-HJPBWRTMSA-N.pdb
REMARK                            x       y       z     vdW  Elec       q    Type
REMARK                         _______ _______ _______ _____ _____    ______ ____
ROOT
ATOM      1  C   LIG    1       -2.717  -1.589  -0.069  0.00  0.00    +0.269 C 
ATOM      2  O   LIG    1       -1.548  -1.789   0.592  0.00  0.00    -0.298 OA
ATOM      3  C   LIG    1       -1.352  -0.753   1.532  0.00  0.00    +0.220 C 
ATOM      4  C   LIG    1       -2.295   0.299   1.095  0.00  0.00    +0.271 C 
ATOM      5  O   LIG    1       -2.176   1.531   1.306  0.00  0.00    -0.270 OA
ATOM      6  N   LIG    1       -3.334  -0.378   0.404  0.00  0.00    -0.233 N 
ATOM      7  C   LIG    1       -4.738  -0.061   0.147  0.00  0.00    +0.171 C 
ATOM      8  C   LIG    1       -5.549  -1.294   0.216  0.00  0.00    +0.237 C 
ATOM      9  O   LIG    1       -6.699  -1.256   0.673  0.00  0.00    -0.274 OA
ATOM     10  N   LIG    1       -4.996  -2.500  -0.244  0.00  0.00    -0.290 N 
ATOM     11  C   LIG    1       -5.550  -3.623  -0.966  0.00  0.00    +0.108 C 
ATOM     12  C   LIG    1       -4.458  -3.839  -2.028  0.00  0.00    +0.021 C 
ATOM     13  C   LIG    1       -3.213  -3.734  -1.145  0.00  0.00    +0.031 C 
ATOM     14  C   LIG    1       -3.607  -2.805  -0.018  0.00  0.00    +0.156 C 
ENDROOT
BRANCH   3  15
ATOM     15  N   LIG    1        0.027  -0.396   1.446  0.00  0.00    -0.280 N 
ATOM     16  C   LIG    1        0.716   0.670   2.026  0.00  0.00    +0.220 C 
ATOM     17  O   LIG    1        0.122   1.498   2.746  0.00  0.00    -0.275 OA
ATOM     18  H   LIG    1        0.648  -1.035   0.850  0.00  0.00    +0.152 HD
BRANCH  16  19
ATOM     19  C   LIG    1        2.171   0.846   1.802  0.00  0.00    +0.090 C 
ATOM     20  C   LIG    1        2.950  -0.374   2.270  0.00  0.00    +0.097 C 
ATOM     21  N   LIG    1        4.339   0.006   2.305  0.00  0.00    -0.301 NA
ATOM     22  C   LIG    1        4.594   1.087   3.201  0.00  0.00    +0.105 C 
ATOM     23  C   LIG    1        4.784   0.224   0.961  0.00  0.00    +0.068 C 
ATOM     24  C   LIG    1        6.236   0.634   0.886  0.00  0.00    +0.056 C 
ATOM     25  C   LIG    1        6.667   0.567  -0.520  0.00  0.00    -0.021 A 
ATOM     26  C   LIG    1        7.822   0.279  -1.233  0.00  0.00    +0.087 A 
ATOM     27  N   LIG    1        7.531   0.404  -2.555  0.00  0.00    -0.360 N 
ATOM     28  C   LIG    1        6.259   0.754  -2.731  0.00  0.00    +0.047 A 
ATOM     29  C   LIG    1        5.417   1.019  -3.803  0.00  0.00    +0.026 A 
ATOM     30  C   LIG    1        4.093   1.368  -3.564  0.00  0.00    +0.002 A 
ATOM     31  C   LIG    1        3.586   1.460  -2.271  0.00  0.00    +0.004 A 
ATOM     32  C   LIG    1        4.424   1.197  -1.208  0.00  0.00    -0.033 A 
ATOM     33  H   LIG    1        8.219   0.245  -3.330  0.00  0.00    +0.165 HD
ATOM     34  C   LIG    1        5.713   0.858  -1.475  0.00  0.00    +0.006 A 
ATOM     35  C   LIG    1        3.974   1.266   0.227  0.00  0.00    +0.038 C 
ATOM     36  C   LIG    1        2.491   1.014   0.332  0.00  0.00    +0.023 C 
ENDBRANCH  16  19
ENDBRANCH   3  15
BRANCH   3  37
ATOM     37  C   LIG    1       -1.841  -1.302   2.823  0.00  0.00    +0.043 C 
ATOM     38  C   LIG    1       -1.767  -0.399   4.011  0.00  0.00    +0.012 C 
ATOM     39  C   LIG    1       -1.233  -2.676   3.133  0.00  0.00    +0.012 C 
ENDBRANCH   3  37
BRANCH   1  40
ATOM     40  O   LIG    1       -2.423  -1.395  -1.439  0.00  0.00    -0.348 OA
ATOM     41  H   LIG    1       -1.455  -1.350  -1.573  0.00  0.00    +0.214 HD
ENDBRANCH   1  40
BRANCH   7  42
ATOM     42  C   LIG    1       -4.947   0.671  -1.155  0.00  0.00    +0.067 C 
BRANCH  42  43
ATOM     43  C   LIG    1       -4.237   1.968  -1.232  0.00  0.00    -0.045 A 
ATOM     44  C   LIG    1       -4.884   3.116  -0.756  0.00  0.00    +0.004 A 
ATOM     45  C   LIG    1       -4.254   4.340  -0.825  0.00  0.00    +0.000 A 
ATOM     46  C   LIG    1       -2.973   4.480  -1.359  0.00  0.00    +0.000 A 
ATOM     47  C   LIG    1       -2.361   3.338  -1.818  0.00  0.00    +0.000 A 
ATOM     48  C   LIG    1       -2.989   2.113  -1.751  0.00  0.00    +0.004 A 
ENDBRANCH  42  43
ENDBRANCH   7  42
TORSDOF 6
