REMARK  Name = molecules/DERZBLKQOCDDDZ-JLHYYAGUSA-N.pdb
REMARK                            x       y       z     vdW  Elec       q    Type
REMARK                         _______ _______ _______ _____ _____    ______ ____
ROOT
ATOM      1  N   LIG    1       -1.462  -0.136  -0.168  0.00  0.00    -0.289 NA
ATOM      2  C   LIG    1       -0.529   0.223   0.824  0.00  0.00    +0.100 C 
ATOM      3  C   LIG    1        0.800   0.720   0.361  0.00  0.00    +0.100 C 
ATOM      4  N   LIG    1        1.288   0.133  -0.822  0.00  0.00    -0.296 NA
ATOM      5  C   LIG    1        0.320   0.097  -1.844  0.00  0.00    +0.100 C 
ATOM      6  C   LIG    1       -1.021  -0.438  -1.465  0.00  0.00    +0.100 C 
ENDROOT
BRANCH   1   7
ATOM      7  C   LIG    1       -2.699   0.540  -0.008  0.00  0.00    +0.117 C 
BRANCH   7   8
ATOM      8  C   LIG    1       -3.276   0.153   1.325  0.00  0.00    -0.026 A 
ATOM      9  C   LIG    1       -3.852   1.139   2.102  0.00  0.00    +0.005 A 
ATOM     10  C   LIG    1       -4.396   0.843   3.312  0.00  0.00    +0.000 A 
ATOM     11  C   LIG    1       -4.383  -0.449   3.788  0.00  0.00    +0.000 A 
ATOM     12  C   LIG    1       -3.801  -1.458   3.010  0.00  0.00    +0.000 A 
ATOM     13  C   LIG    1       -3.255  -1.125   1.781  0.00  0.00    +0.005 A 
ENDBRANCH   7   8
BRANCH   7  14
ATOM     14  C   LIG    1       -3.708   0.195  -1.035  0.00  0.00    -0.026 A 
ATOM     15  C   LIG    1       -3.924  -1.078  -1.513  0.00  0.00    +0.005 A 
ATOM     16  C   LIG    1       -4.880  -1.349  -2.483  0.00  0.00    +0.000 A 
ATOM     17  C   LIG    1       -5.642  -0.314  -2.989  0.00  0.00    +0.000 A 
ATOM     18  C   LIG    1       -5.446   0.969  -2.529  0.00  0.00    +0.000 A 
ATOM     19  C   LIG    1       -4.481   1.201  -1.559  0.00  0.00    +0.005 A 
ENDBRANCH   7  14
ENDBRANCH   1   7
BRANCH   4  20
ATOM     20  C   LIG    1        2.190  -0.952  -0.703  0.00  0.00    +0.111 C 
BRANCH  20  21
ATOM     21  C   LIG    1        3.498  -0.439  -0.142  0.00  0.00    -0.011 C 
ATOM     22  C   LIG    1        4.611  -0.553  -0.812  0.00  0.00    +0.005 C 
BRANCH  22  23
ATOM     23  C   LIG    1        5.874  -0.068  -0.291  0.00  0.00    -0.025 A 
ATOM     24  C   LIG    1        6.029   0.530   0.913  0.00  0.00    +0.008 A 
ATOM     25  C   LIG    1        7.269   0.977   1.353  0.00  0.00    +0.001 A 
ATOM     26  C   LIG    1        8.361   0.807   0.542  0.00  0.00    +0.000 A 
ATOM     27  C   LIG    1        8.257   0.201  -0.701  0.00  0.00    +0.001 A 
ATOM     28  C   LIG    1        7.009  -0.224  -1.090  0.00  0.00    +0.008 A 
ENDBRANCH  22  23
ENDBRANCH  20  21
ENDBRANCH   4  20
TORSDOF 6
