REMARK  Name = molecules/DEVSOMFAQLZNKR-RJRFIUFISA-N.pdb
REMARK                            x       y       z     vdW  Elec       q    Type
REMARK                         _______ _______ _______ _____ _____    ______ ____
ROOT
ATOM      1  C   LIG    1       -1.746   0.710   0.310  0.00  0.00    +0.182 A 
ATOM      2  N   LIG    1       -0.790   0.491   1.268  0.00  0.00    -0.214 NA
ATOM      3  C   LIG    1        0.391   0.991   0.814  0.00  0.00    +0.225 A 
ATOM      4  N   LIG    1        0.199   1.506  -0.393  0.00  0.00    -0.227 N 
ATOM      5  N   LIG    1       -1.105   1.329  -0.690  0.00  0.00    -0.145 NA
ENDROOT
BRANCH   1  10
ATOM      6  C   LIG    1       -4.975  -0.834  -0.787  0.00  0.00    +0.056 A 
ATOM      7  C   LIG    1       -5.688  -0.847   0.419  0.00  0.00    +0.024 A 
ATOM      8  C   LIG    1       -5.144  -0.337   1.563  0.00  0.00    +0.056 A 
ATOM      9  C   LIG    1       -3.893   0.184   1.514  0.00  0.00    +0.024 A 
ATOM     10  C   LIG    1       -3.115   0.237   0.364  0.00  0.00    +0.022 A 
ATOM     11  C   LIG    1       -3.701  -0.282  -0.772  0.00  0.00    +0.024 A 
BRANCH   8  12
ATOM     12  C   LIG    1       -5.982  -0.327   2.831  0.00  0.00    +0.417 C 
ATOM     13  F   LIG    1       -5.138  -0.807   3.832  0.00  0.00    -0.166 F 
ATOM     14  F   LIG    1       -6.293   0.996   3.044  0.00  0.00    -0.166 F 
ATOM     15  F   LIG    1       -7.101  -1.118   2.639  0.00  0.00    -0.166 F 
ENDBRANCH   8  12
BRANCH   6  16
ATOM     16  C   LIG    1       -5.611  -1.459  -1.951  0.00  0.00    +0.417 C 
ATOM     17  F   LIG    1       -6.649  -2.288  -1.544  0.00  0.00    -0.166 F 
ATOM     18  F   LIG    1       -4.660  -2.271  -2.583  0.00  0.00    -0.166 F 
ATOM     19  F   LIG    1       -6.079  -0.507  -2.819  0.00  0.00    -0.166 F 
ENDBRANCH   6  16
ENDBRANCH   1  10
BRANCH   4  20
ATOM     20  C   LIG    1        1.073   2.347  -1.107  0.00  0.00    +0.119 C 
ATOM     21  C   LIG    1        2.268   2.100  -1.427  0.00  0.00    +0.088 C 
BRANCH  21  22
ATOM     22  C   LIG    1        3.061   0.944  -1.191  0.00  0.00    +0.254 C 
ATOM     23  N   LIG    1        2.930  -0.307  -0.587  0.00  0.00    -0.232 N 
ATOM     24  H   LIG    1        2.162  -0.708  -0.114  0.00  0.00    +0.173 HD
ATOM     25  O   LIG    1        4.279   1.146  -1.722  0.00  0.00    -0.269 OA
BRANCH  23  26
ATOM     26  N   LIG    1        4.107  -1.138  -0.667  0.00  0.00    -0.247 N 
ATOM     27  H   LIG    1        3.943  -2.084  -1.036  0.00  0.00    +0.172 HD
BRANCH  26  28
ATOM     28  C   LIG    1        5.372  -0.686  -0.262  0.00  0.00    +0.153 A 
ATOM     29  N   LIG    1        5.568   0.391   0.465  0.00  0.00    -0.236 NA
ATOM     30  C   LIG    1        6.769   0.796   0.864  0.00  0.00    +0.132 A 
ATOM     31  C   LIG    1        7.852   0.056   0.503  0.00  0.00    +0.130 A 
ATOM     32  N   LIG    1        7.693  -1.057  -0.243  0.00  0.00    -0.258 NA
ATOM     33  C   LIG    1        6.473  -1.422  -0.623  0.00  0.00    +0.155 A 
ENDBRANCH  26  28
ENDBRANCH  23  26
ENDBRANCH  21  22
ENDBRANCH   4  20
TORSDOF 7
