REMARK  Name = molecules/DFPJEJKMDZFZHC-GHVJWSGMSA-N.pdb
REMARK                            x       y       z     vdW  Elec       q    Type
REMARK                         _______ _______ _______ _____ _____    ______ ____
ROOT
ATOM      1  C   LIG    1       -1.387  -0.029   2.334  0.00  0.00    +0.109 A 
ATOM      2  C   LIG    1       -0.395  -0.978   2.436  0.00  0.00    +0.031 A 
ATOM      3  C   LIG    1        0.767  -0.909   1.682  0.00  0.00    +0.031 A 
ATOM      4  C   LIG    1        0.918   0.140   0.814  0.00  0.00    +0.086 A 
ATOM      5  C   LIG    1       -0.054   1.119   0.677  0.00  0.00    +0.031 A 
ATOM      6  C   LIG    1       -1.194   1.006   1.450  0.00  0.00    +0.031 A 
ENDROOT
BRANCH   1   7
ATOM      7  S   LIG    1       -2.832  -0.104   3.278  0.00  0.00    +0.075 S 
ATOM      8  O   LIG    1       -2.556  -0.509   4.706  0.00  0.00    -0.150 OA
ATOM      9  O   LIG    1       -3.422   1.298   3.352  0.00  0.00    -0.150 OA
BRANCH   7  10
ATOM     10  N   LIG    1       -4.059  -1.099   2.593  0.00  0.00    -0.184 N 
ATOM     11  H   LIG    1       -4.431  -1.951   3.076  0.00  0.00    +0.177 HD
BRANCH  10  12
ATOM     12  C   LIG    1       -4.584  -0.744   1.319  0.00  0.00    +0.235 A 
ATOM     13  N   LIG    1       -5.555  -1.493   0.726  0.00  0.00    -0.219 NA
ATOM     14  C   LIG    1       -6.097  -1.232  -0.455  0.00  0.00    +0.044 A 
ATOM     15  C   LIG    1       -7.152  -2.052  -1.091  0.00  0.00    +0.066 C 
ATOM     16  C   LIG    1       -5.647  -0.109  -1.153  0.00  0.00    +0.046 A 
ATOM     17  C   LIG    1       -4.670   0.657  -0.572  0.00  0.00    +0.044 A 
ATOM     18  C   LIG    1       -4.171   1.850  -1.282  0.00  0.00    +0.066 C 
ATOM     19  N   LIG    1       -4.172   0.329   0.624  0.00  0.00    -0.219 NA
ENDBRANCH  10  12
ENDBRANCH   7  10
ENDBRANCH   1   7
BRANCH   4  20
ATOM     20  N   LIG    1        2.083   0.281   0.005  0.00  0.00    -0.149 NA
ATOM     21  N   LIG    1        3.187  -0.203   0.454  0.00  0.00    -0.149 NA
BRANCH  21  22
ATOM     22  C   LIG    1        4.319  -0.046  -0.374  0.00  0.00    +0.087 A 
ATOM     23  C   LIG    1        5.535   0.352   0.131  0.00  0.00    +0.048 A 
ATOM     24  C   LIG    1        6.635   0.501  -0.696  0.00  0.00    +0.102 A 
ATOM     25  C   LIG    1        6.516   0.251  -2.033  0.00  0.00    +0.131 A 
ATOM     26  C   LIG    1        5.310  -0.150  -2.574  0.00  0.00    +0.048 A 
ATOM     27  C   LIG    1        4.211  -0.294  -1.716  0.00  0.00    +0.033 A 
BRANCH  24  28
ATOM     28  C   LIG    1        7.898   0.925  -0.109  0.00  0.00    +0.340 C 
ATOM     29  O   LIG    1        8.002   1.154   1.123  0.00  0.00    -0.245 OA
BRANCH  28  30
ATOM     30  O   LIG    1        9.001   1.075  -0.936  0.00  0.00    -0.477 OA
ATOM     31  H   LIG    1        9.904   0.867  -0.534  0.00  0.00    +0.295 HD
ENDBRANCH  28  30
ENDBRANCH  24  28
BRANCH  25  32
ATOM     32  O   LIG    1        7.596   0.386  -2.913  0.00  0.00    -0.506 OA
ATOM     33  H   LIG    1        7.533   0.210  -3.886  0.00  0.00    +0.292 HD
ENDBRANCH  25  32
ENDBRANCH  21  22
ENDBRANCH   4  20
TORSDOF 8
