REMARK  Name = molecules/DGBIGWXXNGSACT-UHFFFAOYSA-N.pdb
REMARK                            x       y       z     vdW  Elec       q    Type
REMARK                         _______ _______ _______ _____ _____    ______ ____
ROOT
ATOM      1  C   LIG    1       -1.708  -2.163   0.225  0.00  0.00    +0.127 A 
ATOM      2  C   LIG    1       -2.931  -1.618   0.635  0.00  0.00    +0.034 A 
ATOM      3  C   LIG    1       -3.138  -0.256   0.693  0.00  0.00    +0.026 A 
ATOM      4  C   LIG    1       -2.082   0.549   0.330  0.00  0.00    +0.043 A 
ATOM      5  N   LIG    1       -2.410   1.966   0.308  0.00  0.00    -0.283 N 
ATOM      6  H   LIG    1       -3.125   2.245   0.987  0.00  0.00    +0.155 HD
ATOM      7  C   LIG    1       -1.814   2.903  -0.587  0.00  0.00    +0.239 C 
ATOM      8  O   LIG    1       -2.147   4.087  -0.471  0.00  0.00    -0.273 OA
ATOM      9  C   LIG    1       -0.812   2.638  -1.679  0.00  0.00    +0.238 C 
ATOM     10  N   LIG    1        0.333   1.886  -1.143  0.00  0.00    -0.273 NA
ATOM     11  C   LIG    1        0.350   0.778  -0.450  0.00  0.00    +0.076 C 
ATOM     12  C   LIG    1       -0.851   0.053  -0.078  0.00  0.00    +0.024 A 
ATOM     13  C   LIG    1       -0.690  -1.317  -0.126  0.00  0.00    +0.044 A 
ENDROOT
BRANCH  11  14
ATOM     14  C   LIG    1        1.619   0.235  -0.077  0.00  0.00    +0.019 A 
ATOM     15  C   LIG    1        1.822  -0.715   0.877  0.00  0.00    +0.011 A 
ATOM     16  C   LIG    1        3.116  -1.096   1.288  0.00  0.00    +0.001 A 
ATOM     17  C   LIG    1        4.233  -0.519   0.742  0.00  0.00    +0.001 A 
ATOM     18  C   LIG    1        4.038   0.447  -0.223  0.00  0.00    +0.020 A 
ATOM     19  C   LIG    1        2.790   0.812  -0.619  0.00  0.00    +0.050 A 
ATOM     20 CL   LIG    1        2.563   2.039  -1.846  0.00  0.00    -0.083 Cl
ENDBRANCH  11  14
BRANCH   1  21
ATOM     21  N   LIG    1       -1.526  -3.568   0.177  0.00  0.00    +0.056 N 
ATOM     22  O   LIG    1       -2.473  -4.303   0.508  0.00  0.00    -0.126 OA
ATOM     23  O   LIG    1       -0.312  -4.056  -0.231  0.00  0.00    -0.126 OA
ENDBRANCH   1  21
TORSDOF 2
