REMARK  Name = molecules/DGXRPIJZPGBJPJ-GFCCVEGCSA-N.pdb
REMARK                            x       y       z     vdW  Elec       q    Type
REMARK                         _______ _______ _______ _____ _____    ______ ____
ROOT
ATOM      1  C   LIG    1       -4.761   1.069   2.196  0.00  0.00    +0.155 C 
ATOM      2  N   LIG    1       -4.293   0.702   0.872  0.00  0.00    -0.280 N 
ATOM      3  C   LIG    1       -2.980   0.592   0.628  0.00  0.00    +0.170 A 
ATOM      4  N   LIG    1       -1.893   0.755   1.375  0.00  0.00    -0.196 NA
ATOM      5  C   LIG    1       -0.762   0.518   0.627  0.00  0.00    +0.200 A 
ATOM      6  N   LIG    1       -1.220   0.210  -0.587  0.00  0.00    -0.309 N 
ATOM      7  C   LIG    1       -0.395  -0.122  -1.714  0.00  0.00    +0.152 C 
ATOM      8  C   LIG    1       -2.569   0.243  -0.633  0.00  0.00    +0.153 A 
ATOM      9  C   LIG    1       -3.545   0.021  -1.596  0.00  0.00    +0.282 A 
ATOM     10  N   LIG    1       -4.860   0.133  -1.342  0.00  0.00    -0.262 N 
ATOM     11  C   LIG    1       -5.869  -0.106  -2.368  0.00  0.00    +0.157 C 
ATOM     12  O   LIG    1       -3.214  -0.294  -2.740  0.00  0.00    -0.265 OA
ATOM     13  C   LIG    1       -5.221   0.478  -0.089  0.00  0.00    +0.333 A 
ATOM     14  O   LIG    1       -6.456   0.583   0.145  0.00  0.00    -0.246 OA
ENDROOT
BRANCH   5  15
ATOM     15  N   LIG    1        0.543   0.619   1.176  0.00  0.00    -0.301 N 
ATOM     16  C   LIG    1        0.649   0.932   2.632  0.00  0.00    +0.132 C 
BRANCH  15  17
ATOM     17  C   LIG    1        1.776   0.446   0.488  0.00  0.00    +0.143 C 
BRANCH  17  18
ATOM     18  C   LIG    1        2.507  -0.827   0.936  0.00  0.00    +0.162 C 
BRANCH  18  19
ATOM     19  C   LIG    1        3.764  -0.860   0.159  0.00  0.00    -0.014 A 
ATOM     20  C   LIG    1        4.954  -0.572   0.785  0.00  0.00    +0.051 A 
ATOM     21  C   LIG    1        6.167  -0.591   0.088  0.00  0.00    +0.117 A 
ATOM     22  C   LIG    1        6.182  -0.902  -1.246  0.00  0.00    +0.045 A 
ATOM     23  C   LIG    1        4.999  -1.192  -1.879  0.00  0.00    +0.004 A 
ATOM     24  C   LIG    1        3.792  -1.171  -1.182  0.00  0.00    +0.006 A 
BRANCH  21  25
ATOM     25  O   LIG    1        7.372  -0.302   0.711  0.00  0.00    -0.507 OA
ATOM     26  H   LIG    1        7.676   0.676   0.715  0.00  0.00    +0.292 HD
ENDBRANCH  21  25
ENDBRANCH  18  19
BRANCH  18  27
ATOM     27  O   LIG    1        1.685  -1.897   0.677  0.00  0.00    -0.386 OA
ATOM     28  H   LIG    1        0.728  -1.636   0.804  0.00  0.00    +0.210 HD
ENDBRANCH  18  27
ENDBRANCH  17  18
ENDBRANCH  15  17
ENDBRANCH   5  15
TORSDOF 6
