REMARK  Name = molecules/DGYSDXLCLKPUBR-SLPNHVECSA-N.pdb
REMARK                            x       y       z     vdW  Elec       q    Type
REMARK                         _______ _______ _______ _____ _____    ______ ____
ROOT
ATOM      1  C   LIG    1        1.349   0.493  -0.678  0.00  0.00    +0.180 C 
ATOM      2  C   LIG    1        1.700   1.904  -0.171  0.00  0.00    +0.057 C 
ATOM      3  C   LIG    1        0.422   2.460   0.439  0.00  0.00    +0.009 C 
ATOM      4  C   LIG    1       -0.500   1.288   0.430  0.00  0.00    +0.003 C 
ATOM      5  C   LIG    1       -1.961   1.610   0.505  0.00  0.00    -0.000 C 
ATOM      6  C   LIG    1       -2.317   1.896   1.946  0.00  0.00    +0.008 C 
ATOM      7  C   LIG    1       -3.792   2.109   2.173  0.00  0.00    +0.032 C 
ATOM      8  C   LIG    1       -4.630   1.206   1.367  0.00  0.00    -0.056 C 
ATOM      9  C   LIG    1       -5.693   0.650   1.920  0.00  0.00    +0.051 C 
ATOM     10  C   LIG    1       -6.534  -0.269   1.141  0.00  0.00    +0.179 C 
ATOM     11  O   LIG    1       -7.554  -0.802   1.672  0.00  0.00    -0.288 OA
ATOM     12  C   LIG    1       -6.162  -0.538  -0.233  0.00  0.00    +0.047 C 
ATOM     13  C   LIG    1       -5.111   0.019  -0.764  0.00  0.00    -0.012 C 
ATOM     14  C   LIG    1       -4.236   0.945  -0.035  0.00  0.00    +0.013 C 
ATOM     15  C   LIG    1       -4.309   2.286  -0.746  0.00  0.00    +0.020 C 
ATOM     16  C   LIG    1       -2.801   0.453   0.055  0.00  0.00    +0.035 C 
ATOM     17  C   LIG    1       -2.369  -0.222  -1.176  0.00  0.00    +0.120 C 
ATOM     18  C   LIG    1       -0.887  -0.533  -1.227  0.00  0.00    +0.043 C 
ATOM     19  C   LIG    1       -0.144   0.714  -0.943  0.00  0.00    +0.020 C 
ATOM     20  C   LIG    1       -0.337   1.697  -2.045  0.00  0.00    +0.016 C 
ENDROOT
BRANCH   1  21
ATOM     21  C   LIG    1        2.071   0.150  -1.891  0.00  0.00    +0.214 C 
ATOM     22  O   LIG    1        2.148   0.986  -2.798  0.00  0.00    -0.289 OA
BRANCH  21  23
ATOM     23  C   LIG    1        2.711  -1.138  -2.110  0.00  0.00    +0.310 C 
BRANCH  23  24
ATOM     24  O   LIG    1        3.312  -1.215  -3.426  0.00  0.00    -0.457 OA
BRANCH  24  25
ATOM     25  C   LIG    1        3.969  -2.378  -3.804  0.00  0.00    +0.304 C 
ATOM     26  O   LIG    1        3.999  -3.312  -2.960  0.00  0.00    -0.251 OA
ATOM     27  C   LIG    1        4.610  -2.525  -5.144  0.00  0.00    +0.136 C 
ENDBRANCH  24  25
ENDBRANCH  23  24
ENDBRANCH  21  23
ENDBRANCH   1  21
BRANCH  17  28
ATOM     28  O   LIG    1       -2.691   0.404  -2.370  0.00  0.00    -0.391 OA
ATOM     29  H   LIG    1       -2.507  -0.231  -3.093  0.00  0.00    +0.210 HD
ENDBRANCH  17  28
BRANCH   1  30
ATOM     30  O   LIG    1        1.516  -0.389   0.365  0.00  0.00    -0.450 OA
BRANCH  30  31
ATOM     31  C   LIG    1        2.717  -0.611   1.010  0.00  0.00    +0.308 C 
ATOM     32  O   LIG    1        3.759   0.009   0.690  0.00  0.00    -0.251 OA
BRANCH  31  33
ATOM     33  C   LIG    1        2.828  -1.607   2.125  0.00  0.00    +0.120 C 
BRANCH  33  34
ATOM     34  C   LIG    1        4.257  -1.604   2.603  0.00  0.00    +0.011 C 
BRANCH  34  35
ATOM     35  C   LIG    1        4.478  -2.581   3.736  0.00  0.00    -0.003 C 
ATOM     36  C   LIG    1        5.947  -2.482   4.123  0.00  0.00    +0.004 C 
ENDBRANCH  34  35
ENDBRANCH  33  34
ENDBRANCH  31  33
ENDBRANCH  30  31
ENDBRANCH   1  30
TORSDOF 10
