REMARK  Name = molecules/DHCUQNSUUYMFGX-UHFFFAOYSA-N.pdb
REMARK                            x       y       z     vdW  Elec       q    Type
REMARK                         _______ _______ _______ _____ _____    ______ ____
ROOT
ATOM      1  C   LIG    1        0.431  -0.024   0.248  0.00  0.00    +0.100 A 
ATOM      2  C   LIG    1       -0.640   0.104   1.086  0.00  0.00    +0.133 A 
ATOM      3  C   LIG    1       -1.957  -0.055   0.599  0.00  0.00    +0.069 A 
ATOM      4  C   LIG    1       -2.199  -0.340  -0.719  0.00  0.00    +0.031 A 
ATOM      5  C   LIG    1       -1.120  -0.470  -1.568  0.00  0.00    +0.024 A 
ATOM      6  C   LIG    1        0.169  -0.314  -1.089  0.00  0.00    +0.020 A 
ENDROOT
BRANCH   1   7
ATOM      7  C   LIG    1        1.817   0.125   0.655  0.00  0.00    +0.343 C 
ATOM      8  O   LIG    1        2.206   0.389   1.819  0.00  0.00    -0.245 OA
BRANCH   7   9
ATOM      9  O   LIG    1        2.859  -0.025  -0.278  0.00  0.00    -0.460 OA
BRANCH   9  10
ATOM     10  C   LIG    1        4.205   0.125   0.132  0.00  0.00    +0.247 C 
BRANCH  10  11
ATOM     11  C   LIG    1        5.157  -0.076  -1.006  0.00  0.00    +0.125 C 
BRANCH  11  12
ATOM     12  N   LIG    1        6.510   0.076  -0.590  0.00  0.00    -0.305 NA
ATOM     13  C   LIG    1        6.988  -0.938   0.286  0.00  0.00    +0.104 C 
ATOM     14  C   LIG    1        6.923   1.406  -0.281  0.00  0.00    +0.104 C 
ENDBRANCH  11  12
ENDBRANCH  10  11
ENDBRANCH   9  10
ENDBRANCH   7   9
ENDBRANCH   1   7
BRANCH   2  15
ATOM     15  O   LIG    1       -0.473   0.389   2.417  0.00  0.00    -0.506 OA
ATOM     16  H   LIG    1        0.315   0.537   2.964  0.00  0.00    +0.292 HD
ENDBRANCH   2  15
BRANCH   4  17
ATOM     17  N   LIG    1       -3.538  -0.498  -1.210  0.00  0.00    -0.344 N 
ATOM     18  H   LIG    1       -3.744  -0.689  -2.203  0.00  0.00    +0.146 HD
BRANCH  17  19
ATOM     19  C   LIG    1       -4.634  -0.380  -0.260  0.00  0.00    +0.101 C 
BRANCH  19  20
ATOM     20  C   LIG    1       -5.960  -0.552  -0.970  0.00  0.00    +0.018 C 
BRANCH  20  21
ATOM     21  C   LIG    1       -7.089  -0.435   0.022  0.00  0.00    -0.002 C 
ATOM     22  C   LIG    1       -7.045   0.926   0.676  0.00  0.00    +0.004 C 
ENDBRANCH  20  21
ENDBRANCH  19  20
ENDBRANCH  17  19
ENDBRANCH   4  17
TORSDOF 10
