REMARK  Name = molecules/DHHVAGZRUROJKS-UHFFFAOYSA-N.pdb
REMARK                            x       y       z     vdW  Elec       q    Type
REMARK                         _______ _______ _______ _____ _____    ______ ____
ROOT
ATOM      1  C   LIG    1       -0.461   0.730  -0.915  0.00  0.00    +0.056 C 
ENDROOT
BRANCH   1   2
ATOM      2  C   LIG    1        0.867   0.170  -0.553  0.00  0.00    -0.046 A 
ATOM      3  C   LIG    1        1.786   0.917   0.167  0.00  0.00    +0.004 A 
ATOM      4  C   LIG    1        3.017   0.391   0.500  0.00  0.00    +0.000 A 
ATOM      5  C   LIG    1        3.370  -0.892   0.126  0.00  0.00    +0.000 A 
ATOM      6  C   LIG    1        2.463  -1.646  -0.591  0.00  0.00    +0.000 A 
ATOM      7  C   LIG    1        1.235  -1.113  -0.920  0.00  0.00    +0.004 A 
ENDBRANCH   1   2
BRANCH   1   9
ATOM      8  C   LIG    1       -2.809   1.040  -0.284  0.00  0.00    +0.027 C 
ATOM      9  C   LIG    1       -1.494   0.436   0.162  0.00  0.00    +0.015 C 
ATOM     10  C   LIG    1       -1.658  -1.059   0.322  0.00  0.00    +0.027 C 
BRANCH   9  11
ATOM     11  N   LIG    1       -1.071   0.961   1.447  0.00  0.00    -0.325 NA
ATOM     12  H   LIG    1       -1.855   1.294   2.028  0.00  0.00    +0.119 HD
ATOM     13  H   LIG    1       -0.544   0.234   2.008  0.00  0.00    +0.119 HD
ENDBRANCH   9  11
ENDBRANCH   1   9
TORSDOF 3
