REMARK  Name = molecules/DHKKONBXGAAFTB-UHFFFAOYSA-N.pdb
REMARK                            x       y       z     vdW  Elec       q    Type
REMARK                         _______ _______ _______ _____ _____    ______ ____
ROOT
ATOM      1  C   LIG    1        1.426   0.536  -0.885  0.00  0.00    +0.015 C 
ATOM      2  C   LIG    1        0.915  -0.263   0.042  0.00  0.00    +0.000 C 
ATOM      3  C   LIG    1        1.740  -0.918   1.077  0.00  0.00    +0.039 C 
ATOM      4  C   LIG    1        1.056  -0.836   2.421  0.00  0.00    +0.009 C 
ATOM      5  C   LIG    1       -0.330  -1.443   2.388  0.00  0.00    +0.039 C 
ATOM      6  C   LIG    1       -1.164  -0.775   1.336  0.00  0.00    +0.000 C 
ATOM      7  C   LIG    1       -2.390  -0.463   1.597  0.00  0.00    +0.015 C 
ATOM      8  C   LIG    1       -0.522  -0.510   0.060  0.00  0.00    +0.185 C 
ATOM      9  O   LIG    1       -1.202  -0.496  -1.020  0.00  0.00    -0.287 OA
ENDROOT
BRANCH   7  10
ATOM     10  C   LIG    1       -3.309   0.194   0.683  0.00  0.00    -0.021 A 
ATOM     11  C   LIG    1       -4.597  -0.319   0.496  0.00  0.00    +0.057 A 
ATOM     12  C   LIG    1       -5.472   0.316  -0.344  0.00  0.00    +0.162 A 
ATOM     13  C   LIG    1       -5.128   1.472  -1.035  0.00  0.00    +0.158 A 
ATOM     14  C   LIG    1       -3.865   1.990  -0.861  0.00  0.00    +0.050 A 
ATOM     15  C   LIG    1       -2.974   1.344  -0.005  0.00  0.00    +0.012 A 
BRANCH  12  16
ATOM     16  O   LIG    1       -6.759  -0.197  -0.530  0.00  0.00    -0.491 OA
ATOM     17  C   LIG    1       -7.139  -1.368   0.154  0.00  0.00    +0.277 C 
ENDBRANCH  12  16
BRANCH  13  18
ATOM     18  O   LIG    1       -6.083   2.044  -1.865  0.00  0.00    -0.503 OA
ATOM     19  H   LIG    1       -5.819   2.885  -2.361  0.00  0.00    +0.292 HD
ENDBRANCH  13  18
ENDBRANCH   7  10
BRANCH   1  20
ATOM     20  C   LIG    1        2.815   0.843  -0.999  0.00  0.00    -0.021 A 
ATOM     21  C   LIG    1        3.787  -0.124  -0.936  0.00  0.00    +0.057 A 
ATOM     22  C   LIG    1        5.150   0.179  -1.032  0.00  0.00    +0.162 A 
ATOM     23  C   LIG    1        5.552   1.483  -1.197  0.00  0.00    +0.158 A 
ATOM     24  C   LIG    1        4.597   2.471  -1.263  0.00  0.00    +0.050 A 
ATOM     25  C   LIG    1        3.251   2.152  -1.165  0.00  0.00    +0.012 A 
BRANCH  22  26
ATOM     26  O   LIG    1        6.120  -0.796  -0.969  0.00  0.00    -0.491 OA
ATOM     27  C   LIG    1        5.873  -2.174  -0.805  0.00  0.00    +0.277 C 
ENDBRANCH  22  26
BRANCH  23  28
ATOM     28  O   LIG    1        6.905   1.782  -1.293  0.00  0.00    -0.503 OA
ATOM     29  H   LIG    1        7.231   2.733  -1.412  0.00  0.00    +0.292 HD
ENDBRANCH  23  28
ENDBRANCH   1  20
TORSDOF 6
