REMARK  Name = molecules/DHMQDGOQFOQNFH-UHFFFAOYSA-N.pdb
REMARK                            x       y       z     vdW  Elec       q    Type
REMARK                         _______ _______ _______ _____ _____    ______ ____
ROOT
ATOM      1  CA  GLY A  1       -0.505   0.165   0.357  0.00  0.00    +0.199 C 
ENDROOT
BRANCH   1   2
ATOM      2  N   GLY A  1       -0.848  -0.862  -0.602  0.00  0.00    -0.321 NA
ATOM      3  H1  GLY A  1       -1.222  -1.709  -0.107  0.00  0.00    +0.119 HD
ATOM      4  H2  GLY A  1       -1.595  -0.554  -1.264  0.00  0.00    +0.119 HD
ENDBRANCH   1   2
BRANCH   1   5
ATOM      5  C   GLY A  1        0.831   0.754   0.090  0.00  0.00    +0.319 C 
ATOM      6  OXT GLY A  1        1.350   1.659   0.779  0.00  0.00    -0.250 OA
BRANCH   5   7
ATOM      7  O   GLY A  1        1.547   0.272  -0.992  0.00  0.00    -0.480 OA
ATOM      8  H   GLY A  1        2.293  -0.403  -0.779  0.00  0.00    +0.295 HD
ENDBRANCH   5   7
ENDBRANCH   1   5
TORSDOF 3
