REMARK  Name = molecules/DHSSDEDRBUKTQY-UHFFFAOYSA-N.pdb
REMARK                            x       y       z     vdW  Elec       q    Type
REMARK                         _______ _______ _______ _____ _____    ______ ____
ROOT
ATOM      1  C   LIG    1        4.017  -0.103   0.356  0.00  0.00    +0.156 A 
ATOM      2  N   LIG    1        3.007   0.693   0.665  0.00  0.00    -0.230 NA
ATOM      3  C   LIG    1        1.786   0.264   0.579  0.00  0.00    +0.055 A 
ATOM      4  C   LIG    1        0.589   1.143   0.925  0.00  0.00    +0.071 C 
ATOM      5  C   LIG    1       -0.346   1.118  -0.265  0.00  0.00    +0.091 C 
ATOM      6  N   LIG    1       -1.144  -0.050  -0.343  0.00  0.00    -0.298 NA
ATOM      7  C   LIG    1       -0.829  -1.148   0.459  0.00  0.00    +0.090 C 
ATOM      8  C   LIG    1        0.380  -1.865  -0.063  0.00  0.00    +0.059 C 
ATOM      9  C   LIG    1        1.593  -1.028   0.160  0.00  0.00    +0.015 A 
ATOM     10  S   LIG    1        3.212  -1.550  -0.086  0.00  0.00    -0.057 S 
ENDROOT
BRANCH   1  11
ATOM     11  N   LIG    1        5.437   0.182   0.383  0.00  0.00    -0.338 N 
ATOM     12  H   LIG    1        5.906   0.328   1.281  0.00  0.00    +0.144 HD
ATOM     13  H   LIG    1        5.989   0.241  -0.497  0.00  0.00    +0.144 HD
ENDBRANCH   1  11
BRANCH   6  14
ATOM     14  C   LIG    1       -2.453   0.112  -0.844  0.00  0.00    +0.111 C 
BRANCH  14  15
ATOM     15  C   LIG    1       -3.353   0.885   0.034  0.00  0.00    -0.019 C 
ATOM     16  C   LIG    1       -4.460   0.346   0.501  0.00  0.00    +0.005 C 
ENDBRANCH  14  15
ENDBRANCH   6  14
TORSDOF 3
