REMARK  Name = molecules/DIRJDIBCAHCCFL-AQFAATAFSA-N.pdb
REMARK                            x       y       z     vdW  Elec       q    Type
REMARK                         _______ _______ _______ _____ _____    ______ ____
ROOT
ATOM      1  C   LIG    1       -1.031   0.719  -0.279  0.00  0.00    +0.190 C 
ATOM      2  C   LIG    1       -1.633  -0.262   0.698  0.00  0.00    +0.061 C 
ATOM      3  C   LIG    1       -2.894   0.206   1.317  0.00  0.00    +0.020 C 
ATOM      4  C   LIG    1       -3.520   1.438   0.711  0.00  0.00    +0.062 C 
ATOM      5  C   LIG    1       -4.966   1.422   1.091  0.00  0.00    +0.096 C 
ATOM      6  C   LIG    1       -5.128   2.309   2.334  0.00  0.00    +0.047 C 
ATOM      7  C   LIG    1       -5.912   1.898   0.081  0.00  0.00    -0.001 A 
ATOM      8  C   LIG    1       -7.220   2.113   0.537  0.00  0.00    +0.007 A 
ATOM      9  C   LIG    1       -8.196   2.542  -0.327  0.00  0.00    +0.004 A 
ATOM     10  C   LIG    1       -7.945   2.776  -1.647  0.00  0.00    +0.046 A 
ATOM     11  C   LIG    1       -6.641   2.563  -2.105  0.00  0.00    +0.128 A 
ATOM     12  C   LIG    1       -5.656   2.134  -1.247  0.00  0.00    +0.069 A 
ATOM     13  C   LIG    1       -4.279   1.921  -1.694  0.00  0.00    +0.197 C 
ATOM     14  O   LIG    1       -3.960   2.110  -2.880  0.00  0.00    -0.287 OA
ATOM     15  C   LIG    1       -3.271   1.480  -0.725  0.00  0.00    +0.047 C 
ATOM     16  C   LIG    1       -1.788  -1.565  -0.060  0.00  0.00    +0.129 C 
ATOM     17  C   LIG    1       -0.409  -2.148  -0.159  0.00  0.00    +0.127 C 
ATOM     18  C   LIG    1        0.479  -1.332  -0.699  0.00  0.00    +0.121 C 
ATOM     19  C   LIG    1       -0.001   0.027  -1.121  0.00  0.00    +0.211 C 
ATOM     20  O   LIG    1        0.421   0.592  -2.130  0.00  0.00    -0.288 OA
ATOM     21  C   LIG    1       -2.096   1.141  -1.210  0.00  0.00    +0.141 C 
ENDROOT
BRANCH  18  22
ATOM     22  C   LIG    1        1.843  -1.671  -0.931  0.00  0.00    +0.252 C 
ATOM     23  N   LIG    1        2.508  -2.862  -0.650  0.00  0.00    -0.298 N 
ATOM     24  H   LIG    1        2.031  -3.670  -0.211  0.00  0.00    +0.150 HD
ATOM     25  O   LIG    1        2.594  -0.766  -1.482  0.00  0.00    -0.270 OA
BRANCH  23  26
ATOM     26  C   LIG    1        3.944  -2.987  -0.993  0.00  0.00    +0.192 C 
BRANCH  26  27
ATOM     27  N   LIG    1        4.661  -1.941  -0.324  0.00  0.00    -0.281 NA
ATOM     28  C   LIG    1        4.503  -1.925   1.104  0.00  0.00    +0.121 C 
ATOM     29  C   LIG    1        5.611  -1.183   1.813  0.00  0.00    +0.203 C 
ATOM     30  N   LIG    1        6.220  -0.248   0.905  0.00  0.00    -0.220 N 
ATOM     31  C   LIG    1        6.707  -0.714  -0.369  0.00  0.00    +0.203 C 
ATOM     32  C   LIG    1        6.088  -2.056  -0.661  0.00  0.00    +0.121 C 
BRANCH  30  33
ATOM     33  C   LIG    1        6.356   1.125   1.238  0.00  0.00    +0.382 C 
ATOM     34  N   LIG    1        5.346   1.929   1.179  0.00  0.00    -0.131 NA
ATOM     35  H   LIG    1        5.524   2.943   1.441  0.00  0.00    +0.306 HD
BRANCH  33  36
ATOM     36  N   LIG    1        7.646   1.580   1.640  0.00  0.00    -0.188 N 
ATOM     37  H   LIG    1        8.063   1.287   2.570  0.00  0.00    +0.270 HD
BRANCH  36  38
ATOM     38  C   LIG    1        8.382   2.449   0.768  0.00  0.00    +0.385 C 
ATOM     39  N   LIG    1        9.074   1.958  -0.369  0.00  0.00    -0.289 N 
ATOM     40  H   LIG    1       10.092   2.218  -0.504  0.00  0.00    +0.255 HD
ATOM     41  H   LIG    1        8.632   1.355  -1.076  0.00  0.00    +0.255 HD
BRANCH  38  42
ATOM     42  N   LIG    1        8.405   3.707   1.043  0.00  0.00    -0.129 NA
ATOM     43  H   LIG    1        8.923   4.365   0.441  0.00  0.00    +0.306 HD
ENDBRANCH  38  42
ENDBRANCH  36  38
ENDBRANCH  33  36
ENDBRANCH  30  33
ENDBRANCH  26  27
ENDBRANCH  23  26
ENDBRANCH  18  22
BRANCH  16  44
ATOM     44  N   LIG    1       -2.793  -2.427   0.407  0.00  0.00    -0.299 NA
ATOM     45  C   LIG    1       -2.522  -3.842   0.317  0.00  0.00    +0.105 C 
ATOM     46  C   LIG    1       -4.073  -2.239  -0.303  0.00  0.00    +0.105 C 
ENDBRANCH  16  44
BRANCH   1  47
ATOM     47  O   LIG    1       -0.436   1.802   0.366  0.00  0.00    -0.373 OA
ATOM     48  H   LIG    1       -0.889   2.644   0.083  0.00  0.00    +0.211 HD
ENDBRANCH   1  47
BRANCH   5  49
ATOM     49  O   LIG    1       -5.350   0.128   1.544  0.00  0.00    -0.384 OA
ATOM     50  H   LIG    1       -6.325   0.203   1.669  0.00  0.00    +0.211 HD
ENDBRANCH   5  49
BRANCH  11  51
ATOM     51  O   LIG    1       -6.425   2.806  -3.421  0.00  0.00    -0.506 OA
ATOM     52  H   LIG    1       -5.678   2.764  -4.036  0.00  0.00    +0.292 HD
ENDBRANCH  11  51
BRANCH  17  53
ATOM     53  O   LIG    1       -0.057  -3.398   0.260  0.00  0.00    -0.509 OA
ATOM     54  H   LIG    1        0.209  -3.513   1.256  0.00  0.00    +0.292 HD
ENDBRANCH  17  53
BRANCH  21  55
ATOM     55  O   LIG    1       -1.875   1.186  -2.601  0.00  0.00    -0.507 OA
ATOM     56  H   LIG    1       -2.005   0.339  -3.151  0.00  0.00    +0.292 HD
ENDBRANCH  21  55
TORSDOF 13
