REMARK  Name = molecules/DJQJFMSHHYAZJD-UHFFFAOYSA-N.pdb
REMARK                            x       y       z     vdW  Elec       q    Type
REMARK                         _______ _______ _______ _____ _____    ______ ____
ROOT
ATOM      1  N   LIG    1       -1.247  -0.309  -0.921  0.00  0.00    -0.284 N 
ATOM      2  C   LIG    1       -0.021   0.136  -0.315  0.00  0.00    +0.231 C 
ATOM      3  O   LIG    1       -0.076   0.749   0.777  0.00  0.00    -0.274 OA
ATOM      4  H   LIG    1       -1.169  -0.812  -1.826  0.00  0.00    +0.155 HD
ENDROOT
BRANCH   1   5
ATOM      5  C   LIG    1       -2.460  -0.042  -0.265  0.00  0.00    +0.039 A 
ATOM      6  C   LIG    1       -2.927  -1.020   0.616  0.00  0.00    -0.029 A 
ATOM      7  C   LIG    1       -4.114  -0.769   1.266  0.00  0.00    +0.005 A 
ATOM      8  C   LIG    1       -4.823   0.410   1.057  0.00  0.00    +0.001 A 
ATOM      9  C   LIG    1       -4.310   1.336   0.175  0.00  0.00    +0.005 A 
ATOM     10  C   LIG    1       -2.170  -2.278   0.834  0.00  0.00    +0.045 C 
ATOM     11  C   LIG    1       -3.125   1.122  -0.496  0.00  0.00    -0.029 A 
ATOM     12  C   LIG    1       -2.570   2.118  -1.444  0.00  0.00    +0.045 C 
ENDBRANCH   1   5
BRANCH   2  13
ATOM     13  C   LIG    1        1.287  -0.109  -0.938  0.00  0.00    +0.181 C 
BRANCH  13  14
ATOM     14  N   LIG    1        2.380   0.424  -0.139  0.00  0.00    -0.274 NA
BRANCH  14  15
ATOM     15  C   LIG    1        2.594  -0.274   1.072  0.00  0.00    +0.206 C 
BRANCH  15  16
ATOM     16  C   LIG    1        3.609   0.385   1.909  0.00  0.00    +0.319 C 
ATOM     17  O   LIG    1        4.047  -0.188   2.980  0.00  0.00    -0.250 OA
BRANCH  16  18
ATOM     18  O   LIG    1        4.180   1.617   1.669  0.00  0.00    -0.480 OA
ATOM     19  H   LIG    1        3.673   2.457   1.856  0.00  0.00    +0.295 HD
ENDBRANCH  16  18
ENDBRANCH  15  16
ENDBRANCH  14  15
BRANCH  14  20
ATOM     20  C   LIG    1        3.571   0.561  -0.916  0.00  0.00    +0.206 C 
BRANCH  20  21
ATOM     21  C   LIG    1        4.195  -0.695  -1.362  0.00  0.00    +0.319 C 
ATOM     22  O   LIG    1        5.314  -0.679  -1.978  0.00  0.00    -0.250 OA
BRANCH  21  23
ATOM     23  O   LIG    1        3.663  -1.955  -1.175  0.00  0.00    -0.480 OA
ATOM     24  H   LIG    1        4.098  -2.714  -0.695  0.00  0.00    +0.295 HD
ENDBRANCH  21  23
ENDBRANCH  20  21
ENDBRANCH  14  20
ENDBRANCH  13  14
ENDBRANCH   2  13
TORSDOF 9
