REMARK  Name = molecules/DJQOOSBJCLSSEY-UHFFFAOYSA-N.pdb
REMARK                            x       y       z     vdW  Elec       q    Type
REMARK                         _______ _______ _______ _____ _____    ______ ____
ROOT
ATOM      1  C   LIG    1       -2.789  -0.349   0.180  0.00  0.00    +0.069 C 
ATOM      2  C   LIG    1       -1.331  -0.165  -0.003  0.00  0.00    +0.077 A 
ATOM      3  N   LIG    1       -0.495   0.225   0.976  0.00  0.00    -0.140 N 
ATOM      4  O   LIG    1       -1.065   0.458   2.214  0.00  0.00    -0.164 OA
ATOM      5  C   LIG    1        0.822   0.374   0.747  0.00  0.00    +0.168 A 
ATOM      6  CA  LIG    1        1.387   0.139  -0.494  0.00  0.00    +0.167 A 
ATOM      7  N   LIG    1        0.542  -0.250  -1.467  0.00  0.00    -0.245 NA
ATOM      8  C   LIG    1       -0.777  -0.402  -1.244  0.00  0.00    +0.136 A 
ENDROOT
BRANCH   6   9
ATOM      9  C   LIG    1        2.813   0.304  -0.732  0.00  0.00    +0.357 C 
ATOM     10  O   LIG    1        3.265   0.077  -1.875  0.00  0.00    -0.243 OA
BRANCH   9  11
ATOM     11  OXT LIG    1        3.628   0.706   0.310  0.00  0.00    -0.476 OA
ATOM     12  HXT LIG    1        3.578   0.144   1.163  0.00  0.00    +0.295 HD
ENDBRANCH   9  11
ENDBRANCH   6   9
TORSDOF 2
