REMARK  Name = molecules/DJUFPMUQJKWIJB-UHFFFAOYSA-N.pdb
REMARK                            x       y       z     vdW  Elec       q    Type
REMARK                         _______ _______ _______ _____ _____    ______ ____
ROOT
ATOM      1  C   LIG    1        0.429   0.184   0.270  0.00  0.00    +0.032 A 
ATOM      2  C   LIG    1        0.012  -1.058   0.704  0.00  0.00    +0.031 A 
ATOM      3  C   LIG    1       -1.304  -1.350   0.939  0.00  0.00    +0.010 A 
ATOM      4  C   LIG    1       -2.323  -0.390   0.753  0.00  0.00    +0.126 A 
ATOM      5  C   LIG    1       -1.945   0.845   0.330  0.00  0.00    +0.010 A 
ATOM      6  C   LIG    1       -0.622   1.128   0.092  0.00  0.00    +0.031 A 
ENDROOT
BRANCH   1   7
ATOM      7  N   LIG    1        1.680   0.687   0.011  0.00  0.00    -0.312 N 
ATOM      8  H   LIG    1        1.793   1.752   0.371  0.00  0.00    +0.152 HD
BRANCH   7   9
ATOM      9  C   LIG    1        2.874   0.209  -0.532  0.00  0.00    +0.069 A 
ATOM     10  C   LIG    1        3.979  -0.104   0.192  0.00  0.00    +0.115 A 
ATOM     11  N   LIG    1        3.986  -0.003   1.549  0.00  0.00    -0.209 NA
ATOM     12  C   LIG    1        5.060  -0.226   2.312  0.00  0.00    +0.215 A 
ATOM     13  C   LIG    1        6.252  -0.592   1.750  0.00  0.00    +0.069 A 
ATOM     14  C   LIG    1        6.317  -0.721   0.377  0.00  0.00    +0.035 A 
ATOM     15  C   LIG    1        5.192  -0.477  -0.376  0.00  0.00    +0.092 A 
ATOM     16  N   LIG    1        5.239  -0.526  -1.735  0.00  0.00    -0.245 NA
ATOM     17  C   LIG    1        4.197  -0.234  -2.531  0.00  0.00    +0.075 A 
ATOM     18  C   LIG    1        4.284  -0.289  -3.916  0.00  0.00    +0.048 A 
ATOM     19  C   LIG    1        3.188   0.022  -4.723  0.00  0.00    +0.043 A 
ATOM     20  C   LIG    1        2.020   0.386  -4.110  0.00  0.00    +0.021 A 
ATOM     21  C   LIG    1        1.933   0.441  -2.746  0.00  0.00    +0.013 A 
ATOM     22 CL   LIG    1        3.303  -0.059  -6.486  0.00  0.00    -0.083 Cl
ATOM     23  C   LIG    1        3.022   0.132  -1.926  0.00  0.00    +0.024 A 
BRANCH  12  24
ATOM     24  O   LIG    1        4.871  -0.030   3.693  0.00  0.00    -0.480 OA
ATOM     25  C   LIG    1        3.643   0.270   4.244  0.00  0.00    +0.279 C 
ENDBRANCH  12  24
ENDBRANCH   7   9
ENDBRANCH   1   7
BRANCH   4  26
ATOM     26  O   LIG    1       -3.623  -0.724   0.997  0.00  0.00    -0.506 OA
ATOM     27  H   LIG    1       -4.440  -0.147   0.898  0.00  0.00    +0.292 HD
ENDBRANCH   4  26
BRANCH   3  28
ATOM     28  C   LIG    1       -1.726  -2.661   1.491  0.00  0.00    +0.123 C 
BRANCH  28  29
ATOM     29  N   LIG    1       -2.732  -3.270   0.724  0.00  0.00    -0.298 NA
ATOM     30  C   LIG    1       -3.201  -4.507   1.245  0.00  0.00    +0.085 C 
ATOM     31  C   LIG    1       -4.260  -4.887   0.178  0.00  0.00    +0.017 C 
ATOM     32  C   LIG    1       -3.597  -4.453  -1.095  0.00  0.00    +0.017 C 
ATOM     33  C   LIG    1       -2.547  -3.420  -0.672  0.00  0.00    +0.085 C 
ENDBRANCH  28  29
ENDBRANCH   3  28
BRANCH   5  34
ATOM     34  C   LIG    1       -2.931   1.915   0.028  0.00  0.00    +0.123 C 
BRANCH  34  35
ATOM     35  N   LIG    1       -2.296   3.146  -0.336  0.00  0.00    -0.298 NA
ATOM     36  C   LIG    1       -1.652   3.782   0.764  0.00  0.00    +0.085 C 
ATOM     37  C   LIG    1       -2.479   5.052   1.016  0.00  0.00    +0.017 C 
ATOM     38  C   LIG    1       -2.771   5.422  -0.435  0.00  0.00    +0.017 C 
ATOM     39  C   LIG    1       -3.094   4.082  -1.059  0.00  0.00    +0.085 C 
ENDBRANCH  34  35
ENDBRANCH   5  34
TORSDOF 8
