REMARK  Name = molecules/DJWYOLJPSHDSAL-ROUUACIJSA-N.pdb
REMARK                            x       y       z     vdW  Elec       q    Type
REMARK                         _______ _______ _______ _____ _____    ______ ____
ROOT
ATOM      1  S   LIG    1       -0.515   2.016  -0.135  0.00  0.00    -0.092 S 
ENDROOT
BRANCH   1   2
ATOM      2  S   LIG    1        0.898   3.198   1.009  0.00  0.00    -0.092 S 
BRANCH   2   3
ATOM      3  C   LIG    1        1.752   4.162  -0.337  0.00  0.00    +0.099 C 
BRANCH   3   4
ATOM      4  C   LIG    1        2.287   3.232  -1.352  0.00  0.00    +0.115 C 
BRANCH   4   5
ATOM      5  N   LIG    1        3.421   2.457  -1.089  0.00  0.00    -0.314 N 
ATOM      6  C   LIG    1        3.834   1.659  -0.018  0.00  0.00    +0.215 C 
ATOM      7  O   LIG    1        3.174   1.554   1.022  0.00  0.00    -0.276 OA
ATOM      8  H   LIG    1        4.177   2.478  -1.907  0.00  0.00    +0.149 HD
BRANCH   6   9
ATOM      9  C   LIG    1        5.135   0.895  -0.111  0.00  0.00    +0.114 C 
BRANCH   9  10
ATOM     10  C   LIG    1        6.306   1.742   0.239  0.00  0.00    +0.113 C 
BRANCH  10  11
ATOM     11  N   LIG    1        7.594   1.047   0.137  0.00  0.00    -0.313 N 
ATOM     12  C   LIG    1        7.826  -0.038   0.989  0.00  0.00    +0.242 C 
ATOM     13  O   LIG    1        6.947  -0.400   1.822  0.00  0.00    -0.273 OA
ATOM     14  H   LIG    1        8.287   1.405  -0.579  0.00  0.00    +0.149 HD
BRANCH  12  15
ATOM     15  C   LIG    1        9.087  -0.835   0.980  0.00  0.00    +0.208 C 
BRANCH  15  16
ATOM     16  C   LIG    1        8.916  -2.289   0.717  0.00  0.00    +0.023 C 
ATOM     17  C   LIG    1        8.033  -3.040   1.652  0.00  0.00    +0.016 C 
ATOM     18  C   LIG    1        8.504  -2.494  -0.737  0.00  0.00    +0.016 C 
BRANCH  16  19
ATOM     19  C   LIG    1       10.341  -2.903   0.835  0.00  0.00    +0.165 C 
BRANCH  19  20
ATOM     20  O   LIG    1       10.758  -2.600   2.154  0.00  0.00    -0.394 OA
ATOM     21  H   LIG    1       11.615  -2.129   2.108  0.00  0.00    +0.209 HD
ENDBRANCH  19  20
ENDBRANCH  16  19
ENDBRANCH  15  16
BRANCH  15  22
ATOM     22  O   LIG    1        9.955  -0.324   0.015  0.00  0.00    -0.382 OA
ATOM     23  H   LIG    1        9.557  -0.098  -0.842  0.00  0.00    +0.210 HD
ENDBRANCH  15  22
ENDBRANCH  12  15
ENDBRANCH  10  11
ENDBRANCH   9  10
ENDBRANCH   6   9
ENDBRANCH   4   5
ENDBRANCH   3   4
ENDBRANCH   2   3
ENDBRANCH   1   2
BRANCH   1  24
ATOM     24  C   LIG    1       -1.985   2.900  -0.404  0.00  0.00    +0.099 C 
BRANCH  24  25
ATOM     25  C   LIG    1       -3.110   2.725   0.578  0.00  0.00    +0.115 C 
BRANCH  25  27
ATOM     26  C   LIG    1       -3.955   0.153   0.595  0.00  0.00    +0.215 C 
ATOM     27  N   LIG    1       -3.541   1.413   0.590  0.00  0.00    -0.314 N 
ATOM     28  H   LIG    1       -3.706   1.496  -0.777  0.00  0.00    +0.149 HD
ATOM     29  O   LIG    1       -4.069  -0.598  -0.469  0.00  0.00    -0.276 OA
BRANCH  26  30
ATOM     30  C   LIG    1       -4.382  -0.618   1.834  0.00  0.00    +0.114 C 
BRANCH  30  31
ATOM     31  C   LIG    1       -5.176  -1.831   1.238  0.00  0.00    +0.113 C 
BRANCH  31  33
ATOM     32  C   LIG    1       -7.189  -1.925  -0.321  0.00  0.00    +0.242 C 
ATOM     33  N   LIG    1       -6.196  -1.216   0.418  0.00  0.00    -0.313 N 
ATOM     34  H   LIG    1       -6.185  -0.147   0.371  0.00  0.00    +0.149 HD
ATOM     35  O   LIG    1       -7.202  -3.165  -0.255  0.00  0.00    -0.273 OA
BRANCH  32  36
ATOM     36  C   LIG    1       -8.146  -1.106  -1.121  0.00  0.00    +0.208 C 
BRANCH  36  37
ATOM     37  C   LIG    1       -9.498  -1.024  -0.429  0.00  0.00    +0.023 C 
ATOM     38  C   LIG    1      -10.188  -2.333  -0.282  0.00  0.00    +0.016 C 
ATOM     39  C   LIG    1      -10.377  -0.114  -1.281  0.00  0.00    +0.016 C 
BRANCH  37  40
ATOM     40  C   LIG    1       -9.303  -0.399   0.937  0.00  0.00    +0.165 C 
BRANCH  40  41
ATOM     41  O   LIG    1       -8.757   0.865   0.787  0.00  0.00    -0.394 OA
ATOM     42  H   LIG    1       -9.424   1.563   0.624  0.00  0.00    +0.209 HD
ENDBRANCH  40  41
ENDBRANCH  37  40
ENDBRANCH  36  37
BRANCH  36  43
ATOM     43  O   LIG    1       -7.635   0.212  -1.128  0.00  0.00    -0.382 OA
ATOM     44  H   LIG    1       -8.107   0.840  -1.676  0.00  0.00    +0.210 HD
ENDBRANCH  36  43
ENDBRANCH  32  36
ENDBRANCH  31  33
ENDBRANCH  30  31
ENDBRANCH  26  30
ENDBRANCH  25  27
ENDBRANCH  24  25
ENDBRANCH   1  24
TORSDOF 23
