REMARK  Name = molecules/DKGZKTPJOSAWFA-UHFFFAOYSA-N.pdb
REMARK                            x       y       z     vdW  Elec       q    Type
REMARK                         _______ _______ _______ _____ _____    ______ ____
ROOT
ATOM      1  N   LIG    1       -0.185   1.091   1.171  0.00  0.00    -0.302 NA
ATOM      2  C   LIG    1       -0.685  -0.149   1.676  0.00  0.00    +0.087 C 
ATOM      3  C   LIG    1       -2.205  -0.262   1.366  0.00  0.00    +0.051 C 
ATOM      4  C   LIG    1       -2.322  -0.537  -0.090  0.00  0.00    +0.115 C 
ATOM      5  C   LIG    1       -2.027  -1.986  -0.404  0.00  0.00    +0.238 C 
ATOM      6  O   LIG    1       -1.482  -2.802   0.367  0.00  0.00    -0.273 OA
ATOM      7  N   LIG    1       -2.519  -2.126  -1.738  0.00  0.00    -0.298 N 
ATOM      8  C   LIG    1       -3.461  -1.058  -2.000  0.00  0.00    +0.214 C 
ATOM      9  H   LIG    1       -2.227  -2.884  -2.388  0.00  0.00    +0.150 HD
ATOM     10  N   LIG    1       -3.634  -0.435  -0.664  0.00  0.00    -0.300 N 
ATOM     11  C   LIG    1       -1.294   0.257  -0.879  0.00  0.00    +0.051 C 
ATOM     12  C   LIG    1       -0.713   1.415  -0.108  0.00  0.00    +0.087 C 
ENDROOT
BRANCH  10  13
ATOM     13  C   LIG    1       -4.855   0.090  -0.253  0.00  0.00    +0.032 A 
ATOM     14  C   LIG    1       -5.301   0.064   1.036  0.00  0.00    +0.023 A 
ATOM     15  C   LIG    1       -6.532   0.629   1.397  0.00  0.00    +0.002 A 
ATOM     16  C   LIG    1       -7.320   1.224   0.453  0.00  0.00    +0.000 A 
ATOM     17  C   LIG    1       -6.887   1.260  -0.855  0.00  0.00    +0.002 A 
ATOM     18  C   LIG    1       -5.675   0.701  -1.193  0.00  0.00    +0.023 A 
ENDBRANCH  10  13
BRANCH   1  19
ATOM     19  C   LIG    1        1.234   1.138   1.268  0.00  0.00    +0.085 C 
BRANCH  19  20
ATOM     20  C   LIG    1        1.958   0.185   0.354  0.00  0.00    +0.023 C 
BRANCH  20  21
ATOM     21  C   LIG    1        3.452   0.365   0.573  0.00  0.00    +0.081 C 
BRANCH  21  22
ATOM     22  C   LIG    1        4.218  -0.545  -0.300  0.00  0.00    +0.163 C 
ATOM     23  O   LIG    1        3.615  -1.320  -1.073  0.00  0.00    -0.292 OA
BRANCH  22  28
ATOM     24  C   LIG    1        7.776  -1.439  -1.092  0.00  0.00    +0.039 A 
ATOM     25  C   LIG    1        8.497  -0.603  -0.254  0.00  0.00    +0.123 A 
ATOM     26  C   LIG    1        7.761   0.238   0.553  0.00  0.00    +0.039 A 
ATOM     27  C   LIG    1        6.397   0.274   0.556  0.00  0.00    +0.014 A 
ATOM     28  C   LIG    1        5.674  -0.570  -0.288  0.00  0.00    +0.018 A 
ATOM     29  F   LIG    1        9.851  -0.635  -0.255  0.00  0.00    -0.205 F 
ATOM     30  C   LIG    1        6.399  -1.417  -1.103  0.00  0.00    +0.014 A 
ENDBRANCH  22  28
ENDBRANCH  21  22
ENDBRANCH  20  21
ENDBRANCH  19  20
ENDBRANCH   1  19
TORSDOF 6
