REMARK  Name = molecules/DKHGMERMDICWDU-GHDNBGIDSA-N.pdb
REMARK                            x       y       z     vdW  Elec       q    Type
REMARK                         _______ _______ _______ _____ _____    ______ ____
ROOT
ATOM      1  C   LIG    1       -3.434  -1.555  -1.093  0.00  0.00    -0.023 C 
ATOM      2  C   LIG    1       -2.840  -1.015  -0.056  0.00  0.00    -0.076 C 
ATOM      3  C   LIG    1       -3.304   0.266   0.508  0.00  0.00    +0.039 C 
ENDROOT
BRANCH   1   4
ATOM      4  C   LIG    1       -4.574  -1.149  -1.885  0.00  0.00    +0.066 C 
BRANCH   4  17
ATOM      5  O   LIG    1       -6.208  -1.168   0.439  0.00  0.00    -0.287 OA
ATOM      6  C   LIG    1       -6.253  -0.135  -0.313  0.00  0.00    +0.191 C 
ATOM      7  C   LIG    1       -7.158   0.918   0.082  0.00  0.00    +0.033 A 
ATOM      8  C   LIG    1       -7.925   0.774   1.237  0.00  0.00    +0.012 A 
ATOM      9  C   LIG    1       -8.776   1.782   1.597  0.00  0.00    +0.001 A 
ATOM     10  C   LIG    1       -8.844   2.912   0.794  0.00  0.00    +0.001 A 
ATOM     11  C   LIG    1       -8.088   3.049  -0.341  0.00  0.00    +0.012 A 
ATOM     12  C   LIG    1       -7.235   2.037  -0.699  0.00  0.00    +0.033 A 
ATOM     13  C   LIG    1       -6.402   2.104  -1.883  0.00  0.00    +0.190 C 
ATOM     14  C   LIG    1       -5.489   1.048  -2.286  0.00  0.00    +0.004 C 
ATOM     15  C   LIG    1       -4.654   1.165  -3.514  0.00  0.00    +0.048 C 
ATOM     16  O   LIG    1       -6.439   3.122  -2.639  0.00  0.00    -0.287 OA
ATOM     17  C   LIG    1       -5.422  -0.047  -1.512  0.00  0.00    +0.010 C 
ENDBRANCH   4  17
ENDBRANCH   1   4
BRANCH   2  18
ATOM     18  C   LIG    1       -1.659  -1.649   0.592  0.00  0.00    +0.034 C 
BRANCH  18  19
ATOM     19  C   LIG    1       -0.416  -0.826   0.589  0.00  0.00    +0.031 C 
BRANCH  19  20
ATOM     20  C   LIG    1        0.641  -1.624   1.267  0.00  0.00    -0.028 C 
ATOM     21  C   LIG    1        1.269  -1.267   2.352  0.00  0.00    -0.076 C 
ATOM     22  C   LIG    1        0.972  -0.003   3.024  0.00  0.00    +0.039 C 
BRANCH  21  23
ATOM     23  C   LIG    1        2.336  -2.134   2.984  0.00  0.00    +0.034 C 
BRANCH  23  24
ATOM     24  C   LIG    1        3.651  -1.413   3.039  0.00  0.00    +0.031 C 
BRANCH  24  25
ATOM     25  C   LIG    1        4.022  -1.076   1.626  0.00  0.00    -0.028 C 
ATOM     26  C   LIG    1        5.118  -1.526   1.036  0.00  0.00    -0.076 C 
ATOM     27  C   LIG    1        6.045  -2.404   1.769  0.00  0.00    +0.039 C 
BRANCH  26  28
ATOM     28  C   LIG    1        5.393  -1.133  -0.367  0.00  0.00    +0.034 C 
BRANCH  28  29
ATOM     29  C   LIG    1        6.721  -0.402  -0.390  0.00  0.00    +0.031 C 
BRANCH  29  30
ATOM     30  C   LIG    1        7.110   0.044  -1.741  0.00  0.00    -0.028 C 
ATOM     31  C   LIG    1        7.297   1.321  -1.982  0.00  0.00    -0.080 C 
ATOM     32  C   LIG    1        7.120   2.314  -0.901  0.00  0.00    +0.038 C 
ATOM     33  C   LIG    1        7.692   1.774  -3.338  0.00  0.00    +0.038 C 
ENDBRANCH  29  30
ENDBRANCH  28  29
ENDBRANCH  26  28
ENDBRANCH  24  25
ENDBRANCH  23  24
ENDBRANCH  21  23
ENDBRANCH  19  20
ENDBRANCH  18  19
ENDBRANCH   2  18
TORSDOF 11
