REMARK  Name = molecules/DKJJVAGXPKPDRL-UHFFFAOYSA-N.pdb
REMARK                            x       y       z     vdW  Elec       q    Type
REMARK                         _______ _______ _______ _____ _____    ______ ____
ROOT
ATOM      1  C   LIG    1       -1.390   0.266   0.132  0.00  0.00    +0.278 C 
ENDROOT
BRANCH   1   2
ATOM      2  P   LIG    1       -1.327  -1.332   0.995  0.00  0.00    +0.353 P 
ATOM      3  O   LIG    1        0.028  -1.525   1.643  0.00  0.00    -0.257 OA
BRANCH   2   4
ATOM      4  O   LIG    1       -2.459  -1.212   2.253  0.00  0.00    -0.323 OA
ATOM      5  H   LIG    1       -3.191  -1.870   2.171  0.00  0.00    +0.220 HD
ENDBRANCH   2   4
BRANCH   2   6
ATOM      6  O   LIG    1       -1.688  -2.609  -0.035  0.00  0.00    -0.323 OA
ATOM      7  H   LIG    1       -1.927  -2.320  -0.946  0.00  0.00    +0.220 HD
ENDBRANCH   2   6
ENDBRANCH   1   2
BRANCH   1   8
ATOM      8  P   LIG    1       -3.062   0.720  -0.307  0.00  0.00    +0.353 P 
ATOM      9  O   LIG    1       -4.032   0.050   0.671  0.00  0.00    -0.257 OA
BRANCH   8  10
ATOM     10  O   LIG    1       -3.255   2.396  -0.178  0.00  0.00    -0.323 OA
ATOM     11  H   LIG    1       -2.455   2.841   0.171  0.00  0.00    +0.220 HD
ENDBRANCH   8  10
BRANCH   8  12
ATOM     12  O   LIG    1       -3.484   0.219  -1.849  0.00  0.00    -0.323 OA
ATOM     13  H   LIG    1       -3.734   1.003  -2.397  0.00  0.00    +0.220 HD
ENDBRANCH   8  12
ENDBRANCH   1   8
BRANCH   1  14
ATOM     14  S   LIG    1       -0.232   0.317  -1.250  0.00  0.00    -0.097 S 
BRANCH  14  15
ATOM     15  C   LIG    1        1.448   0.257  -0.701  0.00  0.00    +0.009 A 
ATOM     16  C   LIG    1        2.145   1.401  -0.436  0.00  0.00    +0.016 A 
ATOM     17  C   LIG    1        3.468   1.375   0.005  0.00  0.00    +0.021 A 
ATOM     18  C   LIG    1        4.042   0.143   0.162  0.00  0.00    +0.041 A 
ATOM     19 CL   LIG    1        5.706   0.088   0.717  0.00  0.00    -0.084 Cl
ATOM     20  C   LIG    1        3.377  -1.040  -0.094  0.00  0.00    +0.021 A 
ATOM     21  C   LIG    1        2.048  -0.959  -0.535  0.00  0.00    +0.016 A 
ENDBRANCH  14  15
ENDBRANCH   1  14
TORSDOF 8
