REMARK  Name = molecules/DKNWSYNQZKUICI-CHIWXEEVSA-N.pdb
REMARK                            x       y       z     vdW  Elec       q    Type
REMARK                         _______ _______ _______ _____ _____    ______ ____
ROOT
ATOM      1  C   LIG    1        1.215   0.181   0.232  0.00  0.00    +0.017 C 
ATOM      2  C   LIG    1        0.650  -0.663   1.334  0.00  0.00    +0.025 C 
ATOM      3  C   LIG    1       -0.842  -0.846   1.108  0.00  0.00    -0.009 C 
ATOM      4  C   LIG    1       -1.552   0.480   1.081  0.00  0.00    +0.007 C 
ATOM      5  C   LIG    1       -0.915   1.368   0.062  0.00  0.00    -0.009 C 
ATOM      6  C   LIG    1       -1.129   0.711  -1.303  0.00  0.00    +0.007 C 
ATOM      7  C   LIG    1       -0.509  -0.653  -1.303  0.00  0.00    -0.009 C 
ATOM      8  C   LIG    1       -1.014  -1.548  -0.213  0.00  0.00    +0.007 C 
ATOM      9  C   LIG    1        0.563   1.533   0.244  0.00  0.00    +0.025 C 
ATOM     10  C   LIG    1        0.985  -0.485  -1.105  0.00  0.00    +0.025 C 
ENDROOT
BRANCH   1  11
ATOM     11  N   LIG    1        2.650   0.259   0.427  0.00  0.00    -0.325 NA
ATOM     12  H   LIG    1        2.979  -0.744   0.518  0.00  0.00    +0.119 HD
ATOM     13  H   LIG    1        3.090   0.638  -0.452  0.00  0.00    +0.119 HD
ENDBRANCH   1  11
TORSDOF 1
