REMARK  Name = molecules/DKOQGJHPHLTOJR-WHRDSVKCSA-N.pdb
REMARK                            x       y       z     vdW  Elec       q    Type
REMARK                         _______ _______ _______ _____ _____    ______ ____
ROOT
ATOM      1  CA  LIG    1        0.938   0.184   2.452  0.00  0.00    +0.128 C 
ATOM      2  N   LIG    1       -0.187  -0.720   2.310  0.00  0.00    -0.249 N 
ATOM      3  C   LIG    1       -1.446  -1.031   2.818  0.00  0.00    +0.244 C 
ATOM      4  O   LIG    1       -2.094  -0.743   3.901  0.00  0.00    -0.273 OA
ATOM      5  CA  LIG    1       -1.780  -1.834   1.632  0.00  0.00    +0.191 C 
ATOM      6  C   LIG    1       -0.302  -1.790   1.402  0.00  0.00    +0.169 C 
ATOM      7  S   LIG    1        0.199  -1.280  -0.229  0.00  0.00    -0.131 S 
ATOM      8  C   LIG    1        1.408  -0.018   0.049  0.00  0.00    +0.105 C 
ATOM      9  C   LIG    1        1.629   0.492   1.400  0.00  0.00    -0.014 C 
ENDROOT
BRANCH   5  10
ATOM     10  N   LIG    1       -2.564  -1.013   0.715  0.00  0.00    -0.296 N 
ATOM     11  H   LIG    1       -2.237  -0.076   0.551  0.00  0.00    +0.150 HD
ATOM     12  C   LIG    1       -3.724  -1.566   0.151  0.00  0.00    +0.268 C 
ATOM     13  O   LIG    1       -3.995  -2.809   0.537  0.00  0.00    -0.268 OA
BRANCH  12  14
ATOM     14  C   LIG    1       -4.677  -1.056  -0.768  0.00  0.00    +0.190 C 
ATOM     15  N   LIG    1       -5.704  -1.848  -1.055  0.00  0.00    -0.078 NA
BRANCH  14  16
ATOM     16  C   LIG    1       -4.693   0.275  -1.443  0.00  0.00    +0.107 A 
ATOM     17  C   LIG    1       -3.634   1.123  -1.469  0.00  0.00    +0.078 A 
ATOM     18  S   LIG    1       -4.290   2.496  -2.310  0.00  0.00    -0.060 S 
ATOM     19  C   LIG    1       -5.856   1.897  -2.569  0.00  0.00    +0.156 A 
ATOM     20  N   LIG    1       -5.805   0.720  -2.021  0.00  0.00    -0.223 NA
BRANCH  19  21
ATOM     21  N   LIG    1       -6.961   2.546  -3.234  0.00  0.00    -0.338 N 
ATOM     22  H   LIG    1       -7.179   3.512  -2.966  0.00  0.00    +0.144 HD
ATOM     23  H   LIG    1       -7.479   2.038  -3.931  0.00  0.00    +0.144 HD
ENDBRANCH  19  21
ENDBRANCH  14  16
BRANCH  15  24
ATOM     24  O   LIG    1       -5.885  -3.091  -0.527  0.00  0.00    -0.396 OA
ATOM     25  C   LIG    1       -7.227  -3.475  -0.243  0.00  0.00    +0.313 C 
ENDBRANCH  15  24
ENDBRANCH  12  14
ENDBRANCH   5  10
BRANCH   1  26
ATOM     26  C   LIG    1        1.233   0.732   3.788  0.00  0.00    +0.401 C 
ATOM     27  OXT LIG    1        0.425   0.352   4.729  0.00  0.00    -0.239 OA
ATOM     28  O   LIG    1        2.234   1.572   4.151  0.00  0.00    -0.239 OA
ENDBRANCH   1  26
BRANCH   9  29
ATOM     29  C   LIG    1        2.792   1.443   1.464  0.00  0.00    +0.143 C 
BRANCH  29  30
ATOM     30  N   LIG    1        4.038   0.870   1.081  0.00  0.00    -0.306 N 
ATOM     31  C   LIG    1        4.737   0.174   2.026  0.00  0.00    +0.072 C 
ATOM     32  C   LIG    1        5.929  -0.406   1.670  0.00  0.00    -0.003 C 
ATOM     33  C   LIG    1        6.438  -0.307   0.397  0.00  0.00    +0.051 C 
ATOM     34  C   LIG    1        5.706   0.409  -0.549  0.00  0.00    -0.045 C 
ATOM     35  C   LIG    1        6.045   0.671  -1.985  0.00  0.00    +0.033 C 
ATOM     36  C   LIG    1        5.191   1.909  -2.257  0.00  0.00    +0.010 C 
ATOM     37  C   LIG    1        3.974   1.696  -1.367  0.00  0.00    +0.051 C 
ATOM     38  C   LIG    1        4.524   0.980  -0.183  0.00  0.00    +0.011 C 
ENDBRANCH  29  30
ENDBRANCH   9  29
TORSDOF 8
