REMARK  Name = molecules/DKVBOUDTNWVDEP-NJCHZNEYSA-N.pdb
REMARK                            x       y       z     vdW  Elec       q    Type
REMARK                         _______ _______ _______ _____ _____    ______ ____
ROOT
ATOM      1  C   UNK A  7        5.421   3.856  -1.392  0.00  0.00    +0.128 A 
ATOM      2  C   UNK A  7        5.814   2.925  -0.444  0.00  0.00    +0.033 A 
ATOM      3  C   UNK A  7        4.763   2.331   0.416  0.00  0.00    +0.028 A 
ATOM      4  C   UNK A  7        4.102   3.332   1.181  0.00  0.00    +0.125 A 
ATOM      5  C   UNK A  7        3.170   3.007   2.160  0.00  0.00    +0.046 A 
ATOM      6  C   UNK A  7        2.936   1.675   2.345  0.00  0.00    +0.009 A 
ATOM      7  C   UNK A  7        3.570   0.651   1.611  0.00  0.00    -0.018 A 
ATOM      8  C   UNK A  5        3.218  -0.668   2.185  0.00  0.00    +0.190 C 
ATOM      9  N   UNK A  5        1.849  -1.061   2.101  0.00  0.00    -0.299 N 
ATOM     10  H   UNK A  5        1.631  -1.877   2.798  0.00  0.00    +0.150 HD
ATOM     11  C   UNK A  4        0.743  -0.610   1.352  0.00  0.00    +0.239 C 
ATOM     12  O   UNK A  4       -0.176   0.078   1.872  0.00  0.00    -0.273 OA
ATOM     13  C   UNK A  4        0.505  -0.875  -0.108  0.00  0.00    +0.190 C 
ATOM     14  C   UNK A  4        0.524  -2.346  -0.503  0.00  0.00    -0.011 A 
ATOM     15  C   UNK A  4       -0.667  -3.126  -0.410  0.00  0.00    +0.056 A 
ATOM     16  C   UNK A  4       -0.740  -4.452  -0.707  0.00  0.00    +0.174 A 
ATOM     17  O   UNK A  4       -1.903  -5.323  -0.680  0.00  0.00    -0.451 OA
ATOM     18  C   UNK A  4       -3.178  -4.610  -0.627  0.00  0.00    +0.147 A 
ATOM     19  C   UNK A  4       -3.630  -4.333   0.625  0.00  0.00    +0.048 A 
ATOM     20  C   UNK A  4       -4.821  -3.576   0.826  0.00  0.00    +0.007 A 
ATOM     21  C   UNK A  4       -5.518  -3.125  -0.272  0.00  0.00    -0.044 A 
ATOM     22  C   UNK A  4       -6.711  -2.235  -0.088  0.00  0.00    +0.067 C 
ATOM     23  C   UNK A  4       -6.317  -0.789   0.167  0.00  0.00    +0.163 C 
ATOM     24  N   UNK A  4       -7.391  -0.207   1.024  0.00  0.00    -0.302 N 
ATOM     25  H   ACE A  2       -7.004   0.139   1.972  0.00  0.00    +0.150 HD
ATOM     26  C   UNK A  1       -8.758  -0.085   0.763  0.00  0.00    +0.235 C 
ATOM     27  O   UNK A  1       -9.524  -0.837   1.496  0.00  0.00    -0.274 OA
ATOM     28  C   UNK A  1       -9.460   0.770  -0.206  0.00  0.00    +0.168 C 
ATOM     29  C   UNK A  1       -8.934   2.156  -0.449  0.00  0.00    -0.018 A 
ATOM     30  C   UNK A  1       -7.646   2.635  -0.303  0.00  0.00    +0.055 A 
ATOM     31  C   UNK A  1       -7.428   3.953  -0.654  0.00  0.00    +0.170 A 
ATOM     32  O   UNK A  1       -6.114   4.599  -0.578  0.00  0.00    -0.452 OA
ATOM     33  C   UNK A  1       -5.010   3.793  -0.112  0.00  0.00    +0.132 A 
ATOM     34  C   UNK A  1       -4.301   4.304   0.938  0.00  0.00    +0.091 A 
ATOM     35  C   UNK A  1       -3.255   3.611   1.519  0.00  0.00    +0.121 A 
ATOM     36  C   UNK A  1       -2.987   2.387   0.967  0.00  0.00    +0.051 A 
ATOM     37  C   UNK A  1       -3.701   1.840  -0.126  0.00  0.00    -0.011 A 
ATOM     38  C   UNK A  1       -3.138   0.445  -0.398  0.00  0.00    +0.190 C 
ATOM     39  N   UNK A  1       -3.709  -0.520   0.479  0.00  0.00    -0.299 N 
ATOM     40  H   ACE A  3       -3.035  -1.234   0.959  0.00  0.00    +0.150 HD
ATOM     41  C   UNK A  1       -1.675   0.573  -0.587  0.00  0.00    +0.239 C 
ATOM     42  O   ACE A  3       -1.427   1.910  -0.569  0.00  0.00    -0.273 OA
ATOM     43  C   UNK A  1       -4.716   2.539  -0.685  0.00  0.00    +0.052 A 
ATOM     44  C   UNK A  1       -8.405   4.791  -1.124  0.00  0.00    +0.159 A 
ATOM     45  C   UNK A  1       -9.723   4.329  -1.278  0.00  0.00    +0.049 A 
ATOM     46  C   UNK A  1       -9.929   3.013  -0.929  0.00  0.00    +0.009 A 
ATOM     47  C   UNK A  4       -5.029  -0.684   0.864  0.00  0.00    +0.234 C 
ATOM     48  O   UNK A  4       -5.244  -0.776   2.194  0.00  0.00    -0.274 OA
ATOM     49  C   UNK A  4       -5.045  -3.434  -1.536  0.00  0.00    +0.027 A 
ATOM     50  C   UNK A  4       -3.840  -4.203  -1.693  0.00  0.00    +0.083 A 
ATOM     51 CL   UNK A  4       -3.559  -4.526  -3.475  0.00  0.00    -0.080 Cl
ATOM     52  C   UNK A  4        0.390  -5.130  -1.110  0.00  0.00    +0.202 A 
ATOM     53  C   UNK A  4        1.582  -4.422  -1.209  0.00  0.00    +0.174 A 
ATOM     54  O   UNK A  4        2.664  -5.326  -1.605  0.00  0.00    -0.451 OA
ATOM     55  C   UNK A  4        3.949  -4.894  -1.065  0.00  0.00    +0.147 A 
ATOM     56  C   UNK A  6        4.166  -5.036   0.255  0.00  0.00    +0.048 A 
ATOM     57  C   UNK A  6        5.367  -4.537   0.859  0.00  0.00    +0.010 A 
ATOM     58  C   UNK A  6        6.333  -3.901   0.105  0.00  0.00    -0.015 A 
ATOM     59  C   UNK A  6        7.426  -3.092   0.809  0.00  0.00    +0.174 C 
ATOM     60  C   UNK A  6        6.739  -1.710   1.232  0.00  0.00    +0.192 C 
ATOM     61  N   UNK A  6        5.300  -1.905   1.149  0.00  0.00    -0.300 N 
ATOM     62  H   UNK A  6        5.128  -2.206   0.106  0.00  0.00    +0.150 HD
ATOM     63  C   UNK A  6        7.277  -0.784   0.207  0.00  0.00    +0.237 C 
ATOM     64  N   UNK A  7        8.035   0.385   0.247  0.00  0.00    -0.297 N 
ATOM     65  C   UNK A  7        7.802   1.726   0.647  0.00  0.00    +0.213 C 
ATOM     66  H   UNK A  7        9.062   0.205  -0.154  0.00  0.00    +0.150 HD
ATOM     67  O   UNK A  6        6.944  -1.193  -0.996  0.00  0.00    -0.274 OA
ATOM     68  C   UNK A  6        6.082  -3.807  -1.250  0.00  0.00    +0.030 A 
ATOM     69  C   UNK A  6        4.875  -4.311  -1.838  0.00  0.00    +0.083 A 
ATOM     70 CL   UNK A  6        4.925  -4.071  -3.637  0.00  0.00    -0.080 Cl
ATOM     71  C   UNK A  4        1.643  -3.081  -0.928  0.00  0.00    +0.056 A 
ATOM     72  N   UNK A  4       -0.530  -0.121  -0.772  0.00  0.00    -0.298 N 
ATOM     73  H   UNK A  4       -0.193  -0.137  -1.860  0.00  0.00    +0.150 HD
ATOM     74  C   UNK A  5        4.199  -1.807   2.018  0.00  0.00    +0.239 C 
ATOM     75  O   UNK A  5        3.819  -2.712   2.856  0.00  0.00    -0.273 OA
ATOM     76  C   UNK A  7        4.479   0.991   0.636  0.00  0.00    +0.018 A 
ATOM     77  C   UNK A  7        7.197   2.645  -0.390  0.00  0.00    -0.002 A 
ATOM     78  C   UNK A  7        8.053   3.284  -1.246  0.00  0.00    +0.052 A 
ATOM     79  C   UNK A  7        7.614   4.215  -2.186  0.00  0.00    +0.121 A 
ATOM     80  C   UNK A  7        6.280   4.492  -2.245  0.00  0.00    +0.091 A 
ENDROOT
BRANCH  28  81
ATOM     81  N   UNK A  1       -9.799   0.086  -1.434  0.00  0.00    -0.316 NA
ATOM     82  H   UNK A  1      -10.701  -0.416  -1.308  0.00  0.00    +0.119 HD
ATOM     83  H   UNK A  1       -9.832   0.797  -2.207  0.00  0.00    +0.119 HD
ENDBRANCH  28  81
BRANCH   1  84
ATOM     84  O   UNK A  7        4.049   4.172  -1.496  0.00  0.00    -0.506 OA
ATOM     85  H   UNK A  7        3.697   4.836  -2.136  0.00  0.00    +0.292 HD
ENDBRANCH   1  84
BRANCH  35  86
ATOM     86  O   UNK A  1       -2.537   4.126   2.580  0.00  0.00    -0.507 OA
ATOM     87  H   UNK A  1       -2.702   5.007   3.002  0.00  0.00    +0.292 HD
ENDBRANCH  35  86
BRANCH  44  88
ATOM     88  O   UNK A  1       -8.199   6.111  -1.475  0.00  0.00    -0.503 OA
ATOM     89  H   UNK A  1       -8.957   6.668  -1.808  0.00  0.00    +0.292 HD
ENDBRANCH  44  88
BRANCH  65  90
ATOM     90  C   UNK A  7        7.257   1.976   1.976  0.00  0.00    +0.330 C 
ATOM     91  O   UNK A  7        6.967   1.073   2.742  0.00  0.00    -0.249 OA
BRANCH  90  92
ATOM     92  O   UNK A  7        7.072   3.287   2.366  0.00  0.00    -0.479 OA
ATOM     93  H   UNK A  7        7.435   3.608   3.259  0.00  0.00    +0.295 HD
ENDBRANCH  90  92
ENDBRANCH  65  90
BRANCH  59  94
ATOM     94  O   UNK A  6        8.584  -2.844   0.108  0.00  0.00    -0.385 OA
ATOM     95  H   UNK A  6        8.813  -3.681  -0.392  0.00  0.00    +0.210 HD
ENDBRANCH  59  94
BRANCH  52  96
ATOM     96  O   UNK A  4        0.329  -6.518  -1.415  0.00  0.00    -0.501 OA
ATOM     97  H   UNK A  4       -0.509  -7.039  -1.357  0.00  0.00    +0.292 HD
ENDBRANCH  52  96
BRANCH   4  98
ATOM     98  O   UNK A  7        4.311   4.682   1.058  0.00  0.00    -0.506 OA
ATOM     99  H   UNK A  7        4.970   5.150   0.530  0.00  0.00    +0.292 HD
ENDBRANCH   4  98
BRANCH  79 100
ATOM    100  O   UNK A  7        8.550   4.824  -3.023  0.00  0.00    -0.507 OA
ATOM    101  H   UNK A  7        9.010   5.710  -2.748  0.00  0.00    +0.292 HD
ENDBRANCH  79 100
TORSDOF 10
