REMARK  Name = molecules/DLEGDLSLRSOURQ-UHFFFAOYSA-N.pdb
REMARK                            x       y       z     vdW  Elec       q    Type
REMARK                         _______ _______ _______ _____ _____    ______ ____
ROOT
ATOM      1  F   LIG    1       -1.999   1.409   0.961  0.00  0.00    -0.167 F 
ATOM      2  C   LIG    1       -2.109   0.228   0.244  0.00  0.00    +0.424 C 
ATOM      3  F   LIG    1       -2.906  -0.651   0.985  0.00  0.00    -0.167 F 
ATOM      4  F   LIG    1       -2.658   0.491  -0.978  0.00  0.00    -0.167 F 
ENDROOT
BRANCH   2   5
ATOM      5  C   LIG    1       -0.752  -0.419   0.134  0.00  0.00    +0.341 C 
BRANCH   5   6
ATOM      6  O   LIG    1        0.184   0.403  -0.523  0.00  0.00    -0.491 OA
BRANCH   6   7
ATOM      7  C   LIG    1        1.468  -0.093  -0.680  0.00  0.00    +0.180 C 
ATOM      8  C   LIG    1        2.506   0.375  -0.017  0.00  0.00    +0.049 C 
ENDBRANCH   6   7
ENDBRANCH   5   6
ENDBRANCH   2   5
TORSDOF 3
