REMARK  Name = molecules/DLJKPYFALUEJCK-IIELGFQLSA-N.pdb
REMARK                            x       y       z     vdW  Elec       q    Type
REMARK                         _______ _______ _______ _____ _____    ______ ____
ROOT
ATOM      1  C   LIG    1       -1.497  -1.336   0.034  0.00  0.00    +0.031 C 
ATOM      2  C   LIG    1       -0.960  -2.622   0.635  0.00  0.00    +0.121 C 
ATOM      3  C   LIG    1       -0.184  -3.318  -0.449  0.00  0.00    +0.063 C 
ATOM      4  C   LIG    1       -0.260  -2.459  -1.678  0.00  0.00    +0.124 C 
ATOM      5  C   LIG    1       -0.588  -1.105  -1.117  0.00  0.00    +0.046 C 
ENDROOT
BRANCH   5   6
ATOM      6  C   LIG    1        0.701  -0.545  -0.576  0.00  0.00    -0.022 C 
ATOM      7  C   LIG    1        1.224   0.580  -1.020  0.00  0.00    +0.003 C 
BRANCH   7   8
ATOM      8  C   LIG    1        2.494   1.168  -0.513  0.00  0.00    +0.081 C 
ATOM      9  C   LIG    1        3.169   2.044  -1.534  0.00  0.00    +0.046 C 
BRANCH   8  10
ATOM     10  O   LIG    1        2.173   1.971   0.587  0.00  0.00    -0.385 OA
ATOM     11  H   LIG    1        2.299   1.460   1.408  0.00  0.00    +0.211 HD
ENDBRANCH   8  10
BRANCH   8  12
ATOM     12  C   LIG    1        3.466   0.128  -0.037  0.00  0.00    +0.039 C 
BRANCH  12  13
ATOM     13  C   LIG    1        4.705   0.849   0.449  0.00  0.00    +0.003 C 
BRANCH  13  14
ATOM     14  C   LIG    1        5.751  -0.131   0.954  0.00  0.00    -0.000 C 
BRANCH  14  15
ATOM     15  C   LIG    1        6.947   0.677   1.417  0.00  0.00    -0.003 C 
ATOM     16  C   LIG    1        7.520   1.496   0.273  0.00  0.00    +0.004 C 
ENDBRANCH  14  15
ENDBRANCH  13  14
ENDBRANCH  12  13
ENDBRANCH   8  12
ENDBRANCH   7   8
ENDBRANCH   5   6
BRANCH   4  17
ATOM     17  O   LIG    1       -1.254  -2.956  -2.506  0.00  0.00    -0.391 OA
ATOM     18  H   LIG    1       -0.915  -3.585  -3.174  0.00  0.00    +0.210 HD
ENDBRANCH   4  17
BRANCH   2  19
ATOM     19  O   LIG    1       -2.025  -3.479   0.991  0.00  0.00    -0.391 OA
ATOM     20  H   LIG    1       -1.748  -4.127   1.675  0.00  0.00    +0.210 HD
ENDBRANCH   2  19
BRANCH   1  21
ATOM     21  C   LIG    1       -2.933  -1.565  -0.320  0.00  0.00    +0.033 C 
BRANCH  21  22
ATOM     22  C   LIG    1       -3.589  -0.492  -1.030  0.00  0.00    -0.031 C 
ATOM     23  C   LIG    1       -4.647   0.120  -0.547  0.00  0.00    -0.031 C 
BRANCH  23  24
ATOM     24  C   LIG    1       -5.317  -0.166   0.742  0.00  0.00    +0.027 C 
BRANCH  24  25
ATOM     25  C   LIG    1       -5.265   1.084   1.595  0.00  0.00    +0.015 C 
BRANCH  25  26
ATOM     26  C   LIG    1       -5.926   2.274   1.010  0.00  0.00    +0.121 C 
BRANCH  26  27
ATOM     27  C   LIG    1       -7.375   2.141   0.757  0.00  0.00    +0.305 C 
ATOM     28  O   LIG    1       -8.062   1.137   1.042  0.00  0.00    -0.251 OA
BRANCH  27  29
ATOM     29  O   LIG    1       -8.101   3.191   0.152  0.00  0.00    -0.481 OA
ATOM     30  H   LIG    1       -8.050   4.112   0.582  0.00  0.00    +0.295 HD
ENDBRANCH  27  29
ENDBRANCH  26  27
ENDBRANCH  25  26
ENDBRANCH  24  25
ENDBRANCH  23  24
ENDBRANCH  21  22
ENDBRANCH   1  21
TORSDOF 16
