REMARK  Name = molecules/DLNKOYKMWOXYQA-IONNQARKSA-N.pdb
REMARK                            x       y       z     vdW  Elec       q    Type
REMARK                         _______ _______ _______ _____ _____    ______ ____
ROOT
ATOM      1  C   LIG    1       -0.823  -0.865   0.177  0.00  0.00    +0.161 C 
ENDROOT
BRANCH   1   2
ATOM      2  C   LIG    1        0.572  -0.397   0.198  0.00  0.00    -0.018 A 
ATOM      3  C   LIG    1        1.086   0.143   1.356  0.00  0.00    +0.006 A 
ATOM      4  C   LIG    1        2.402   0.601   1.427  0.00  0.00    +0.000 A 
ATOM      5  C   LIG    1        3.215   0.517   0.323  0.00  0.00    +0.000 A 
ATOM      6  C   LIG    1        2.724  -0.016  -0.838  0.00  0.00    +0.000 A 
ATOM      7  C   LIG    1        1.406  -0.468  -0.888  0.00  0.00    +0.006 A 
ENDBRANCH   1   2
BRANCH   1   8
ATOM      8  O   LIG    1       -0.932  -2.126  -0.454  0.00  0.00    -0.386 OA
ATOM      9  H   LIG    1       -0.512  -2.120  -1.334  0.00  0.00    +0.210 HD
ENDBRANCH   1   8
BRANCH   1  10
ATOM     10  C   LIG    1       -1.748   0.061  -0.576  0.00  0.00    +0.081 C 
ATOM     11  C   LIG    1       -1.787   1.446  -0.026  0.00  0.00    +0.026 C 
BRANCH  10  12
ATOM     12  N   LIG    1       -3.083  -0.505  -0.460  0.00  0.00    -0.325 NA
ATOM     13  H   LIG    1       -3.296  -0.542   0.562  0.00  0.00    +0.119 HD
ATOM     14  H   LIG    1       -3.012  -1.492  -0.786  0.00  0.00    +0.119 HD
ENDBRANCH  10  12
ENDBRANCH   1  10
TORSDOF 4
