REMARK  Name = molecules/DLVOSEUFIRPIRM-KAQKJVHQSA-N.pdb
REMARK                            x       y       z     vdW  Elec       q    Type
REMARK                         _______ _______ _______ _____ _____    ______ ____
ROOT
ATOM      1  C   LIG    1       -0.316  -0.820  -0.657  0.00  0.00    +0.015 C 
ATOM      2  C   LIG    1       -0.945  -1.226   0.607  0.00  0.00    +0.009 C 
ATOM      3  C   LIG    1        0.086  -1.694   1.610  0.00  0.00    +0.133 C 
ATOM      4  C   LIG    1        0.674  -0.422   2.123  0.00  0.00    +0.043 C 
ATOM      5  C   LIG    1       -0.317   0.687   1.785  0.00  0.00    +0.008 C 
ATOM      6  C   LIG    1       -1.533  -0.066   1.399  0.00  0.00    +0.002 C 
ATOM      7  C   LIG    1       -2.540   0.627   0.570  0.00  0.00    -0.001 C 
ATOM      8  C   LIG    1       -3.036   1.859   1.282  0.00  0.00    +0.008 C 
ATOM      9  C   LIG    1       -4.496   1.857   1.592  0.00  0.00    +0.032 C 
ATOM     10  C   LIG    1       -5.307   1.446   0.445  0.00  0.00    -0.060 C 
ATOM     11  C   LIG    1       -6.480   1.984   0.152  0.00  0.00    +0.046 C 
ATOM     12  C   LIG    1       -7.202   1.500  -1.003  0.00  0.00    +0.156 C 
ATOM     13  C   LIG    1       -6.990   0.108  -1.473  0.00  0.00    +0.080 C 
ATOM     14  C   LIG    1       -5.942  -0.607  -0.663  0.00  0.00    +0.019 C 
ATOM     15  O   LIG    1       -8.006   2.232  -1.620  0.00  0.00    -0.293 OA
ATOM     16  C   LIG    1       -4.762   0.348  -0.433  0.00  0.00    -0.005 C 
ATOM     17  C   LIG    1       -4.368   0.876  -1.758  0.00  0.00    +0.016 C 
ATOM     18  C   LIG    1       -3.688  -0.310   0.360  0.00  0.00    +0.031 C 
ATOM     19  C   LIG    1       -3.295  -1.654  -0.170  0.00  0.00    +0.119 C 
ATOM     20  C   LIG    1       -2.061  -2.225   0.450  0.00  0.00    +0.041 C 
ENDROOT
BRANCH   3  21
ATOM     21  O   LIG    1       -0.674  -2.313   2.685  0.00  0.00    -0.380 OA
ATOM     22  H   LIG    1       -0.373  -1.888   3.522  0.00  0.00    +0.211 HD
ENDBRANCH   3  21
BRANCH   3  23
ATOM     23  C   LIG    1        0.997  -2.671   1.056  0.00  0.00    +0.202 C 
ATOM     24  O   LIG    1        0.724  -3.884   1.299  0.00  0.00    -0.291 OA
BRANCH  23  25
ATOM     25  C   LIG    1        2.209  -2.510   0.251  0.00  0.00    +0.309 C 
BRANCH  25  26
ATOM     26  O   LIG    1        2.611  -1.187   0.062  0.00  0.00    -0.457 OA
BRANCH  26  27
ATOM     27  C   LIG    1        3.757  -0.908  -0.704  0.00  0.00    +0.307 C 
ATOM     28  O   LIG    1        4.366  -1.882  -1.186  0.00  0.00    -0.251 OA
BRANCH  27  29
ATOM     29  C   LIG    1        4.166   0.497  -0.890  0.00  0.00    +0.121 C 
BRANCH  29  30
ATOM     30  C   LIG    1        5.403   0.675  -1.712  0.00  0.00    +0.014 C 
BRANCH  30  31
ATOM     31  C   LIG    1        6.605   0.004  -1.113  0.00  0.00    -0.010 C 
ATOM     32  C   LIG    1        6.929   0.543   0.260  0.00  0.00    +0.003 C 
ATOM     33  C   LIG    1        7.416   1.940  -0.054  0.00  0.00    +0.000 C 
ATOM     34  C   LIG    1        8.171   1.803  -1.374  0.00  0.00    +0.000 C 
ATOM     35  C   LIG    1        7.872   0.401  -1.876  0.00  0.00    +0.003 C 
ENDBRANCH  30  31
ENDBRANCH  29  30
ENDBRANCH  27  29
ENDBRANCH  26  27
ENDBRANCH  25  26
ENDBRANCH  23  25
ENDBRANCH   3  23
BRANCH  19  36
ATOM     36  O   LIG    1       -3.192  -1.666  -1.565  0.00  0.00    -0.391 OA
ATOM     37  H   LIG    1       -2.598  -2.351  -1.906  0.00  0.00    +0.210 HD
ENDBRANCH  19  36
TORSDOF 9
