REMARK  Name = molecules/DMDGGSIALPNSEE-UHFFFAOYSA-N.pdb
REMARK                            x       y       z     vdW  Elec       q    Type
REMARK                         _______ _______ _______ _____ _____    ______ ____
ROOT
ATOM      1  O   LIG    1        2.684  -2.347   1.053  0.00  0.00    -0.153 OA
ATOM      2  S   LIG    1        2.530  -1.623  -0.267  0.00  0.00    +0.062 S 
ATOM      3  C   LIG    1        1.096  -0.621  -0.196  0.00  0.00    +0.128 A 
ATOM      4  C   LIG    1        1.243   0.756  -0.058  0.00  0.00    +0.055 A 
ATOM      5  N   LIG    1        2.532   1.310   0.019  0.00  0.00    -0.328 N 
ATOM      6  C   LIG    1        3.647   0.545   0.509  0.00  0.00    +0.209 C 
ATOM      7  H   LIG    1        2.654   2.298  -0.292  0.00  0.00    +0.147 HD
ATOM      8  C   LIG    1        0.118   1.549  -0.001  0.00  0.00    +0.039 A 
ATOM      9  C   LIG    1       -1.158   0.966  -0.082  0.00  0.00    +0.083 A 
ATOM     10  C   LIG    1       -1.288  -0.394  -0.217  0.00  0.00    +0.119 A 
ATOM     11  C   LIG    1       -0.145  -1.208  -0.275  0.00  0.00    +0.059 A 
ATOM     12  N   LIG    1        3.887  -0.543  -0.452  0.00  0.00    -0.173 NA
ATOM     13  H   LIG    1        3.768  -0.108  -1.395  0.00  0.00    +0.150 HD
ATOM     14  O   LIG    1        2.461  -2.591  -1.403  0.00  0.00    -0.153 OA
ENDROOT
BRANCH   9  15
ATOM     15  C   LIG    1       -2.315   1.849  -0.016  0.00  0.00    +0.419 C 
ATOM     16  F   LIG    1       -3.134   1.582   1.057  0.00  0.00    -0.166 F 
ATOM     17  F   LIG    1       -1.925   3.183   0.138  0.00  0.00    -0.166 F 
ATOM     18  F   LIG    1       -3.098   1.821  -1.151  0.00  0.00    -0.166 F 
ENDBRANCH   9  15
BRANCH  10  19
ATOM     19  S   LIG    1       -2.852  -1.125  -0.317  0.00  0.00    +0.057 S 
ATOM     20  O   LIG    1       -2.697  -2.635  -0.472  0.00  0.00    -0.153 OA
ATOM     21  O   LIG    1       -3.552  -0.686  -1.584  0.00  0.00    -0.153 OA
BRANCH  19  22
ATOM     22  N   LIG    1       -3.835  -0.897   1.065  0.00  0.00    -0.203 NA
ATOM     23  H   LIG    1       -3.598  -1.633   1.767  0.00  0.00    +0.144 HD
ATOM     24  H   LIG    1       -4.839  -0.996   0.746  0.00  0.00    +0.144 HD
ENDBRANCH  19  22
ENDBRANCH  10  19
TORSDOF 3
