REMARK  Name = molecules/DMXLLYHBWUOZCZ-UHFFFAOYSA-N.pdb
REMARK                            x       y       z     vdW  Elec       q    Type
REMARK                         _______ _______ _______ _____ _____    ______ ____
ROOT
ATOM      1  C   LIG    1       -2.176   0.049  -0.557  0.00  0.00    +0.213 C 
ENDROOT
BRANCH   1   2
ATOM      2  C   LIG    1       -2.938   1.044   0.259  0.00  0.00    -0.001 A 
ATOM      3  C   LIG    1       -3.225   0.836   1.581  0.00  0.00    +0.007 A 
ATOM      4  C   LIG    1       -3.929   1.799   2.264  0.00  0.00    +0.000 A 
ATOM      5  C   LIG    1       -4.361   2.968   1.686  0.00  0.00    +0.000 A 
ATOM      6  C   LIG    1       -4.068   3.168   0.357  0.00  0.00    +0.000 A 
ATOM      7  C   LIG    1       -3.364   2.210  -0.335  0.00  0.00    +0.007 A 
ENDBRANCH   1   2
BRANCH   1   8
ATOM      8  C   LIG    1       -2.902  -1.236  -0.660  0.00  0.00    -0.001 A 
ATOM      9  C   LIG    1       -2.301  -2.378  -0.196  0.00  0.00    +0.007 A 
ATOM     10  C   LIG    1       -3.013  -3.569  -0.314  0.00  0.00    +0.000 A 
ATOM     11  C   LIG    1       -4.268  -3.606  -0.872  0.00  0.00    +0.000 A 
ATOM     12  C   LIG    1       -4.829  -2.430  -1.324  0.00  0.00    +0.000 A 
ATOM     13  C   LIG    1       -4.159  -1.228  -1.227  0.00  0.00    +0.007 A 
ENDBRANCH   1   8
BRANCH   1  14
ATOM     14  C   LIG    1       -0.836  -0.052   0.036  0.00  0.00    +0.349 C 
ATOM     15  O   LIG    1       -0.700  -0.448   1.224  0.00  0.00    -0.247 OA
BRANCH  14  16
ATOM     16  O   LIG    1        0.335   0.266  -0.628  0.00  0.00    -0.459 OA
BRANCH  16  17
ATOM     17  C   LIG    1        1.622   0.196  -0.136  0.00  0.00    +0.173 C 
ATOM     18  C   LIG    1        2.405   1.464  -0.192  0.00  0.00    +0.026 C 
ATOM     19  C   LIG    1        3.680   1.293   0.561  0.00  0.00    -0.072 C 
ATOM     20  N   LIG    1        4.446   0.143   0.232  0.00  0.00    +0.376 N 
ATOM     21  C   LIG    1        5.307  -0.149   1.390  0.00  0.00    -0.092 C 
ATOM     22  C   LIG    1        3.698  -1.047  -0.036  0.00  0.00    -0.072 C 
ATOM     23  C   LIG    1        5.341   0.380  -0.891  0.00  0.00    -0.092 C 
ATOM     24  C   LIG    1        2.476  -0.853  -0.863  0.00  0.00    +0.026 C 
ENDBRANCH  16  17
ENDBRANCH  14  16
ENDBRANCH   1  14
BRANCH   1  25
ATOM     25  O   LIG    1       -2.101   0.548  -1.854  0.00  0.00    -0.370 OA
ATOM     26  H   LIG    1       -1.173   0.655  -2.132  0.00  0.00    +0.212 HD
ENDBRANCH   1  25
TORSDOF 6
