REMARK  Name = molecules/DNADMXUXHNLBKR-HSXTZPDUSA-N.pdb
REMARK                            x       y       z     vdW  Elec       q    Type
REMARK                         _______ _______ _______ _____ _____    ______ ____
ROOT
ATOM      1  C   LIG    1       -2.788   0.871   0.987  0.00  0.00    +0.016 C 
ATOM      2  C   LIG    1       -2.600   0.485  -0.490  0.00  0.00    -0.007 C 
ATOM      3  C   LIG    1       -3.419  -0.748  -0.667  0.00  0.00    -0.060 C 
ATOM      4  C   LIG    1       -3.067  -1.988   0.104  0.00  0.00    +0.032 C 
ATOM      5  C   LIG    1       -1.644  -2.090   0.436  0.00  0.00    +0.008 C 
ATOM      6  C   LIG    1       -0.810  -0.841   0.416  0.00  0.00    -0.003 C 
ATOM      7  C   LIG    1        0.652  -1.147   0.322  0.00  0.00    +0.001 C 
ATOM      8  C   LIG    1        1.184  -1.995   1.433  0.00  0.00    +0.007 C 
ATOM      9  C   LIG    1        2.650  -1.631   1.478  0.00  0.00    +0.032 C 
ATOM     10  C   LIG    1        2.842  -0.465   0.537  0.00  0.00    +0.128 C 
ATOM     11  C   LIG    1        1.425   0.127   0.528  0.00  0.00    -0.003 C 
ATOM     12  C   LIG    1        1.214   0.791   1.832  0.00  0.00    +0.014 C 
ATOM     13  C   LIG    1        1.194   0.981  -0.681  0.00  0.00    +0.010 C 
ATOM     14  C   LIG    1       -0.239   1.111  -1.070  0.00  0.00    +0.005 C 
ATOM     15  C   LIG    1       -4.455  -0.835  -1.479  0.00  0.00    +0.046 C 
ATOM     16  C   LIG    1       -4.865   0.333  -2.283  0.00  0.00    +0.156 C 
ATOM     17  O   LIG    1       -6.034   0.549  -2.607  0.00  0.00    -0.293 OA
ATOM     18  C   LIG    1       -3.695   1.214  -2.653  0.00  0.00    +0.080 C 
ATOM     19  C   LIG    1       -1.180   0.030  -0.742  0.00  0.00    +0.002 C 
ATOM     20  C   LIG    1       -3.094   1.605  -1.307  0.00  0.00    +0.019 C 
ENDROOT
BRANCH  10  21
ATOM     21  O   LIG    1        3.688   0.499   1.014  0.00  0.00    -0.344 OA
BRANCH  21  22
ATOM     22  C   LIG    1        4.661   0.903   0.138  0.00  0.00    +0.299 C 
BRANCH  22  23
ATOM     23  C   LIG    1        6.061   0.555   0.616  0.00  0.00    +0.241 C 
ATOM     24 CL   LIG    1        6.419   1.372   2.164  0.00  0.00    -0.078 Cl
ATOM     25 CL   LIG    1        6.266  -1.175   0.860  0.00  0.00    -0.078 Cl
ATOM     26 CL   LIG    1        7.286   1.098  -0.552  0.00  0.00    -0.078 Cl
ENDBRANCH  22  23
BRANCH  22  27
ATOM     27  O   LIG    1        4.586   2.235  -0.222  0.00  0.00    -0.364 OA
ATOM     28  H   LIG    1        4.265   2.831   0.477  0.00  0.00    +0.213 HD
ENDBRANCH  22  27
ENDBRANCH  21  22
ENDBRANCH  10  21
TORSDOF 4
