REMARK  Name = molecules/DNIAPMSPPWPWGF-GSVOUGTGSA-N.pdb
REMARK                            x       y       z     vdW  Elec       q    Type
REMARK                         _______ _______ _______ _____ _____    ______ ____
ROOT
ATOM      1  C   LIG    1        1.478   0.332   0.187  0.00  0.00    +0.040 C 
ATOM      2  C   LIG    1        0.355  -0.557  -0.266  0.00  0.00    +0.137 C 
ENDROOT
BRANCH   2   3
ATOM      3  O   LIG    1        0.095  -1.470   0.754  0.00  0.00    -0.390 OA
ATOM      4  H   LIG    1       -0.693  -1.179   1.258  0.00  0.00    +0.210 HD
ENDBRANCH   2   3
BRANCH   2   5
ATOM      5  C   LIG    1       -0.917   0.181  -0.562  0.00  0.00    +0.186 C 
BRANCH   5   6
ATOM      6  O   LIG    1       -1.392   0.873   0.564  0.00  0.00    -0.392 OA
ATOM      7  H   LIG    1       -2.331   1.112   0.470  0.00  0.00    +0.210 HD
ENDBRANCH   5   6
ENDBRANCH   2   5
TORSDOF 3
