REMARK  Name = molecules/DNKPFCQEGBJJTE-UHFFFAOYSA-N.pdb
REMARK                            x       y       z     vdW  Elec       q    Type
REMARK                         _______ _______ _______ _____ _____    ______ ____
ROOT
ATOM      1  C   LIG    1       -0.097   0.088   0.592  0.00  0.00    +0.134 C 
ENDROOT
BRANCH   1   2
ATOM      2  O   LIG    1       -0.997   1.102   0.837  0.00  0.00    -0.390 OA
ATOM      3  H   LIG    1       -0.651   1.628   1.602  0.00  0.00    +0.210 HD
ENDBRANCH   1   2
BRANCH   1   4
ATOM      4  C   LIG    1       -0.750  -1.052  -0.202  0.00  0.00    +0.106 C 
ATOM      5  I   LIG    1       -1.623  -0.289  -1.961  0.00  0.00    -0.083 I 
ENDBRANCH   1   4
BRANCH   1   6
ATOM      6  C   LIG    1        0.955   0.655  -0.374  0.00  0.00    +0.106 C 
ATOM      7  I   LIG    1        2.306  -0.918  -0.835  0.00  0.00    -0.083 I 
ENDBRANCH   1   6
TORSDOF 3
