REMARK  Name = molecules/DNTGGZPQPQTDQF-UHFFFAOYSA-N.pdb
REMARK                            x       y       z     vdW  Elec       q    Type
REMARK                         _______ _______ _______ _____ _____    ______ ____
ROOT
ATOM      1  N   LIG    1       -0.038  -0.043   0.637  0.00  0.00    -0.268 N 
ATOM      2  C   LIG    1        1.062  -0.659   0.008  0.00  0.00    +0.243 C 
ATOM      3  O   LIG    1        0.822  -1.632  -0.784  0.00  0.00    -0.270 OA
ENDROOT
BRANCH   1   4
ATOM      4  C   LIG    1       -1.339  -0.472   0.333  0.00  0.00    +0.039 A 
ATOM      5  C   LIG    1       -1.751  -1.673   0.917  0.00  0.00    +0.024 A 
ATOM      6  C   LIG    1       -2.983  -2.223   0.697  0.00  0.00    +0.002 A 
ATOM      7  C   LIG    1       -3.834  -1.540  -0.141  0.00  0.00    +0.000 A 
ATOM      8  C   LIG    1       -3.444  -0.362  -0.721  0.00  0.00    +0.005 A 
ATOM      9  C   LIG    1       -2.180   0.184  -0.484  0.00  0.00    -0.029 A 
ATOM     10  C   LIG    1       -1.898   1.449  -1.190  0.00  0.00    +0.045 C 
ENDBRANCH   1   4
BRANCH   2  11
ATOM     11  C   LIG    1        2.439  -0.259   0.202  0.00  0.00    +0.063 C 
ATOM     12  C   LIG    1        3.421  -0.879  -0.417  0.00  0.00    -0.025 C 
ATOM     13  C   LIG    1        4.854  -0.565  -0.300  0.00  0.00    +0.035 C 
ENDBRANCH   2  11
BRANCH   1  14
ATOM     14  C   LIG    1        0.213   0.955   1.635  0.00  0.00    +0.110 C 
ATOM     15  C   LIG    1        0.346   2.326   1.033  0.00  0.00    +0.025 C 
ENDBRANCH   1  14
TORSDOF 3
