REMARK  Name = molecules/DNVVZWSVACQWJE-UHFFFAOYSA-N.pdb
REMARK                            x       y       z     vdW  Elec       q    Type
REMARK                         _______ _______ _______ _____ _____    ______ ____
ROOT
ATOM      1  C   LIG    1       -1.312   0.264   0.244  0.00  0.00    +0.101 A 
ATOM      2  C   LIG    1       -2.080   1.158   0.949  0.00  0.00    +0.133 A 
ATOM      3  C   LIG    1       -3.475   1.013   0.861  0.00  0.00    +0.069 A 
ATOM      4  C   LIG    1       -4.087   0.043   0.122  0.00  0.00    +0.028 A 
ATOM      5  C   LIG    1       -3.267  -0.845  -0.579  0.00  0.00    +0.024 A 
ATOM      6  C   LIG    1       -1.909  -0.730  -0.514  0.00  0.00    +0.020 A 
ENDROOT
BRANCH   4   7
ATOM      7  N   LIG    1       -5.503  -0.084   0.049  0.00  0.00    -0.358 N 
ATOM      8  H   LIG    1       -6.090   0.456   0.702  0.00  0.00    +0.142 HD
ATOM      9  H   LIG    1       -5.940  -0.707  -0.648  0.00  0.00    +0.142 HD
ENDBRANCH   4   7
BRANCH   1  10
ATOM     10  C   LIG    1        0.139   0.333   0.272  0.00  0.00    +0.348 C 
ATOM     11  O   LIG    1        0.825   1.165   0.904  0.00  0.00    -0.244 OA
BRANCH  10  12
ATOM     12  O   LIG    1        0.914  -0.593  -0.457  0.00  0.00    -0.422 OA
BRANCH  12  13
ATOM     13  C   LIG    1        2.297  -0.533  -0.435  0.00  0.00    +0.132 A 
ATOM     14  C   LIG    1        3.076  -1.202   0.487  0.00  0.00    +0.046 A 
ATOM     15  C   LIG    1        4.440  -1.130   0.492  0.00  0.00    +0.004 A 
ATOM     16  C   LIG    1        5.092  -0.360  -0.456  0.00  0.00    +0.000 A 
ATOM     17  C   LIG    1        4.341   0.325  -1.395  0.00  0.00    +0.004 A 
ATOM     18  C   LIG    1        2.949   0.235  -1.379  0.00  0.00    +0.046 A 
ENDBRANCH  12  13
ENDBRANCH  10  12
ENDBRANCH   1  10
BRANCH   2  19
ATOM     19  O   LIG    1       -1.573   2.172   1.724  0.00  0.00    -0.506 OA
ATOM     20  H   LIG    1       -0.673   2.461   1.932  0.00  0.00    +0.292 HD
ENDBRANCH   2  19
TORSDOF 5
