REMARK  Name = molecules/DNYGXMICFMACRA-XHEDQWPISA-N.pdb
REMARK                            x       y       z     vdW  Elec       q    Type
REMARK                         _______ _______ _______ _____ _____    ______ ____
ROOT
ATOM      1  C   LIG    1        1.489  -1.861  -0.810  0.00  0.00    +0.169 C 
ATOM      2  C   LIG    1        0.259  -1.668   0.032  0.00  0.00    +0.175 C 
ATOM      3  C   LIG    1       -0.642  -0.565  -0.436  0.00  0.00    +0.169 C 
ATOM      4  C   LIG    1        0.060   0.447  -1.295  0.00  0.00    +0.084 C 
ATOM      5  C   LIG    1        0.864  -0.139  -2.424  0.00  0.00    +0.042 C 
ATOM      6  C   LIG    1        1.152  -1.583  -2.246  0.00  0.00    +0.084 C 
ENDROOT
BRANCH   4   7
ATOM      7  N   LIG    1       -0.935   1.317  -1.942  0.00  0.00    -0.325 NA
ATOM      8  H   LIG    1       -1.811   0.828  -2.150  0.00  0.00    +0.119 HD
ATOM      9  H   LIG    1       -0.528   1.716  -2.805  0.00  0.00    +0.119 HD
ENDBRANCH   4   7
BRANCH   6  10
ATOM     10  N   LIG    1        0.062  -2.466  -2.625  0.00  0.00    -0.325 NA
ATOM     11  H   LIG    1        0.438  -3.445  -2.436  0.00  0.00    +0.119 HD
ATOM     12  H   LIG    1       -0.048  -2.449  -3.684  0.00  0.00    +0.119 HD
ENDBRANCH   6  10
BRANCH   2  13
ATOM     13  O   LIG    1       -0.522  -2.852   0.047  0.00  0.00    -0.387 OA
ATOM     14  H   LIG    1        0.115  -3.546   0.397  0.00  0.00    +0.210 HD
ENDBRANCH   2  13
BRANCH   1  15
ATOM     15  O   LIG    1        2.473  -1.112  -0.278  0.00  0.00    -0.342 OA
BRANCH  15  16
ATOM     16  C   LIG    1        3.595  -1.653   0.184  0.00  0.00    +0.268 C 
ATOM     17  C   LIG    1        3.908  -1.259   1.614  0.00  0.00    +0.107 C 
ATOM     18  C   LIG    1        4.077   0.214   1.776  0.00  0.00    +0.026 C 
ATOM     19  C   LIG    1        4.902   0.858   0.670  0.00  0.00    +0.034 C 
ATOM     20  C   LIG    1        4.455   0.265  -0.636  0.00  0.00    +0.135 C 
ATOM     21  O   LIG    1        4.671  -1.116  -0.567  0.00  0.00    -0.345 OA
BRANCH  17  22
ATOM     22  N   LIG    1        2.889  -1.774   2.469  0.00  0.00    -0.323 NA
ATOM     23  H   LIG    1        3.213  -1.995   3.439  0.00  0.00    +0.119 HD
ATOM     24  H   LIG    1        2.455  -2.639   2.029  0.00  0.00    +0.119 HD
ENDBRANCH  17  22
BRANCH  20  25
ATOM     25  C   LIG    1        5.090   0.833  -1.859  0.00  0.00    +0.112 C 
BRANCH  25  26
ATOM     26  N   LIG    1        4.966   2.220  -2.081  0.00  0.00    -0.317 NA
ATOM     27  C   LIG    1        5.672   3.105  -1.223  0.00  0.00    +0.101 C 
ATOM     28  H   LIG    1        4.071   2.563  -2.441  0.00  0.00    +0.122 HD
ENDBRANCH  25  26
ENDBRANCH  20  25
ENDBRANCH  15  16
ENDBRANCH   1  15
BRANCH   3  29
ATOM     29  O   LIG    1       -1.182  -0.004   0.716  0.00  0.00    -0.341 OA
BRANCH  29  30
ATOM     30  C   LIG    1       -2.525  -0.104   0.888  0.00  0.00    +0.281 C 
ATOM     31  O   LIG    1       -2.821  -0.831   2.050  0.00  0.00    -0.346 OA
ATOM     32  C   LIG    1       -4.014  -0.478   2.630  0.00  0.00    +0.199 C 
ATOM     33  C   LIG    1       -5.039   0.011   1.629  0.00  0.00    +0.104 C 
ATOM     34  C   LIG    1       -6.292   0.365   2.404  0.00  0.00    +0.045 C 
ATOM     35  C   LIG    1       -4.583   1.231   0.896  0.00  0.00    +0.121 C 
ATOM     36  C   LIG    1       -3.082   1.301   0.989  0.00  0.00    +0.190 C 
BRANCH  35  37
ATOM     37  N   LIG    1       -4.948   1.253  -0.506  0.00  0.00    -0.311 NA
ATOM     38  C   LIG    1       -6.392   1.263  -0.700  0.00  0.00    +0.101 C 
ATOM     39  H   LIG    1       -4.534   0.441  -1.028  0.00  0.00    +0.122 HD
ENDBRANCH  35  37
BRANCH  33  40
ATOM     40  O   LIG    1       -5.403  -1.036   0.751  0.00  0.00    -0.385 OA
ATOM     41  H   LIG    1       -6.197  -1.531   1.126  0.00  0.00    +0.210 HD
ENDBRANCH  33  40
BRANCH  36  42
ATOM     42  O   LIG    1       -2.640   1.951   2.137  0.00  0.00    -0.385 OA
ATOM     43  H   LIG    1       -1.987   1.393   2.649  0.00  0.00    +0.210 HD
ENDBRANCH  36  42
ENDBRANCH  29  30
ENDBRANCH   3  29
TORSDOF 13
