REMARK  Name = molecules/DOAKLVKFURWEDJ-QCMAZARJSA-N.pdb
REMARK                            x       y       z     vdW  Elec       q    Type
REMARK                         _______ _______ _______ _____ _____    ______ ____
ROOT
ATOM      1  C   LIG    1       20.187   5.020   0.000  0.00  0.00    -0.019 A 
ATOM      2  C   LIG    1       21.662   4.748   0.000  0.00  0.00    +0.115 A 
ATOM      3  N   LIG    1       22.377   6.067   0.000  0.00  0.00    -0.255 NA
ATOM      4  C   LIG    1       21.343   7.154   0.000  0.00  0.00    +0.071 A 
ATOM      5  C   LIG    1       21.460   8.650   0.000  0.00  0.00    +0.028 A 
ATOM      6  C   LIG    1       20.223   9.498   0.000  0.00  0.00    +0.002 A 
ATOM      7  C   LIG    1       18.870   8.851   0.000  0.00  0.00    +0.001 A 
ATOM      8  C   LIG    1       18.753   7.356   0.000  0.00  0.00    +0.010 A 
ATOM      9  C   LIG    1       19.990   6.507   0.000  0.00  0.00    +0.005 A 
ENDROOT
BRANCH   1  10
ATOM     10  C   LIG    1       19.100   3.987   0.000  0.00  0.00    +0.061 C 
BRANCH  10  11
ATOM     11  C   LIG    1       18.013   2.954   0.000  0.00  0.00    +0.118 C 
ATOM     12  N   LIG    1       19.046   1.866   0.000  0.00  0.00    -0.138 NA
ENDBRANCH  10  11
ENDBRANCH   1  10
TORSDOF 2
REMARK  Name = molecules/DOAKLVKFURWEDJ-QCMAZARJSA-N.pdb
REMARK                            x       y       z     vdW  Elec       q    Type
REMARK                         _______ _______ _______ _____ _____    ______ ____
ROOT
ATOM      1  C   LIG    1       16.925   1.920   0.000  0.00  0.00    +0.279 C 
ATOM      2  O   LIG    1       17.133   1.059   0.000  0.00  0.00    -0.279 OA
ENDROOT
TORSDOF 0
REMARK  Name = molecules/DOAKLVKFURWEDJ-QCMAZARJSA-N.pdb
REMARK                            x       y       z     vdW  Elec       q    Type
REMARK                         _______ _______ _______ _____ _____    ______ ____
ROOT
ATOM      1  C   LIG    1       16.467  -0.863   0.000  0.00  0.00    +0.196 C 
ATOM      2  N   LIG    1       16.042  -2.301   0.000  0.00  0.00    -0.101 NA
ENDROOT
BRANCH   1   3
ATOM      3  O   LIG    1       17.925  -0.512   0.000  0.00  0.00    -0.368 OA
ATOM      4  H   LIG    1       18.621   0.428   0.000  0.00  0.00    +0.212 HD
ENDBRANCH   1   3
BRANCH   1   5
ATOM      5  C   LIG    1       15.433   0.224   0.000  0.00  0.00    +0.082 C 
BRANCH   5   7
ATOM      6  N   LIG    1       15.487   2.345   0.000  0.00  0.00    -0.138 NA
ATOM      7  C   LIG    1       14.400   1.311   0.000  0.00  0.00    +0.117 C 
ENDBRANCH   5   7
ENDBRANCH   1   5
TORSDOF 3
REMARK  Name = molecules/DOAKLVKFURWEDJ-QCMAZARJSA-N.pdb
REMARK                            x       y       z     vdW  Elec       q    Type
REMARK                         _______ _______ _______ _____ _____    ______ ____
ROOT
ATOM      1  C   LIG    1       20.504   2.218   0.000  0.00  0.00    +0.279 C 
ATOM      2  O   LIG    1       20.755   3.067   0.000  0.00  0.00    -0.279 OA
ENDROOT
TORSDOF 0
REMARK  Name = molecules/DOAKLVKFURWEDJ-QCMAZARJSA-N.pdb
REMARK                            x       y       z     vdW  Elec       q    Type
REMARK                         _______ _______ _______ _____ _____    ______ ____
ROOT
ATOM      1  C   LIG    1       25.672  -3.218   0.000  0.00  0.00    -0.000 C 
ENDROOT
BRANCH   1   2
ATOM      2  C   LIG    1       24.638  -2.131   0.000  0.00  0.00    -0.000 C 
BRANCH   2   3
ATOM      3  C   LIG    1       23.605  -1.044   0.000  0.00  0.00    -0.000 C 
BRANCH   3   5
ATOM      4  C   LIG    1       21.538   1.131   0.000  0.00  0.00    -0.000 C 
ATOM      5  C   LIG    1       22.571   0.043   0.000  0.00  0.00    -0.000 C 
ENDBRANCH   3   5
ENDBRANCH   2   3
ENDBRANCH   1   2
BRANCH   1   6
ATOM      6  C   LIG    1       26.705  -4.305   0.000  0.00  0.00    -0.000 C 
BRANCH   6   7
ATOM      7  C   LIG    1       27.739  -5.393   0.000  0.00  0.00    -0.000 C 
BRANCH   7   8
ATOM      8  C   LIG    1       28.772  -6.480   0.000  0.00  0.00    -0.003 C 
ATOM      9  C   LIG    1       29.805  -7.567   0.000  0.00  0.00    +0.004 C 
ENDBRANCH   7   8
ENDBRANCH   6   7
ENDBRANCH   1   6
TORSDOF 6
REMARK  Name = molecules/DOAKLVKFURWEDJ-QCMAZARJSA-N.pdb
REMARK                            x       y       z     vdW  Elec       q    Type
REMARK                         _______ _______ _______ _____ _____    ______ ____
ROOT
ATOM      1  C   LIG    1       13.366   2.399   0.000  0.00  0.00    +0.279 C 
ATOM      2  O   LIG    1       13.617   3.248   0.000  0.00  0.00    -0.279 OA
ENDROOT
TORSDOF 0
REMARK  Name = molecules/DOAKLVKFURWEDJ-QCMAZARJSA-N.pdb
REMARK                            x       y       z     vdW  Elec       q    Type
REMARK                         _______ _______ _______ _____ _____    ______ ____
ROOT
ATOM      1  C   LIG    1       13.049   5.201   0.000  0.00  0.00    +0.306 C 
ATOM      2  O   LIG    1       12.698   6.660   0.000  0.00  0.00    -0.251 OA
ENDROOT
BRANCH   1   3
ATOM      3  O   LIG    1       14.488   4.777   0.000  0.00  0.00    -0.481 OA
ATOM      4  H   LIG    1       15.136   3.803   0.000  0.00  0.00    +0.295 HD
ENDBRANCH   1   3
BRANCH   1   5
ATOM      5  C   LIG    1       11.962   4.168   0.000  0.00  0.00    +0.144 C 
BRANCH   5   7
ATOM      6  N   LIG    1       11.908   2.047   0.000  0.00  0.00    -0.138 NA
ATOM      7  C   LIG    1       10.875   3.134   0.000  0.00  0.00    +0.124 C 
ENDBRANCH   5   7
ENDBRANCH   1   5
TORSDOF 3
REMARK  Name = molecules/DOAKLVKFURWEDJ-QCMAZARJSA-N.pdb
REMARK                            x       y       z     vdW  Elec       q    Type
REMARK                         _______ _______ _______ _____ _____    ______ ____
ROOT
ATOM      1  C   LIG    1        5.108   5.373   0.000  0.00  0.00    +0.157 C 
ATOM      2  C   LIG    1        3.921   6.291   0.000  0.00  0.00    +0.194 C 
ENDROOT
BRANCH   2   3
ATOM      3  N   LIG    1        2.575   6.952   0.000  0.00  0.00    -0.302 N 
ATOM      4  C   LIG    1        1.123   7.328   0.000  0.00  0.00    +0.111 C 
ATOM      5  H   LIG    1        2.231   8.338   0.000  0.00  0.00    +0.150 HD
ENDBRANCH   2   3
BRANCH   2   6
ATOM      6  O   LIG    1        4.715   7.564   0.000  0.00  0.00    -0.494 OA
ATOM      7  H   LIG    1        5.410   6.843   0.000  0.00  0.00    +0.294 HD
ENDBRANCH   2   6
BRANCH   1   8
ATOM      8  N   LIG    1        6.085   4.235   0.000  0.00  0.00    -0.210 NA
BRANCH   8   9
ATOM      9  C   LIG    1        6.813   2.924   0.000  0.00  0.00    +0.279 C 
BRANCH   9  10
ATOM     10  O   LIG    1        8.109   3.679   0.000  0.00  0.00    -0.262 OA
BRANCH  10  12
ATOM     11  C   LIG    1        9.787   2.101   0.000  0.00  0.00    +0.123 C 
ATOM     12  N   LIG    1        8.349   2.526   0.000  0.00  0.00    -0.192 NA
ATOM     13  H   LIG    1        8.752   1.327   0.000  0.00  0.00    +0.154 HD
ENDBRANCH  10  12
ENDBRANCH   9  10
ENDBRANCH   8   9
ENDBRANCH   1   8
TORSDOF 6
REMARK  Name = molecules/DOAKLVKFURWEDJ-QCMAZARJSA-N.pdb
REMARK                            x       y       z     vdW  Elec       q    Type
REMARK                         _______ _______ _______ _____ _____    ______ ____
ROOT
ATOM      1  O   HOH    1       10.139   0.643   0.000  0.00  0.00    -0.410 OA
ATOM      2  H   HOH    0       11.483   0.609   0.000  0.00  0.00    +0.205 HD
ATOM      3  H   HOH    0        9.629  -0.373   0.000  0.00  0.00    +0.205 HD
ENDROOT
TORSDOF 0
REMARK  Name = molecules/DOAKLVKFURWEDJ-QCMAZARJSA-N.pdb
REMARK                            x       y       z     vdW  Elec       q    Type
REMARK                         _______ _______ _______ _____ _____    ______ ____
ROOT
ATOM      1  C   LIG    1        7.262   1.492   0.000  0.00  0.00    +0.000 C 
ENDROOT
TORSDOF 0
REMARK  Name = molecules/DOAKLVKFURWEDJ-QCMAZARJSA-N.pdb
REMARK                            x       y       z     vdW  Elec       q    Type
REMARK                         _______ _______ _______ _____ _____    ______ ____
ROOT
ATOM      1  C   LIG    1        7.413   0.000   0.000  0.00  0.00    +0.197 C 
ATOM      2  O   LIG    1        7.262  -1.492   0.000  0.00  0.00    -0.228 OA
ATOM      3  C   LIG    1        8.686   0.793   0.000  0.00  0.00    +0.031 C 
ENDROOT
TORSDOF 0
REMARK  Name = molecules/DOAKLVKFURWEDJ-QCMAZARJSA-N.pdb
REMARK                            x       y       z     vdW  Elec       q    Type
REMARK                         _______ _______ _______ _____ _____    ______ ____
ROOT
ATOM      1  C   LIG    1        9.764  -5.722   0.000  0.00  0.00    +0.046 A 
ATOM      2  C   LIG    1        8.949  -6.982   0.000  0.00  0.00    +0.036 A 
ATOM      3  C   LIG    1        9.632  -8.317   0.000  0.00  0.00    +0.023 A 
ATOM      4  C   LIG    1       11.130  -8.393   0.000  0.00  0.00    +0.002 A 
ATOM      5  C   LIG    1       11.945  -7.134   0.000  0.00  0.00    +0.001 A 
ATOM      6  C   LIG    1       11.262  -5.798   0.000  0.00  0.00    +0.013 A 
ENDROOT
BRANCH   1   8
ATOM      7  C   LIG    1        7.583  -4.311   0.000  0.00  0.00    +0.150 C 
ATOM      8  C   LIG    1        9.081  -4.387   0.000  0.00  0.00    +0.225 C 
ATOM      9  O   LIG    1        9.896  -3.128   0.000  0.00  0.00    -0.284 OA
BRANCH   7  11
ATOM     10  C   LIG    1        6.813  -2.924   0.000  0.00  0.00    +0.008 C 
ATOM     11  C   LIG    1        6.085  -4.235   0.000  0.00  0.00    +0.067 C 
ENDBRANCH   7  11
BRANCH   7  12
ATOM     12  O   LIG    1        8.253  -3.343   0.000  0.00  0.00    -0.507 OA
ATOM     13  H   LIG    1        7.841  -2.833   0.000  0.00  0.00    +0.292 HD
ENDBRANCH   7  12
ENDBRANCH   1   8
BRANCH   2  14
ATOM     14  N   LIG    1        7.451  -6.906   0.000  0.00  0.00    -0.357 N 
ATOM     15  H   LIG    1        6.141  -6.460   0.000  0.00  0.00    +0.142 HD
ATOM     16  H   LIG    1        7.507  -5.809   0.000  0.00  0.00    +0.142 HD
ENDBRANCH   2  14
TORSDOF 4
REMARK  Name = molecules/DOAKLVKFURWEDJ-QCMAZARJSA-N.pdb
REMARK                            x       y       z     vdW  Elec       q    Type
REMARK                         _______ _______ _______ _____ _____    ______ ____
ROOT
ATOM      1  N   LIG    1        5.108  -5.373   0.000  0.00  0.00    -0.163 NA
ATOM      2  H   LIG    1        6.325  -5.716   0.000  0.00  0.00    +0.163 HD
ENDROOT
TORSDOF 0
REMARK  Name = molecules/DOAKLVKFURWEDJ-QCMAZARJSA-N.pdb
REMARK                            x       y       z     vdW  Elec       q    Type
REMARK                         _______ _______ _______ _____ _____    ______ ____
ROOT
ATOM      1  C   LIG    1        3.761  -7.870   0.000  0.00  0.00    -0.057 C 
ATOM      2  C   LIG    1        2.843  -9.056   0.000  0.00  0.00    +0.040 C 
ATOM      3  C   LIG    1        4.947  -8.788   0.000  0.00  0.00    +0.091 C 
ENDROOT
BRANCH   1   5
ATOM      4  C   LIG    1        3.921  -6.291   0.000  0.00  0.00    +0.005 C 
ATOM      5  C   LIG    1        2.575  -6.952   0.000  0.00  0.00    +0.021 C 
ENDBRANCH   1   5
BRANCH   3   6
ATOM      6  C   LIG    1        6.133  -9.706   0.000  0.00  0.00    +0.330 C 
ATOM      7  O   LIG    1        5.931 -11.193   0.000  0.00  0.00    -0.246 OA
BRANCH   6   8
ATOM      8  O   LIG    1        7.521  -9.138   0.000  0.00  0.00    -0.478 OA
ATOM      9  H   LIG    1        6.636  -8.165   0.000  0.00  0.00    +0.295 HD
ENDBRANCH   6   8
ENDBRANCH   3   6
TORSDOF 3
REMARK  Name = molecules/DOAKLVKFURWEDJ-QCMAZARJSA-N.pdb
REMARK                            x       y       z     vdW  Elec       q    Type
REMARK                         _______ _______ _______ _____ _____    ______ ____
ROOT
ATOM      1  O   HOH    1        4.864  -7.458   0.000  0.00  0.00    -0.410 OA
ATOM      2  H   HOH    0        5.865  -7.602   0.000  0.00  0.00    +0.205 HD
ATOM      3  H   HOH    0        4.817  -6.805   0.000  0.00  0.00    +0.205 HD
ENDROOT
TORSDOF 0
REMARK  Name = molecules/DOAKLVKFURWEDJ-QCMAZARJSA-N.pdb
REMARK                            x       y       z     vdW  Elec       q    Type
REMARK                         _______ _______ _______ _____ _____    ______ ____
ROOT
ATOM      1  C   LIG    1        0.531   8.706   0.000  0.00  0.00    +0.000 C 
ENDROOT
TORSDOF 0
REMARK  Name = molecules/DOAKLVKFURWEDJ-QCMAZARJSA-N.pdb
REMARK                            x       y       z     vdW  Elec       q    Type
REMARK                         _______ _______ _______ _____ _____    ______ ____
ROOT
ATOM      1  C   LIG    1       -0.376   7.404   0.000  0.00  0.00    +0.000 C 
ENDROOT
TORSDOF 0
REMARK  Name = molecules/DOAKLVKFURWEDJ-QCMAZARJSA-N.pdb
REMARK                            x       y       z     vdW  Elec       q    Type
REMARK                         _______ _______ _______ _____ _____    ______ ____
ROOT
ATOM      1  N   LIG    1        1.123  -7.328   0.000  0.00  0.00    -0.163 NA
ATOM      2  H   LIG    1        1.470  -8.452   0.000  0.00  0.00    +0.163 HD
ENDROOT
TORSDOF 0
REMARK  Name = molecules/DOAKLVKFURWEDJ-QCMAZARJSA-N.pdb
REMARK                            x       y       z     vdW  Elec       q    Type
REMARK                         _______ _______ _______ _____ _____    ______ ____
ROOT
ATOM      1  C   LIG    1       -0.060  10.085   0.000  0.00  0.00    +0.015 C 
ATOM      2  C   LIG    1       -0.652  11.463   0.000  0.00  0.00    +0.128 C 
ATOM      3  N   LIG    1       -1.244  12.842   0.000  0.00  0.00    -0.143 NA
ENDROOT
TORSDOF 0
REMARK  Name = molecules/DOAKLVKFURWEDJ-QCMAZARJSA-N.pdb
REMARK                            x       y       z     vdW  Elec       q    Type
REMARK                         _______ _______ _______ _____ _____    ______ ____
ROOT
ATOM      1  O   HOH    1       -0.633   8.882   0.000  0.00  0.00    -0.410 OA
ATOM      2  H   HOH    0       -1.439   9.493   0.000  0.00  0.00    +0.205 HD
ATOM      3  H   HOH    0       -0.909   8.287   0.000  0.00  0.00    +0.205 HD
ENDROOT
TORSDOF 0
REMARK  Name = molecules/DOAKLVKFURWEDJ-QCMAZARJSA-N.pdb
REMARK                            x       y       z     vdW  Elec       q    Type
REMARK                         _______ _______ _______ _____ _____    ______ ____
ROOT
ATOM      1  N   LIG    1       -1.858   7.177   0.000  0.00  0.00    -0.163 NA
ATOM      2  H   LIG    1       -2.932   8.118   0.000  0.00  0.00    +0.163 HD
ENDROOT
TORSDOF 0
REMARK  Name = molecules/DOAKLVKFURWEDJ-QCMAZARJSA-N.pdb
REMARK                            x       y       z     vdW  Elec       q    Type
REMARK                         _______ _______ _______ _____ _____    ______ ____
ROOT
ATOM      1  C   LIG    1       -4.538  -5.862   0.000  0.00  0.00    +0.196 C 
ATOM      2  C   LIG    1       -5.625  -4.829   0.000  0.00  0.00    +0.180 C 
ATOM      3  N   LIG    1       -6.482  -3.598   0.000  0.00  0.00    -0.133 NA
ENDROOT
BRANCH   1   4
ATOM      4  N   LIG    1       -3.265  -6.656   0.000  0.00  0.00    -0.304 N 
ATOM      5  H   LIG    1       -3.063  -8.070   0.000  0.00  0.00    +0.150 HD
BRANCH   4   7
ATOM      6  C   LIG    1       -0.376  -7.404   0.000  0.00  0.00    +0.023 C 
ATOM      7  C   LIG    1       -1.858  -7.177   0.000  0.00  0.00    +0.090 C 
ENDBRANCH   4   7
ENDBRANCH   1   4
BRANCH   1   8
ATOM      8  O   LIG    1       -5.456  -7.048   0.000  0.00  0.00    -0.494 OA
ATOM      9  H   LIG    1       -6.074  -6.260   0.000  0.00  0.00    +0.294 HD
ENDBRANCH   1   8
TORSDOF 3
REMARK  Name = molecules/DOAKLVKFURWEDJ-QCMAZARJSA-N.pdb
REMARK                            x       y       z     vdW  Elec       q    Type
REMARK                         _______ _______ _______ _____ _____    ______ ____
ROOT
ATOM      1  C   LIG    1       -4.538   7.449   0.000  0.00  0.00    +0.235 C 
ENDROOT
BRANCH   1   2
ATOM      2  C   LIG    1       -5.811   8.243   0.000  0.00  0.00    +0.385 C 
ATOM      3  O   LIG    1       -5.760   9.742   0.000  0.00  0.00    -0.243 OA
ATOM      4  O   LIG    1       -7.134   7.537   0.000  0.00  0.00    -0.243 OA
ENDBRANCH   1   2
BRANCH   1   5
ATOM      5  C   LIG    1       -3.265   6.656   0.000  0.00  0.00    +0.034 C 
ATOM      6  C   LIG    1       -4.538   5.862   0.000  0.00  0.00    +0.003 C 
ENDBRANCH   1   5
BRANCH   1   7
ATOM      7  O   LIG    1       -5.594   6.928   0.000  0.00  0.00    -0.380 OA
ATOM      8  H   LIG    1       -5.481   6.282   0.000  0.00  0.00    +0.211 HD
ENDBRANCH   1   7
TORSDOF 3
REMARK  Name = molecules/DOAKLVKFURWEDJ-QCMAZARJSA-N.pdb
REMARK                            x       y       z     vdW  Elec       q    Type
REMARK                         _______ _______ _______ _____ _____    ______ ____
ROOT
ATOM      1  O   LIG    1       -0.268  -8.900   0.000  0.00  0.00    -0.379 OA
ATOM      2  C   LIG    1       -1.409  -8.608   0.000  0.00  0.00    +0.169 C 
ATOM      3  H   LIG    1        0.066  -8.337   0.000  0.00  0.00    +0.211 HD
ENDROOT
TORSDOF 0
REMARK  Name = molecules/DOAKLVKFURWEDJ-QCMAZARJSA-N.pdb
REMARK                            x       y       z     vdW  Elec       q    Type
REMARK                         _______ _______ _______ _____ _____    ______ ____
ROOT
ATOM      1  N   LIG    1       -5.625   4.829   0.000  0.00  0.00    -0.163 NA
ATOM      2  H   LIG    1       -7.045   4.988   0.000  0.00  0.00    +0.163 HD
ENDROOT
TORSDOF 0
REMARK  Name = molecules/DOAKLVKFURWEDJ-QCMAZARJSA-N.pdb
REMARK                            x       y       z     vdW  Elec       q    Type
REMARK                         _______ _______ _______ _____ _____    ______ ____
ROOT
ATOM      1  O   HOH    1       -0.960 -10.039   0.000  0.00  0.00    +0.000 OA
ENDROOT
TORSDOF 0
REMARK  Name = molecules/DOAKLVKFURWEDJ-QCMAZARJSA-N.pdb
REMARK                            x       y       z     vdW  Elec       q    Type
REMARK                         _______ _______ _______ _____ _____    ______ ____
ROOT
ATOM      1  C   LIG    1       -6.482   3.598   0.000  0.00  0.00    +0.000 C 
ATOM      2  C   LIG    1       -7.073   2.219   0.000  0.00  0.00    +0.000 C 
ENDROOT
TORSDOF 0
REMARK  Name = molecules/DOAKLVKFURWEDJ-QCMAZARJSA-N.pdb
REMARK                            x       y       z     vdW  Elec       q    Type
REMARK                         _______ _______ _______ _____ _____    ______ ____
ROOT
ATOM      1  C   LIG    1       -7.980   3.522   0.000  0.00  0.00    +0.176 C 
ATOM      2  O   LIG    1       -8.549   2.490   0.000  0.00  0.00    -0.386 OA
ATOM      3  H   LIG    1       -8.087   2.026   0.000  0.00  0.00    +0.210 HD
ENDROOT
TORSDOF 0
REMARK  Name = molecules/DOAKLVKFURWEDJ-QCMAZARJSA-N.pdb
REMARK                            x       y       z     vdW  Elec       q    Type
REMARK                         _______ _______ _______ _____ _____    ______ ____
ROOT
ATOM      1  N   LIG    1       -7.375   0.750   0.000  0.00  0.00    -0.163 NA
ATOM      2  H   LIG    1       -8.632   0.070   0.000  0.00  0.00    +0.163 HD
ENDROOT
TORSDOF 0
REMARK  Name = molecules/DOAKLVKFURWEDJ-QCMAZARJSA-N.pdb
REMARK                            x       y       z     vdW  Elec       q    Type
REMARK                         _______ _______ _______ _____ _____    ______ ____
ROOT
ATOM      1  C   LIG    1       -7.073  -2.219   0.000  0.00  0.00    +0.000 C 
ATOM      2  C   LIG    1       -7.375  -0.750   0.000  0.00  0.00    +0.000 C 
ENDROOT
TORSDOF 0
REMARK  Name = molecules/DOAKLVKFURWEDJ-QCMAZARJSA-N.pdb
REMARK                            x       y       z     vdW  Elec       q    Type
REMARK                         _______ _______ _______ _____ _____    ______ ____
ROOT
ATOM      1  C   LIG    1       -8.562  -1.668   0.000  0.00  0.00    +0.267 C 
ENDROOT
BRANCH   1   2
ATOM      2  C   LIG    1       -9.748  -2.586   0.000  0.00  0.00    +0.387 C 
ATOM      3  O   LIG    1      -11.136  -2.018   0.000  0.00  0.00    -0.243 OA
ATOM      4  O   LIG    1       -9.546  -4.073   0.000  0.00  0.00    -0.243 OA
ENDBRANCH   1   2
BRANCH   1   5
ATOM      5  O   LIG    1       -8.439  -2.839   0.000  0.00  0.00    -0.378 OA
ATOM      6  H   LIG    1       -7.795  -2.957   0.000  0.00  0.00    +0.211 HD
ENDBRANCH   1   5
TORSDOF 2
REMARK  Name = molecules/DOAKLVKFURWEDJ-QCMAZARJSA-N.pdb
REMARK                            x       y       z     vdW  Elec       q    Type
REMARK                         _______ _______ _______ _____ _____    ______ ____
ROOT
ATOM      1  H   UNK    1       23.864   6.264   0.000  0.00  0.00    +0.000 HD
ENDROOT
TORSDOF 0
REMARK  Name = molecules/DOAKLVKFURWEDJ-QCMAZARJSA-N.pdb
REMARK                            x       y       z     vdW  Elec       q    Type
REMARK                         _______ _______ _______ _____ _____    ______ ____
ROOT
ATOM      1  H   UNK    1       17.075  -3.389   0.000  0.00  0.00    +0.000 HD
ENDROOT
TORSDOF 0
REMARK  Name = molecules/DOAKLVKFURWEDJ-QCMAZARJSA-N.pdb
REMARK                            x       y       z     vdW  Elec       q    Type
REMARK                         _______ _______ _______ _____ _____    ______ ____
ROOT
ATOM      1  H   UNK    1       14.584  -2.653   0.000  0.00  0.00    +0.000 HD
ENDROOT
TORSDOF 0
REMARK  Name = molecules/DOAKLVKFURWEDJ-QCMAZARJSA-N.pdb
REMARK                            x       y       z     vdW  Elec       q    Type
REMARK                         _______ _______ _______ _____ _____    ______ ____
ROOT
ATOM      1  H   UNK    1        8.178   4.016   0.000  0.00  0.00    +0.000 HD
ENDROOT
TORSDOF 0
REMARK  Name = molecules/DOAKLVKFURWEDJ-QCMAZARJSA-N.pdb
REMARK                            x       y       z     vdW  Elec       q    Type
REMARK                         _______ _______ _______ _____ _____    ______ ____
ROOT
ATOM      1  H   UNK    1       13.785   7.693   0.000  0.00  0.00    +0.000 HD
ENDROOT
TORSDOF 0
REMARK  Name = molecules/DOAKLVKFURWEDJ-QCMAZARJSA-N.pdb
REMARK                            x       y       z     vdW  Elec       q    Type
REMARK                         _______ _______ _______ _____ _____    ______ ____
ROOT
ATOM      1  H   UNK    1        7.316   5.092   0.000  0.00  0.00    +0.000 HD
ENDROOT
TORSDOF 0
REMARK  Name = molecules/DOAKLVKFURWEDJ-QCMAZARJSA-N.pdb
REMARK                            x       y       z     vdW  Elec       q    Type
REMARK                         _______ _______ _______ _____ _____    ______ ____
ROOT
ATOM      1  H   UNK    1        3.096   8.358   0.000  0.00  0.00    +0.000 HD
ENDROOT
TORSDOF 0
REMARK  Name = molecules/DOAKLVKFURWEDJ-QCMAZARJSA-N.pdb
REMARK                            x       y       z     vdW  Elec       q    Type
REMARK                         _______ _______ _______ _____ _____    ______ ____
ROOT
ATOM      1  H   UNK    1        1.827   9.461   0.000  0.00  0.00    +0.000 HD
ENDROOT
TORSDOF 0
REMARK  Name = molecules/DOAKLVKFURWEDJ-QCMAZARJSA-N.pdb
REMARK                            x       y       z     vdW  Elec       q    Type
REMARK                         _______ _______ _______ _____ _____    ______ ____
ROOT
ATOM      1  H   UNK    1        1.167  -8.827   0.000  0.00  0.00    +0.000 HD
ENDROOT
TORSDOF 0
REMARK  Name = molecules/DOAKLVKFURWEDJ-QCMAZARJSA-N.pdb
REMARK                            x       y       z     vdW  Elec       q    Type
REMARK                         _______ _______ _______ _____ _____    ______ ____
ROOT
ATOM      1  H   UNK    1       -2.234   8.629   0.000  0.00  0.00    +0.000 HD
ENDROOT
TORSDOF 0
REMARK  Name = molecules/DOAKLVKFURWEDJ-QCMAZARJSA-N.pdb
REMARK                            x       y       z     vdW  Elec       q    Type
REMARK                         _______ _______ _______ _____ _____    ______ ____
ROOT
ATOM      1  H   UNK    1        6.465  -5.775   0.000  0.00  0.00    +0.000 HD
ENDROOT
TORSDOF 0
REMARK  Name = molecules/DOAKLVKFURWEDJ-QCMAZARJSA-N.pdb
REMARK                            x       y       z     vdW  Elec       q    Type
REMARK                         _______ _______ _______ _____ _____    ______ ____
ROOT
ATOM      1  H   UNK    1       -2.733  13.019   0.000  0.00  0.00    +0.000 HD
ENDROOT
TORSDOF 0
REMARK  Name = molecules/DOAKLVKFURWEDJ-QCMAZARJSA-N.pdb
REMARK                            x       y       z     vdW  Elec       q    Type
REMARK                         _______ _______ _______ _____ _____    ______ ____
ROOT
ATOM      1  H   UNK    1       -0.345  14.043   0.000  0.00  0.00    +0.000 HD
ENDROOT
TORSDOF 0
REMARK  Name = molecules/DOAKLVKFURWEDJ-QCMAZARJSA-N.pdb
REMARK                            x       y       z     vdW  Elec       q    Type
REMARK                         _______ _______ _______ _____ _____    ______ ____
ROOT
ATOM      1  H   UNK    1        8.587 -10.194   0.000  0.00  0.00    +0.000 HD
ENDROOT
TORSDOF 0
REMARK  Name = molecules/DOAKLVKFURWEDJ-QCMAZARJSA-N.pdb
REMARK                            x       y       z     vdW  Elec       q    Type
REMARK                         _______ _______ _______ _____ _____    ______ ____
ROOT
ATOM      1  H   UNK    1       -2.775  -9.228   0.000  0.00  0.00    +0.000 HD
ENDROOT
TORSDOF 0
REMARK  Name = molecules/DOAKLVKFURWEDJ-QCMAZARJSA-N.pdb
REMARK                            x       y       z     vdW  Elec       q    Type
REMARK                         _______ _______ _______ _____ _____    ______ ____
ROOT
ATOM      1  H   UNK    1       -3.925  -8.002   0.000  0.00  0.00    +0.000 HD
ENDROOT
TORSDOF 0
REMARK  Name = molecules/DOAKLVKFURWEDJ-QCMAZARJSA-N.pdb
REMARK                            x       y       z     vdW  Elec       q    Type
REMARK                         _______ _______ _______ _____ _____    ______ ____
ROOT
ATOM      1  H   UNK    1       -6.763   5.806   0.000  0.00  0.00    +0.000 HD
ENDROOT
TORSDOF 0
REMARK  Name = molecules/DOAKLVKFURWEDJ-QCMAZARJSA-N.pdb
REMARK                            x       y       z     vdW  Elec       q    Type
REMARK                         _______ _______ _______ _____ _____    ______ ____
ROOT
ATOM      1  H   UNK    1       -1.975 -11.144   0.000  0.00  0.00    +0.000 HD
ENDROOT
TORSDOF 0
REMARK  Name = molecules/DOAKLVKFURWEDJ-QCMAZARJSA-N.pdb
REMARK                            x       y       z     vdW  Elec       q    Type
REMARK                         _______ _______ _______ _____ _____    ______ ____
ROOT
ATOM      1  H   UNK    1       -8.407   8.330   0.000  0.00  0.00    +0.000 HD
ENDROOT
TORSDOF 0
REMARK  Name = molecules/DOAKLVKFURWEDJ-QCMAZARJSA-N.pdb
REMARK                            x       y       z     vdW  Elec       q    Type
REMARK                         _______ _______ _______ _____ _____    ______ ____
ROOT
ATOM      1  H   UNK    1       -9.478   3.446   0.000  0.00  0.00    +0.000 HD
ENDROOT
TORSDOF 0
REMARK  Name = molecules/DOAKLVKFURWEDJ-QCMAZARJSA-N.pdb
REMARK                            x       y       z     vdW  Elec       q    Type
REMARK                         _______ _______ _______ _____ _____    ______ ____
ROOT
ATOM      1  H   UNK    1       -7.793  -4.326   0.000  0.00  0.00    +0.000 HD
ENDROOT
TORSDOF 0
REMARK  Name = molecules/DOAKLVKFURWEDJ-QCMAZARJSA-N.pdb
REMARK                            x       y       z     vdW  Elec       q    Type
REMARK                         _______ _______ _______ _____ _____    ______ ____
ROOT
ATOM      1  H   UNK    1       -8.868   0.902   0.000  0.00  0.00    +0.000 HD
ENDROOT
TORSDOF 0
REMARK  Name = molecules/DOAKLVKFURWEDJ-QCMAZARJSA-N.pdb
REMARK                            x       y       z     vdW  Elec       q    Type
REMARK                         _______ _______ _______ _____ _____    ______ ____
ROOT
ATOM      1  H   UNK    1      -10.732  -4.991   0.000  0.00  0.00    +0.000 HD
ENDROOT
TORSDOF 0
