REMARK  Name = molecules/DOBLSWXRNYSVDC-OXJNMPFZSA-N.pdb
REMARK                            x       y       z     vdW  Elec       q    Type
REMARK                         _______ _______ _______ _____ _____    ______ ____
ROOT
ATOM      1  C   LIG    1        0.053   0.376   0.987  0.00  0.00    +0.244 C 
ENDROOT
BRANCH   1   2
ATOM      2  O   LIG    1        0.709  -0.471   0.098  0.00  0.00    -0.491 OA
BRANCH   2   6
ATOM      3  C   LIG    1        4.902  -0.335  -0.441  0.00  0.00    -0.019 A 
ATOM      4  C   LIG    1        4.264   0.508   0.445  0.00  0.00    +0.010 A 
ATOM      5  C   LIG    1        2.889   0.465   0.623  0.00  0.00    +0.046 A 
ATOM      6  C   LIG    1        2.097  -0.421  -0.075  0.00  0.00    +0.121 A 
ATOM      7  C   LIG    1        2.725  -1.268  -0.963  0.00  0.00    +0.046 A 
ATOM      8  C   LIG    1        4.091  -1.224  -1.139  0.00  0.00    +0.010 A 
BRANCH   3   9
ATOM      9  C   LIG    1        6.373  -0.320  -0.666  0.00  0.00    +0.144 C 
BRANCH   9  10
ATOM     10  C   LIG    1        7.094   0.494   0.371  0.00  0.00    +0.033 C 
ATOM     11  C   LIG    1        8.588   0.567   0.077  0.00  0.00    +0.007 C 
ENDBRANCH   9  10
BRANCH   9  12
ATOM     12  O   LIG    1        6.870  -1.605  -0.691  0.00  0.00    -0.387 OA
ATOM     13  H   LIG    1        7.444  -1.742   0.088  0.00  0.00    +0.210 HD
ENDBRANCH   9  12
ENDBRANCH   3   9
ENDBRANCH   2   6
ENDBRANCH   1   2
BRANCH   1  14
ATOM     14  C   LIG    1       -1.435   0.067   0.936  0.00  0.00    +0.122 C 
BRANCH  14  15
ATOM     15  N   LIG    1       -1.871   0.292  -0.406  0.00  0.00    -0.310 NA
ATOM     16  H   LIG    1       -1.308  -0.304  -1.053  0.00  0.00    +0.122 HD
BRANCH  15  17
ATOM     17  C   LIG    1       -3.264   0.045  -0.587  0.00  0.00    +0.055 C 
ATOM     18  C   LIG    1       -3.611  -1.402  -0.342  0.00  0.00    +0.024 C 
BRANCH  17  19
ATOM     19  C   LIG    1       -4.110   0.972   0.234  0.00  0.00    +0.053 C 
BRANCH  19  20
ATOM     20  C   LIG    1       -5.551   0.679   0.013  0.00  0.00    -0.046 A 
ATOM     21  C   LIG    1       -6.204  -0.233   0.814  0.00  0.00    +0.004 A 
ATOM     22  C   LIG    1       -7.552  -0.530   0.633  0.00  0.00    +0.000 A 
ATOM     23  C   LIG    1       -8.266   0.095  -0.368  0.00  0.00    +0.000 A 
ATOM     24  C   LIG    1       -7.593   1.012  -1.168  0.00  0.00    +0.000 A 
ATOM     25  C   LIG    1       -6.270   1.305  -0.993  0.00  0.00    +0.004 A 
ENDBRANCH  19  20
ENDBRANCH  17  19
ENDBRANCH  15  17
ENDBRANCH  14  15
ENDBRANCH   1  14
TORSDOF 10
