REMARK  Name = molecules/DOBMPNYZJYQDGZ-UHFFFAOYSA-N.pdb
REMARK                            x       y       z     vdW  Elec       q    Type
REMARK                         _______ _______ _______ _____ _____    ______ ____
ROOT
ATOM      1  C   LIG    1       -0.143  -1.393   1.515  0.00  0.00    +0.092 C 
ENDROOT
BRANCH   1   7
ATOM      2  C   LIG    1       -4.971   1.275   0.420  0.00  0.00    +0.047 A 
ATOM      3  C   LIG    1       -3.776   0.619   0.674  0.00  0.00    +0.143 A 
ATOM      4  O   LIG    1       -3.327   0.444   1.886  0.00  0.00    -0.422 OA
ATOM      5  C   LIG    1       -2.205  -0.169   2.176  0.00  0.00    +0.344 A 
ATOM      6  O   LIG    1       -1.916  -0.255   3.419  0.00  0.00    -0.245 OA
ATOM      7  C   LIG    1       -1.392  -0.690   1.187  0.00  0.00    +0.084 A 
ATOM      8  C   LIG    1       -1.819  -0.533  -0.115  0.00  0.00    +0.138 A 
ATOM      9  C   LIG    1       -3.026   0.128  -0.394  0.00  0.00    +0.059 A 
ATOM     10  C   LIG    1       -3.514   0.322  -1.658  0.00  0.00    +0.015 A 
ATOM     11  C   LIG    1       -4.705   0.974  -1.939  0.00  0.00    +0.001 A 
ATOM     12  C   LIG    1       -5.424   1.448  -0.864  0.00  0.00    +0.004 A 
BRANCH   8  13
ATOM     13  O   LIG    1       -1.086  -1.014  -1.171  0.00  0.00    -0.506 OA
ATOM     14  H   LIG    1       -1.290  -0.961  -2.137  0.00  0.00    +0.292 HD
ENDBRANCH   8  13
ENDBRANCH   1   7
BRANCH   1  15
ATOM     15  C   LIG    1        1.102  -0.682   1.204  0.00  0.00    +0.084 A 
ATOM     16  C   LIG    1        1.532   0.421   1.900  0.00  0.00    +0.344 A 
ATOM     17  O   LIG    1        0.830   0.880   2.843  0.00  0.00    -0.245 OA
ATOM     18  O   LIG    1        2.669   1.035   1.622  0.00  0.00    -0.422 OA
ATOM     19  C   LIG    1        3.496   0.678   0.682  0.00  0.00    +0.143 A 
ATOM     20  C   LIG    1        4.679   1.395   0.466  0.00  0.00    +0.047 A 
ATOM     21  C   LIG    1        5.516   0.986  -0.530  0.00  0.00    +0.004 A 
ATOM     22  C   LIG    1        5.186  -0.103  -1.288  0.00  0.00    +0.001 A 
ATOM     23  C   LIG    1        4.005  -0.820  -1.071  0.00  0.00    +0.015 A 
ATOM     24  C   LIG    1        3.140  -0.423  -0.067  0.00  0.00    +0.059 A 
ATOM     25  C   LIG    1        1.959  -1.112   0.175  0.00  0.00    +0.138 A 
BRANCH  25  26
ATOM     26  O   LIG    1        1.587  -2.214  -0.556  0.00  0.00    -0.506 OA
ATOM     27  H   LIG    1        2.150  -2.563  -1.292  0.00  0.00    +0.292 HD
ENDBRANCH  25  26
ENDBRANCH   1  15
TORSDOF 4
