REMARK  Name = molecules/DPWPWRLQFGFJFI-UHFFFAOYSA-N.pdb
REMARK                            x       y       z     vdW  Elec       q    Type
REMARK                         _______ _______ _______ _____ _____    ______ ____
ROOT
ATOM      1  C   LIG    1       -0.207   0.898   0.469  0.00  0.00    +0.120 C 
ENDROOT
BRANCH   1   2
ATOM      2  C   LIG    1        1.139   0.390   0.185  0.00  0.00    -0.033 A 
ATOM      3  C   LIG    1        2.169   0.616   1.082  0.00  0.00    +0.005 A 
ATOM      4  C   LIG    1        3.440   0.126   0.808  0.00  0.00    +0.000 A 
ATOM      5  C   LIG    1        3.692  -0.583  -0.348  0.00  0.00    +0.000 A 
ATOM      6  C   LIG    1        2.674  -0.817  -1.256  0.00  0.00    +0.000 A 
ATOM      7  C   LIG    1        1.424  -0.315  -0.949  0.00  0.00    +0.005 A 
ENDBRANCH   1   2
BRANCH   1   9
ATOM      8  C   LIG    1       -1.391  -1.183   0.119  0.00  0.00    +0.106 C 
ATOM      9  N   LIG    1       -1.256   0.213  -0.208  0.00  0.00    -0.290 NA
BRANCH   9  10
ATOM     10  C   LIG    1       -2.504   0.876   0.106  0.00  0.00    +0.173 C 
BRANCH  10  11
ATOM     11  C   LIG    1       -3.579   0.457  -0.795  0.00  0.00    -0.090 C 
ATOM     12  C   LIG    1       -4.459   0.111  -1.553  0.00  0.00    +0.005 C 
ENDBRANCH  10  11
ENDBRANCH   9  10
ENDBRANCH   1   9
TORSDOF 4
