REMARK  Name = molecules/DQDAYGNAKTZFIW-CYBMUJFWSA-N.pdb
REMARK                            x       y       z     vdW  Elec       q    Type
REMARK                         _______ _______ _______ _____ _____    ______ ____
ROOT
ATOM      1  C   LIG    1        0.169  -0.661   0.819  0.00  0.00    +0.086 A 
ATOM      2  C   LIG    1        0.854  -1.108   1.909  0.00  0.00    +0.345 A 
ATOM      3  O   LIG    1        0.212  -1.680   2.838  0.00  0.00    -0.245 OA
ATOM      4  O   LIG    1        2.146  -0.981   2.058  0.00  0.00    -0.422 OA
ATOM      5  C   LIG    1        2.862  -0.389   1.113  0.00  0.00    +0.143 A 
ATOM      6  C   LIG    1        4.237  -0.254   1.270  0.00  0.00    +0.047 A 
ATOM      7  C   LIG    1        4.960   0.364   0.277  0.00  0.00    +0.004 A 
ATOM      8  C   LIG    1        4.352   0.843  -0.852  0.00  0.00    +0.001 A 
ATOM      9  C   LIG    1        2.981   0.719  -1.030  0.00  0.00    +0.015 A 
ATOM     10  C   LIG    1        2.269   0.091  -0.013  0.00  0.00    +0.059 A 
ATOM     11  C   LIG    1        0.906  -0.031  -0.192  0.00  0.00    +0.138 A 
ENDROOT
BRANCH  11  12
ATOM     12  O   LIG    1        0.275   0.436  -1.293  0.00  0.00    -0.506 OA
ATOM     13  H   LIG    1        0.543   0.892  -2.105  0.00  0.00    +0.292 HD
ENDBRANCH  11  12
BRANCH   1  14
ATOM     14  C   LIG    1       -1.290  -0.861   0.678  0.00  0.00    +0.059 C 
BRANCH  14  15
ATOM     15  C   LIG    1       -2.076   0.326   0.386  0.00  0.00    -0.040 A 
ATOM     16  C   LIG    1       -1.870   1.493   1.083  0.00  0.00    +0.004 A 
ATOM     17  C   LIG    1       -2.640   2.588   0.794  0.00  0.00    +0.000 A 
ATOM     18  C   LIG    1       -3.612   2.555  -0.170  0.00  0.00    +0.000 A 
ATOM     19  C   LIG    1       -3.827   1.403  -0.869  0.00  0.00    +0.000 A 
ATOM     20  C   LIG    1       -3.045   0.281  -0.580  0.00  0.00    +0.004 A 
ENDBRANCH  14  15
BRANCH  14  21
ATOM     21  C   LIG    1       -1.581  -2.080  -0.088  0.00  0.00    +0.010 C 
ATOM     22  C   LIG    1       -1.052  -2.197  -1.473  0.00  0.00    +0.005 C 
ENDBRANCH  14  21
ENDBRANCH   1  14
TORSDOF 4
