REMARK  Name = molecules/DQGFCLJXYFXXIJ-UHFFFAOYSA-N.pdb
REMARK                            x       y       z     vdW  Elec       q    Type
REMARK                         _______ _______ _______ _____ _____    ______ ____
ROOT
ATOM      1  C   LIG    1        1.415  -0.117  -0.618  0.00  0.00    +0.165 A 
ATOM      2  C   LIG    1        2.748  -0.085  -0.230  0.00  0.00    +0.026 A 
ATOM      3  C   LIG    1        3.367  -1.227   0.220  0.00  0.00    +0.008 C 
ATOM      4  C   LIG    1        4.677  -1.205   0.604  0.00  0.00    -0.018 C 
ATOM      5  C   LIG    1        5.398  -0.031   0.543  0.00  0.00    +0.046 C 
ATOM      6  C   LIG    1        4.814   1.135   0.098  0.00  0.00    -0.009 C 
ATOM      7  C   LIG    1        3.491   1.079  -0.282  0.00  0.00    +0.002 A 
ATOM      8  C   LIG    1        2.879   2.239  -0.735  0.00  0.00    +0.141 A 
ATOM      9  N   LIG    1        1.585   2.168  -1.102  0.00  0.00    -0.180 NA
ATOM     10  N   LIG    1        0.886   1.039  -1.045  0.00  0.00    -0.261 N 
ATOM     11  H   LIG    1       -0.104   1.075  -1.348  0.00  0.00    +0.190 HD
ENDROOT
BRANCH   1  12
ATOM     12  N   LIG    1        0.736  -1.212  -0.564  0.00  0.00    -0.099 NA
BRANCH  12  13
ATOM     13  N   LIG    1       -0.589  -1.218  -0.955  0.00  0.00    -0.163 NA
ATOM     14  C   LIG    1       -1.545  -0.741  -0.181  0.00  0.00    +0.058 C 
ATOM     15  C   LIG    1       -1.142  -0.205   1.120  0.00  0.00    +0.067 C 
BRANCH  14  16
ATOM     16  C   LIG    1       -2.898  -0.788  -0.672  0.00  0.00    +0.023 C 
ATOM     17  C   LIG    1       -4.000  -0.382  -0.099  0.00  0.00    -0.074 C 
ATOM     18  C   LIG    1       -4.149   0.242   1.223  0.00  0.00    +0.039 C 
ATOM     19  C   LIG    1       -5.309  -0.559  -0.861  0.00  0.00    +0.039 C 
ENDBRANCH  14  16
ENDBRANCH  12  13
ENDBRANCH   1  12
TORSDOF 3
