REMARK  Name = molecules/DQIUUHJEYNMMLD-UHFFFAOYSA-N.pdb
REMARK                            x       y       z     vdW  Elec       q    Type
REMARK                         _______ _______ _______ _____ _____    ______ ____
ROOT
ATOM      1  C   LIG    1        1.651  -1.603  -0.670  0.00  0.00    +0.089 A 
ATOM      2  C   LIG    1        2.403  -2.653  -0.230  0.00  0.00    +0.030 A 
ATOM      3  C   LIG    1        1.797  -3.750   0.371  0.00  0.00    +0.002 A 
ATOM      4  C   LIG    1        0.424  -3.800   0.534  0.00  0.00    +0.004 A 
ATOM      5  C   LIG    1       -0.323  -2.716   0.076  0.00  0.00    +0.048 A 
ATOM      6  C   LIG    1        0.249  -1.615  -0.523  0.00  0.00    +0.144 A 
ENDROOT
BRANCH   1   9
ATOM      7  C   LIG    1        1.907  -1.518  -3.632  0.00  0.00    +0.064 C 
ATOM      8  C   LIG    1        2.413  -0.493  -2.671  0.00  0.00    +0.021 A 
ATOM      9  N   LIG    1        2.309  -0.501  -1.306  0.00  0.00    -0.310 N 
ATOM     10  C   LIG    1        2.877   0.578  -0.771  0.00  0.00    +0.054 A 
ATOM     11  C   LIG    1        3.377   1.325  -1.849  0.00  0.00    +0.028 A 
ATOM     12  C   LIG    1        3.083   0.655  -3.013  0.00  0.00    +0.023 A 
BRANCH  10  13
ATOM     13  C   LIG    1        3.011   0.952   0.631  0.00  0.00    -0.001 A 
ATOM     14  C   LIG    1        2.452   0.283   1.683  0.00  0.00    +0.010 A 
ATOM     15  C   LIG    1        2.636   0.739   3.003  0.00  0.00    +0.001 A 
ATOM     16  C   LIG    1        3.367   1.850   3.311  0.00  0.00    +0.000 A 
ATOM     17  C   LIG    1        3.930   2.526   2.250  0.00  0.00    +0.001 A 
ATOM     18  C   LIG    1        3.758   2.091   0.954  0.00  0.00    +0.010 A 
ENDBRANCH  10  13
ENDBRANCH   1   9
BRANCH   6  19
ATOM     19  O   LIG    1       -0.401  -0.546  -0.987  0.00  0.00    -0.489 OA
BRANCH  19  20
ATOM     20  C   LIG    1       -1.706  -0.119  -1.051  0.00  0.00    +0.244 C 
BRANCH  20  21
ATOM     21  C   LIG    1       -2.335   0.105   0.278  0.00  0.00    +0.125 C 
BRANCH  21  22
ATOM     22  N   LIG    1       -3.673   0.543   0.260  0.00  0.00    -0.300 NA
BRANCH  22  23
ATOM     23  C   LIG    1       -4.271   0.784   1.519  0.00  0.00    +0.081 C 
ATOM     24  C   LIG    1       -4.450  -0.539   2.245  0.00  0.00    +0.020 C 
ENDBRANCH  22  23
BRANCH  22  25
ATOM     25  C   LIG    1       -4.122   1.403  -0.754  0.00  0.00    +0.081 C 
ATOM     26  C   LIG    1       -3.578   2.799  -0.762  0.00  0.00    +0.020 C 
ENDBRANCH  22  25
ENDBRANCH  21  22
ENDBRANCH  20  21
ENDBRANCH  19  20
ENDBRANCH   6  19
TORSDOF 8
