REMARK  Name = molecules/DQMZLTXERSFNPB-UHFFFAOYSA-N.pdb
REMARK                            x       y       z     vdW  Elec       q    Type
REMARK                         _______ _______ _______ _____ _____    ______ ____
ROOT
ATOM      1  C   LIG    1       -0.389   0.525  -0.033  0.00  0.00    +0.147 C 
ATOM      2  C   LIG    1       -1.181   0.400   1.205  0.00  0.00    +0.234 C 
ATOM      3  O   LIG    1       -0.960   1.161   2.164  0.00  0.00    -0.274 OA
ATOM      4  N   LIG    1       -2.188  -0.581   1.303  0.00  0.00    -0.299 N 
ATOM      5  H   LIG    1       -2.936  -0.584   2.038  0.00  0.00    +0.150 HD
ATOM      6  C   LIG    1       -2.169  -1.641   0.318  0.00  0.00    +0.212 C 
ATOM      7  N   LIG    1       -1.911  -1.177  -1.010  0.00  0.00    -0.299 N 
ATOM      8  H   LIG    1       -2.344  -1.703  -1.832  0.00  0.00    +0.150 HD
ATOM      9  C   LIG    1       -1.092  -0.041  -1.200  0.00  0.00    +0.234 C 
ATOM     10  O   LIG    1       -1.000   0.434  -2.348  0.00  0.00    -0.274 OA
ENDROOT
BRANCH   1  11
ATOM     11  C   LIG    1        0.914  -0.217   0.083  0.00  0.00    -0.024 A 
ATOM     12  C   LIG    1        1.378  -0.683   1.282  0.00  0.00    +0.005 A 
ATOM     13  C   LIG    1        2.589  -1.355   1.288  0.00  0.00    +0.000 A 
ATOM     14  C   LIG    1        3.287  -1.538   0.110  0.00  0.00    +0.000 A 
ATOM     15  C   LIG    1        2.821  -1.069  -1.101  0.00  0.00    +0.000 A 
ATOM     16  C   LIG    1        1.607  -0.397  -1.096  0.00  0.00    +0.005 A 
ENDBRANCH   1  11
BRANCH   1  17
ATOM     17  C   LIG    1       -0.025   1.978  -0.218  0.00  0.00    +0.027 C 
ATOM     18  C   LIG    1       -1.219   2.858  -0.444  0.00  0.00    +0.006 C 
ENDBRANCH   1  17
TORSDOF 2
