REMARK  Name = molecules/DQTRREPKGJIABH-UHFFFAOYSA-N.pdb
REMARK                            x       y       z     vdW  Elec       q    Type
REMARK                         _______ _______ _______ _____ _____    ______ ____
ROOT
ATOM      1  C   LIG    1       -1.899   0.371   1.772  0.00  0.00    -0.010 A 
ATOM      2  C   LIG    1       -0.841   0.044   2.655  0.00  0.00    +0.052 A 
ATOM      3  C   LIG    1       -1.066  -0.519   3.873  0.00  0.00    +0.040 A 
ATOM      4 BR   LIG    1        0.341  -0.969   5.083  0.00  0.00    -0.048 Br
ATOM      5  C   LIG    1       -2.350  -0.783   4.269  0.00  0.00    +0.032 A 
ATOM      6  C   LIG    1       -3.393  -0.480   3.442  0.00  0.00    +0.019 A 
ATOM      7 BR   LIG    1       -5.185  -0.852   4.004  0.00  0.00    -0.050 Br
ATOM      8  C   LIG    1       -3.156   0.096   2.196  0.00  0.00    +0.022 A 
ENDROOT
BRANCH   2   9
ATOM      9  N   LIG    1        0.530   0.307   2.277  0.00  0.00    -0.280 N 
ATOM     10  H   LIG    1        0.976   1.214   2.504  0.00  0.00    +0.155 HD
ATOM     11  C   LIG    1        1.286  -0.670   1.589  0.00  0.00    +0.248 C 
ATOM     12  O   LIG    1        0.722  -1.763   1.324  0.00  0.00    -0.270 OA
BRANCH  11  13
ATOM     13  C   LIG    1        2.662  -0.430   1.200  0.00  0.00    +0.041 A 
ATOM     14  C   LIG    1        3.366   0.705   1.490  0.00  0.00    +0.017 A 
ATOM     15  C   LIG    1        4.699   0.872   1.083  0.00  0.00    +0.051 A 
ATOM     16  C   LIG    1        5.345  -0.112   0.373  0.00  0.00    +0.173 A 
ATOM     17  C   LIG    1        4.623  -1.248   0.089  0.00  0.00    +0.163 A 
ATOM     18  C   LIG    1        3.315  -1.424   0.482  0.00  0.00    +0.062 A 
BRANCH  17  19
ATOM     19  O   LIG    1        5.294  -2.240  -0.634  0.00  0.00    -0.491 OA
ATOM     20  C   LIG    1        4.666  -3.438  -0.983  0.00  0.00    +0.277 C 
ENDBRANCH  17  19
BRANCH  16  21
ATOM     21  O   LIG    1        6.662   0.021  -0.044  0.00  0.00    -0.422 OA
BRANCH  21  22
ATOM     22  C   LIG    1        7.032   0.562  -1.248  0.00  0.00    +0.309 C 
ATOM     23  C   LIG    1        8.444   0.703  -1.692  0.00  0.00    +0.136 C 
ATOM     24  O   LIG    1        6.130   0.966  -2.030  0.00  0.00    -0.251 OA
ENDBRANCH  21  22
ENDBRANCH  16  21
ENDBRANCH  11  13
ENDBRANCH   2   9
BRANCH   1  25
ATOM     25  C   LIG    1       -1.486   0.965   0.531  0.00  0.00    +0.121 C 
BRANCH  25  26
ATOM     26  N   LIG    1       -2.256   1.386  -0.517  0.00  0.00    -0.298 NA
ATOM     27  C   LIG    1       -1.472   1.988  -1.594  0.00  0.00    +0.105 C 
BRANCH  26  28
ATOM     28  C   LIG    1       -3.552   1.022  -0.841  0.00  0.00    +0.057 C 
ATOM     29  C   LIG    1       -3.795  -0.446  -1.147  0.00  0.00    +0.019 C 
ATOM     30  C   LIG    1       -5.193  -0.566  -1.675  0.00  0.00    +0.002 C 
ATOM     31  C   LIG    1       -6.029   0.675  -1.484  0.00  0.00    +0.000 C 
ATOM     32  C   LIG    1       -5.441   1.868  -2.173  0.00  0.00    +0.002 C 
ATOM     33  C   LIG    1       -3.913   1.708  -2.199  0.00  0.00    +0.019 C 
ENDBRANCH  26  28
ENDBRANCH  25  26
ENDBRANCH   1  25
TORSDOF 8
