REMARK  Name = molecules/DRBBFCLWYRJSJZ-UHFFFAOYSA-N.pdb
REMARK                            x       y       z     vdW  Elec       q    Type
REMARK                         _______ _______ _______ _____ _____    ______ ____
ROOT
ATOM      1  C   LIG    1        0.635  -0.601  -0.987  0.00  0.00    +0.389 C 
ATOM      2  N   LIG    1        0.939  -1.703  -1.572  0.00  0.00    -0.129 NA
ATOM      3  H   LIG    1        0.296  -2.511  -1.613  0.00  0.00    +0.306 HD
ENDROOT
BRANCH   1   4
ATOM      4  N   LIG    1       -0.648  -0.497  -0.369  0.00  0.00    -0.254 N 
ATOM      5  C   LIG    1       -1.139  -1.624   0.378  0.00  0.00    +0.243 C 
BRANCH   4   6
ATOM      6  C   LIG    1       -1.362   0.741  -0.543  0.00  0.00    +0.318 C 
BRANCH   6   7
ATOM      7  C   LIG    1       -2.666   0.816   0.098  0.00  0.00    +0.339 C 
ATOM      8  O   LIG    1       -3.109  -0.154   0.752  0.00  0.00    -0.247 OA
BRANCH   7   9
ATOM      9  O   LIG    1       -3.419   1.968  -0.019  0.00  0.00    -0.478 OA
ATOM     10  H   LIG    1       -3.760   2.489   0.801  0.00  0.00    +0.295 HD
ENDBRANCH   7   9
ENDBRANCH   6   7
ENDBRANCH   4   6
ENDBRANCH   1   4
BRANCH   1  11
ATOM     11  N   LIG    1        1.592   0.444  -0.991  0.00  0.00    -0.184 N 
ATOM     12  H   LIG    1        1.690   0.993  -1.888  0.00  0.00    +0.269 HD
BRANCH  11  13
ATOM     13  P   LIG    1        2.588   0.862   0.364  0.00  0.00    +0.492 P 
ATOM     14  O   LIG    1        3.117   2.282   0.190  0.00  0.00    -0.220 OA
BRANCH  13  15
ATOM     15  O   LIG    1        1.761   0.825   1.828  0.00  0.00    -0.296 OA
ATOM     16  H   LIG    1        1.394  -0.045   2.063  0.00  0.00    +0.223 HD
ENDBRANCH  13  15
BRANCH  13  17
ATOM     17  O   LIG    1        3.920  -0.191   0.359  0.00  0.00    -0.296 OA
ATOM     18  H   LIG    1        4.020  -0.592   1.278  0.00  0.00    +0.223 HD
ENDBRANCH  13  17
ENDBRANCH  11  13
ENDBRANCH   1  11
TORSDOF 8
