REMARK  Name = molecules/DRLFMBDRBRZALE-UHFFFAOYSA-N.pdb
REMARK                            x       y       z     vdW  Elec       q    Type
REMARK                         _______ _______ _______ _____ _____    ______ ____
ROOT
ATOM      1  C   LIG    1        0.095  -1.525  -0.291  0.00  0.00    -0.021 A 
ATOM      2  C   LIG    1       -0.182  -2.855  -0.055  0.00  0.00    +0.087 A 
ATOM      3  N   LIG    1       -1.492  -2.975   0.232  0.00  0.00    -0.360 N 
ATOM      4  H   LIG    1       -2.015  -3.853   0.455  0.00  0.00    +0.165 HD
ATOM      5  C   LIG    1       -2.051  -1.776   0.186  0.00  0.00    +0.047 A 
ATOM      6  C   LIG    1       -3.357  -1.312   0.368  0.00  0.00    +0.030 A 
ATOM      7  C   LIG    1       -3.650   0.027   0.223  0.00  0.00    +0.047 A 
ATOM      8  C   LIG    1       -2.705   0.984  -0.101  0.00  0.00    +0.121 A 
ATOM      9  C   LIG    1       -1.400   0.516  -0.280  0.00  0.00    +0.056 A 
ATOM     10  C   LIG    1       -1.097  -0.827  -0.139  0.00  0.00    +0.006 A 
ENDROOT
BRANCH   8  11
ATOM     11  O   LIG    1       -2.990   2.337  -0.251  0.00  0.00    -0.495 OA
ATOM     12  C   LIG    1       -4.259   2.896  -0.103  0.00  0.00    +0.277 C 
ENDBRANCH   8  11
BRANCH   1  13
ATOM     13  C   LIG    1        1.423  -0.996  -0.605  0.00  0.00    +0.056 C 
BRANCH  13  14
ATOM     14  C   LIG    1        2.084  -0.475   0.677  0.00  0.00    +0.109 C 
BRANCH  14  15
ATOM     15  N   LIG    1        3.377   0.040   0.389  0.00  0.00    -0.315 N 
ATOM     16  C   LIG    1        4.560   0.486   0.117  0.00  0.00    +0.210 C 
ATOM     17  C   LIG    1        4.973   1.931   0.462  0.00  0.00    +0.109 C 
ATOM     18  O   LIG    1        5.564  -0.139  -0.449  0.00  0.00    -0.276 OA
ATOM     19  H   LIG    1        3.738  -1.224  -0.048  0.00  0.00    +0.149 HD
ENDBRANCH  14  15
ENDBRANCH  13  14
ENDBRANCH   1  13
TORSDOF 4
