REMARK  Name = molecules/DRMHNJGOEAYOIZ-CYBMUJFWSA-N.pdb
REMARK                            x       y       z     vdW  Elec       q    Type
REMARK                         _______ _______ _______ _____ _____    ______ ____
ROOT
ATOM      1  C   LIG    1       -0.017   0.267  -0.713  0.00  0.00    +0.052 A 
ATOM      2  C   LIG    1        1.151   0.953  -0.495  0.00  0.00    +0.132 A 
ATOM      3  C   LIG    1        1.043   2.280  -0.128  0.00  0.00    +0.046 A 
ATOM      4  C   LIG    1       -0.169   2.904   0.017  0.00  0.00    +0.004 A 
ATOM      5  C   LIG    1       -1.356   2.192  -0.208  0.00  0.00    +0.006 A 
ATOM      6  C   LIG    1       -1.256   0.871  -0.574  0.00  0.00    -0.014 A 
ENDROOT
BRANCH   2   7
ATOM      7  O   LIG    1        2.409   0.396  -0.623  0.00  0.00    -0.425 OA
BRANCH   7   8
ATOM      8  C   LIG    1        2.963  -0.341   0.437  0.00  0.00    +0.318 C 
ATOM      9  O   LIG    1        2.243  -0.452   1.470  0.00  0.00    -0.250 OA
BRANCH   8  10
ATOM     10  C   LIG    1        4.309  -0.946   0.339  0.00  0.00    +0.060 C 
ATOM     11  C   LIG    1        4.500  -1.805   1.598  0.00  0.00    +0.022 C 
ATOM     12  C   LIG    1        5.417   0.074   0.275  0.00  0.00    +0.022 C 
ATOM     13  C   LIG    1        4.394  -1.861  -0.883  0.00  0.00    +0.022 C 
ENDBRANCH   8  10
ENDBRANCH   7   8
ENDBRANCH   2   7
BRANCH   6  14
ATOM     14  C   LIG    1       -2.486   0.085  -0.814  0.00  0.00    +0.158 C 
BRANCH  14  15
ATOM     15  O   LIG    1       -2.294  -0.622  -1.989  0.00  0.00    -0.386 OA
ATOM     16  H   LIG    1       -2.083  -1.568  -1.722  0.00  0.00    +0.210 HD
ENDBRANCH  14  15
BRANCH  14  17
ATOM     17  C   LIG    1       -3.748   0.881  -0.803  0.00  0.00    +0.117 C 
BRANCH  17  18
ATOM     18  N   LIG    1       -4.929   0.062  -0.963  0.00  0.00    -0.313 NA
ATOM     19  H   LIG    1       -5.024  -0.385  -1.881  0.00  0.00    +0.122 HD
BRANCH  18  20
ATOM     20  C   LIG    1       -5.185  -0.785   0.161  0.00  0.00    +0.077 C 
ATOM     21  C   LIG    1       -5.575   0.062   1.347  0.00  0.00    +0.020 C 
ENDBRANCH  18  20
ENDBRANCH  17  18
ENDBRANCH  14  17
ENDBRANCH   6  14
TORSDOF 8
