REMARK  Name = molecules/drugBank_leishmania.pdb
REMARK                            x       y       z     vdW  Elec       q    Type
REMARK                         _______ _______ _______ _____ _____    ______ ____
ROOT
ATOM      1  O   LIG    1        3.715  -0.654   0.000  0.00  0.00    -0.431 OA
ATOM      2  C   LIG    1        3.048  -0.170   0.000  0.00  0.00    +0.289 A 
ATOM      3  C   LIG    1        3.303   0.615   0.000  0.00  0.00    +0.066 A 
ATOM      4  C   LIG    1        4.128   0.615   0.000  0.00  0.00    +0.044 A 
ATOM      5  C   LIG    1        4.382  -0.170   0.000  0.00  0.00    +0.168 A 
ENDROOT
BRANCH   2   6
ATOM      6  N   LIG    1        2.263  -0.424   0.000  0.00  0.00    +0.093 N 
ATOM      7  O   LIG    1        2.091  -1.232   0.000  0.00  0.00    -0.123 OA
ATOM      8  O   LIG    1        1.650   0.128   0.000  0.00  0.00    -0.123 OA
ENDBRANCH   2   6
BRANCH   5   9
ATOM      9  C   LIG    1        5.167  -0.424   0.000  0.00  0.00    +0.157 C 
ATOM     10  N   LIG    1        5.780   0.128   0.000  0.00  0.00    -0.150 NA
BRANCH  10  11
ATOM     11  N   LIG    1        6.565  -0.128   0.000  0.00  0.00    -0.059 NA
ATOM     12  C   LIG    1        7.178   0.424   0.000  0.00  0.00    +0.380 C 
ATOM     13  N   LIG    1        7.962   0.170   0.000  0.00  0.00    -0.066 NA
ATOM     14  O   LIG    1        7.006   1.232   0.000  0.00  0.00    -0.246 OA
ENDBRANCH  10  11
ENDBRANCH   5   9
TORSDOF 3
