REMARK  Name = molecules/DSFGXPJYDCSWTA-VIFPVBQESA-N.pdb
REMARK                            x       y       z     vdW  Elec       q    Type
REMARK                         _______ _______ _______ _____ _____    ______ ____
ROOT
ATOM      1  N   LIG    1       -0.757  -0.152   0.885  0.00  0.00    -0.322 N 
ATOM      2  C   LIG    1       -0.835   0.373   2.115  0.00  0.00    +0.202 A 
ATOM      3  N   LIG    1       -2.081   0.775   2.356  0.00  0.00    -0.218 NA
ATOM      4  C   LIG    1       -2.823   0.509   1.268  0.00  0.00    +0.168 A 
ATOM      5  N   LIG    1       -4.130   0.703   0.963  0.00  0.00    -0.280 N 
ATOM      6  C   LIG    1       -4.936   1.325   2.000  0.00  0.00    +0.155 C 
ATOM      7  C   LIG    1       -4.609   0.335  -0.218  0.00  0.00    +0.333 A 
ATOM      8  O   LIG    1       -5.819   0.521  -0.487  0.00  0.00    -0.246 OA
ATOM      9  N   LIG    1       -3.824  -0.241  -1.157  0.00  0.00    -0.262 N 
ATOM     10  C   LIG    1       -2.526  -0.453  -0.898  0.00  0.00    +0.282 A 
ATOM     11  O   LIG    1       -1.758  -0.984  -1.736  0.00  0.00    -0.265 OA
ATOM     12  C   LIG    1       -4.411  -0.623  -2.441  0.00  0.00    +0.157 C 
ATOM     13  C   LIG    1       -1.992  -0.085   0.316  0.00  0.00    +0.152 A 
ENDROOT
BRANCH   1  14
ATOM     14  C   LIG    1        0.390  -0.707   0.229  0.00  0.00    +0.156 C 
BRANCH  14  15
ATOM     15  C   LIG    1        1.097   0.379  -0.555  0.00  0.00    +0.148 C 
BRANCH  15  16
ATOM     16  O   LIG    1        1.450   1.398   0.292  0.00  0.00    -0.389 OA
ATOM     17  H   LIG    1        0.676   1.738   0.764  0.00  0.00    +0.210 HD
ENDBRANCH  15  16
BRANCH  15  18
ATOM     18  C   LIG    1        2.296  -0.198  -1.247  0.00  0.00    +0.117 C 
BRANCH  18  19
ATOM     19  N   LIG    1        3.233  -0.728  -0.364  0.00  0.00    -0.301 NA
ATOM     20  C   LIG    1        3.606  -2.090  -0.478  0.00  0.00    +0.105 C 
BRANCH  19  21
ATOM     21  C   LIG    1        3.989   0.079   0.489  0.00  0.00    +0.112 C 
BRANCH  21  22
ATOM     22  C   LIG    1        4.993   0.980  -0.184  0.00  0.00    +0.171 C 
BRANCH  22  23
ATOM     23  O   LIG    1        5.931   0.253  -0.916  0.00  0.00    -0.394 OA
ATOM     24  H   LIG    1        6.771   0.759  -0.929  0.00  0.00    +0.209 HD
ENDBRANCH  22  23
ENDBRANCH  21  22
ENDBRANCH  19  21
ENDBRANCH  18  19
ENDBRANCH  15  18
ENDBRANCH  14  15
ENDBRANCH   1  14
TORSDOF 8
