REMARK  Name = molecules/DTGLZDAWLRGWQN-IBGZPJMESA-N.pdb
REMARK                            x       y       z     vdW  Elec       q    Type
REMARK                         _______ _______ _______ _____ _____    ______ ____
ROOT
ATOM      1  C   LIG    1       -1.546  -0.256   0.622  0.00  0.00    +0.157 C 
ENDROOT
BRANCH   1   2
ATOM      2  N   LIG    1       -0.281   0.191   1.167  0.00  0.00    -0.285 NA
ATOM      3  C   LIG    1        0.755  -0.689   1.050  0.00  0.00    +0.121 C 
ATOM      4  C   LIG    1        1.935  -0.234   0.225  0.00  0.00    -0.020 A 
ATOM      5  C   LIG    1        3.071  -0.981  -0.014  0.00  0.00    +0.059 A 
ATOM      6  C   LIG    1        4.030  -0.410  -0.780  0.00  0.00    +0.170 A 
ATOM      7  S   LIG    1        3.394   1.117  -1.167  0.00  0.00    -0.056 S 
ATOM      8  C   LIG    1        1.912   1.004  -0.345  0.00  0.00    -0.001 A 
ATOM      9  C   LIG    1        0.773   1.955  -0.214  0.00  0.00    +0.058 C 
ATOM     10  C   LIG    1       -0.070   1.585   0.971  0.00  0.00    +0.091 C 
BRANCH   6  11
ATOM     11  O   LIG    1        5.273  -0.983  -1.157  0.00  0.00    -0.419 OA
BRANCH  11  12
ATOM     12  C   LIG    1        6.356  -0.738  -0.333  0.00  0.00    +0.310 C 
ATOM     13  O   LIG    1        6.191  -0.030   0.695  0.00  0.00    -0.251 OA
ATOM     14  C   LIG    1        7.732  -1.283  -0.613  0.00  0.00    +0.136 C 
ENDBRANCH  11  12
ENDBRANCH   6  11
ENDBRANCH   1   2
BRANCH   1  15
ATOM     15  C   LIG    1       -2.771   0.108   1.273  0.00  0.00    +0.012 A 
ATOM     16  C   LIG    1       -2.885   0.901   2.389  0.00  0.00    +0.128 A 
ATOM     17  F   LIG    1       -1.825   1.407   3.083  0.00  0.00    -0.205 F 
ATOM     18  C   LIG    1       -4.122   1.226   2.965  0.00  0.00    +0.039 A 
ATOM     19  C   LIG    1       -5.278   0.743   2.409  0.00  0.00    +0.003 A 
ATOM     20  C   LIG    1       -5.151  -0.053   1.292  0.00  0.00    +0.000 A 
ATOM     21  C   LIG    1       -3.953  -0.375   0.723  0.00  0.00    +0.008 A 
ENDBRANCH   1  15
BRANCH   1  22
ATOM     22  C   LIG    1       -1.475  -0.265  -0.843  0.00  0.00    +0.158 C 
ATOM     23  O   LIG    1       -0.489  -0.766  -1.373  0.00  0.00    -0.295 OA
BRANCH  22  24
ATOM     24  C   LIG    1       -2.505   0.290  -1.766  0.00  0.00    +0.057 C 
ATOM     25  C   LIG    1       -1.912   0.981  -3.006  0.00  0.00    +0.012 C 
ATOM     26  C   LIG    1       -2.614  -0.300  -3.160  0.00  0.00    +0.012 C 
ENDBRANCH  22  24
ENDBRANCH   1  22
TORSDOF 6
