REMARK  Name = molecules/DTOSIQBPPRVQHS-PDBXOOCHSA-N.pdb
REMARK                            x       y       z     vdW  Elec       q    Type
REMARK                         _______ _______ _______ _____ _____    ______ ____
ROOT
ATOM      1  C   LIG    1        0.374   0.389  -0.449  0.00  0.00    +0.027 C 
ENDROOT
BRANCH   1   2
ATOM      2  C   LIG    1       -0.478   0.355   0.725  0.00  0.00    -0.031 C 
ATOM      3  C   LIG    1       -1.405  -0.550   0.953  0.00  0.00    -0.027 C 
BRANCH   3   4
ATOM      4  C   LIG    1       -1.726  -1.639   0.096  0.00  0.00    +0.053 C 
BRANCH   4   5
ATOM      5  C   LIG    1       -2.957  -1.898  -0.556  0.00  0.00    -0.027 C 
ATOM      6  C   LIG    1       -4.039  -1.210  -0.570  0.00  0.00    -0.027 C 
BRANCH   6   7
ATOM      7  C   LIG    1       -4.196   0.060   0.136  0.00  0.00    +0.053 C 
BRANCH   7   8
ATOM      8  C   LIG    1       -5.243   0.024   1.173  0.00  0.00    -0.027 C 
ATOM      9  C   LIG    1       -6.312   0.774   1.259  0.00  0.00    -0.031 C 
BRANCH   9  10
ATOM     10  C   LIG    1       -6.609   1.815   0.257  0.00  0.00    +0.023 C 
ATOM     11  C   LIG    1       -7.959   1.470  -0.399  0.00  0.00    +0.008 C 
ENDBRANCH   9  10
ENDBRANCH   7   8
ENDBRANCH   6   7
ENDBRANCH   4   5
ENDBRANCH   3   4
ENDBRANCH   1   2
BRANCH   1  12
ATOM     12  C   LIG    1        1.869   0.272  -0.093  0.00  0.00    +0.004 C 
BRANCH  12  13
ATOM     13  C   LIG    1        2.587   0.326  -1.420  0.00  0.00    +0.000 C 
BRANCH  13  14
ATOM     14  C   LIG    1        4.082   0.230  -1.254  0.00  0.00    +0.000 C 
BRANCH  14  15
ATOM     15  C   LIG    1        4.488  -1.053  -0.595  0.00  0.00    +0.001 C 
BRANCH  15  16
ATOM     16  C   LIG    1        5.988  -1.155  -0.442  0.00  0.00    +0.011 C 
BRANCH  16  17
ATOM     17  C   LIG    1        6.542  -0.033   0.399  0.00  0.00    +0.120 C 
BRANCH  17  18
ATOM     18  C   LIG    1        8.034  -0.194   0.519  0.00  0.00    +0.305 C 
ATOM     19  O   LIG    1        8.589  -1.152  -0.041  0.00  0.00    -0.251 OA
BRANCH  18  20
ATOM     20  O   LIG    1        8.734   0.739   1.256  0.00  0.00    -0.481 OA
ATOM     21  H   LIG    1        8.351   1.653   1.455  0.00  0.00    +0.295 HD
ENDBRANCH  18  20
ENDBRANCH  17  18
ENDBRANCH  16  17
ENDBRANCH  15  16
ENDBRANCH  14  15
ENDBRANCH  13  14
ENDBRANCH  12  13
ENDBRANCH   1  12
TORSDOF 14
