REMARK  Name = molecules/DTOUUUZOYKYHEP-WKCHPHFGSA-N.pdb
REMARK                            x       y       z     vdW  Elec       q    Type
REMARK                         _______ _______ _______ _____ _____    ______ ____
ROOT
ATOM      1  N   LIG    1        1.148  -0.379   0.100  0.00  0.00    -0.288 NA
ATOM      2  C   LIG    1        0.893  -1.761  -0.255  0.00  0.00    +0.108 C 
ATOM      3  C   LIG    1       -0.454  -2.219   0.261  0.00  0.00    +0.039 C 
ATOM      4  C   LIG    1       -1.124  -0.998   0.837  0.00  0.00    +0.108 C 
ATOM      5  N   LIG    1       -1.231  -0.029  -0.265  0.00  0.00    -0.288 NA
ATOM      6  C   LIG    1       -1.243  -2.925  -0.791  0.00  0.00    +0.030 C 
ATOM      7  C   LIG    1        0.150   0.526  -0.371  0.00  0.00    +0.171 C 
ENDROOT
BRANCH   3   8
ATOM      8  N   LIG    1       -0.296  -3.159   1.385  0.00  0.00    -0.323 NA
ATOM      9  H   LIG    1       -0.171  -2.602   2.257  0.00  0.00    +0.119 HD
ATOM     10  H   LIG    1       -1.213  -3.657   1.452  0.00  0.00    +0.119 HD
ENDBRANCH   3   8
BRANCH   1  11
ATOM     11  C   LIG    1        2.401   0.089  -0.461  0.00  0.00    +0.089 C 
BRANCH  11  12
ATOM     12  C   LIG    1        3.591  -0.694  -0.061  0.00  0.00    +0.003 C 
BRANCH  12  13
ATOM     13  C   LIG    1        3.825  -0.718   1.432  0.00  0.00    +0.001 C 
ATOM     14  C   LIG    1        5.056  -1.532   1.758  0.00  0.00    +0.004 C 
ENDBRANCH  12  13
BRANCH  12  15
ATOM     15  C   LIG    1        4.819  -0.122  -0.716  0.00  0.00    +0.005 C 
BRANCH  15  16
ATOM     16  C   LIG    1        5.054   1.301  -0.336  0.00  0.00    +0.000 C 
BRANCH  16  17
ATOM     17  C   LIG    1        6.299   1.867  -1.005  0.00  0.00    -0.003 C 
ATOM     18  C   LIG    1        6.432   3.307  -0.550  0.00  0.00    +0.004 C 
ENDBRANCH  16  17
ENDBRANCH  15  16
ENDBRANCH  12  15
ENDBRANCH  11  12
ENDBRANCH   1  11
BRANCH   5  19
ATOM     19  C   LIG    1       -2.126   1.028   0.071  0.00  0.00    +0.089 C 
BRANCH  19  20
ATOM     20  C   LIG    1       -3.564   0.908  -0.250  0.00  0.00    +0.003 C 
BRANCH  20  21
ATOM     21  C   LIG    1       -3.773   0.983  -1.775  0.00  0.00    +0.001 C 
ATOM     22  C   LIG    1       -3.009  -0.129  -2.464  0.00  0.00    +0.004 C 
ENDBRANCH  20  21
BRANCH  20  23
ATOM     23  C   LIG    1       -4.264  -0.222   0.347  0.00  0.00    +0.005 C 
BRANCH  23  24
ATOM     24  C   LIG    1       -5.737  -0.350   0.096  0.00  0.00    +0.000 C 
BRANCH  24  25
ATOM     25  C   LIG    1       -6.638   0.669   0.645  0.00  0.00    -0.003 C 
ATOM     26  C   LIG    1       -6.516   2.085   0.279  0.00  0.00    +0.004 C 
ENDBRANCH  24  25
ENDBRANCH  23  24
ENDBRANCH  20  23
ENDBRANCH  19  20
ENDBRANCH   5  19
TORSDOF 13
