REMARK  Name = molecules/DUGOZIWVEXMGBE-CHWSQXEVSA-N.pdb
REMARK                            x       y       z     vdW  Elec       q    Type
REMARK                         _______ _______ _______ _____ _____    ______ ____
ROOT
ATOM      1  C   LIG    1       -0.622  -0.322   0.544  0.00  0.00    +0.144 C 
ENDROOT
BRANCH   1   2
ATOM      2  C   LIG    1        0.768  -0.132  -0.016  0.00  0.00    +0.072 C 
ATOM      3  N   LIG    1        1.586  -1.208   0.451  0.00  0.00    -0.312 NA
ATOM      4  H   LIG    1        1.350  -1.567   1.381  0.00  0.00    +0.122 HD
ATOM      5  C   LIG    1        2.974  -1.090   0.153  0.00  0.00    +0.081 C 
ATOM      6  C   LIG    1        3.332   0.106  -0.685  0.00  0.00    +0.015 C 
ATOM      7  C   LIG    1        2.734   1.367  -0.153  0.00  0.00    +0.003 C 
ATOM      8  C   LIG    1        1.339   1.219   0.349  0.00  0.00    +0.020 C 
ENDBRANCH   1   2
BRANCH   1   9
ATOM      9  C   LIG    1       -1.552   0.754   0.129  0.00  0.00    -0.032 A 
ATOM     10  C   LIG    1       -2.191   1.542   1.061  0.00  0.00    +0.004 A 
ATOM     11  C   LIG    1       -3.068   2.558   0.670  0.00  0.00    +0.000 A 
ATOM     12  C   LIG    1       -3.301   2.780  -0.664  0.00  0.00    +0.000 A 
ATOM     13  C   LIG    1       -2.678   2.010  -1.610  0.00  0.00    +0.000 A 
ATOM     14  C   LIG    1       -1.802   0.996  -1.204  0.00  0.00    +0.004 A 
ENDBRANCH   1   9
BRANCH   1  15
ATOM     15  C   LIG    1       -1.115  -1.663   0.147  0.00  0.00    +0.316 C 
ATOM     16  O   LIG    1       -2.206  -1.726  -0.464  0.00  0.00    -0.250 OA
BRANCH  15  17
ATOM     17  O   LIG    1       -0.428  -2.811   0.422  0.00  0.00    -0.467 OA
ATOM     18  C   LIG    1       -0.905  -4.107   0.037  0.00  0.00    +0.280 C 
ENDBRANCH  15  17
ENDBRANCH   1  15
TORSDOF 4
