REMARK  Name = molecules/DUHUCHOQIDJXAT-OLVMNOGESA-N.pdb
REMARK                            x       y       z     vdW  Elec       q    Type
REMARK                         _______ _______ _______ _____ _____    ______ ____
ROOT
ATOM      1  C   LIG    1        1.915  -1.659   1.226  0.00  0.00    +0.012 C 
ATOM      2  C   LIG    1        1.877  -0.706   0.060  0.00  0.00    -0.019 C 
ATOM      3  C   LIG    1        2.740   0.513   0.260  0.00  0.00    -0.002 C 
ATOM      4  C   LIG    1        2.086   1.524   1.178  0.00  0.00    +0.004 C 
ATOM      5  C   LIG    1        0.871   2.023   0.420  0.00  0.00    +0.005 C 
ATOM      6  C   LIG    1       -0.083   0.860   0.338  0.00  0.00    +0.003 C 
ATOM      7  C   LIG    1       -1.354   1.163  -0.349  0.00  0.00    -0.000 C 
ATOM      8  C   LIG    1       -2.387   0.101  -0.025  0.00  0.00    -0.013 C 
ATOM      9  C   LIG    1       -2.751   0.057   1.412  0.00  0.00    +0.012 C 
ATOM     10  C   LIG    1       -1.897  -1.189  -0.597  0.00  0.00    +0.082 C 
ATOM     11  C   LIG    1       -0.489  -1.427  -0.231  0.00  0.00    +0.138 C 
ATOM     12  O   LIG    1       -0.164  -2.513   0.167  0.00  0.00    -0.297 OA
ATOM     13  C   LIG    1       -3.556   0.682  -0.805  0.00  0.00    +0.062 C 
ATOM     14  C   LIG    1       -3.452   2.175  -0.573  0.00  0.00    +0.012 C 
ATOM     15  C   LIG    1       -2.039   2.416  -0.026  0.00  0.00    +0.005 C 
ATOM     16  C   LIG    1        4.143   0.200   0.637  0.00  0.00    +0.035 C 
ATOM     17  C   LIG    1        4.781  -0.744  -0.319  0.00  0.00    +0.115 C 
ATOM     18  C   LIG    1        3.928  -1.848  -0.812  0.00  0.00    +0.032 C 
ATOM     19  C   LIG    1        0.494  -0.341  -0.358  0.00  0.00    +0.065 C 
ATOM     20  C   LIG    1        2.506  -1.445  -1.114  0.00  0.00    +0.010 C 
ENDROOT
BRANCH  13  21
ATOM     21  C   LIG    1       -4.846   0.194  -0.253  0.00  0.00    +0.134 C 
ATOM     22  O   LIG    1       -5.677   0.963   0.196  0.00  0.00    -0.297 OA
ATOM     23  C   LIG    1       -5.172  -1.257  -0.227  0.00  0.00    +0.086 C 
ENDBRANCH  13  21
BRANCH  17  24
ATOM     24  O   LIG    1        5.358  -0.035  -1.397  0.00  0.00    -0.392 OA
ATOM     25  H   LIG    1        5.896  -0.696  -1.931  0.00  0.00    +0.210 HD
ENDBRANCH  17  24
TORSDOF 2
