REMARK  Name = molecules/DUQOOLBWGUKRAJ-UHFFFAOYSA-N.pdb
REMARK                            x       y       z     vdW  Elec       q    Type
REMARK                         _______ _______ _______ _____ _____    ______ ____
ROOT
ATOM      1  C   LIG    1        0.572  -0.332  -2.772  0.00  0.00    +0.045 C 
ATOM      2  C   LIG    1       -0.090  -0.062  -1.482  0.00  0.00    -0.023 A 
ATOM      3  C   LIG    1        0.673   0.136  -0.306  0.00  0.00    +0.066 A 
ATOM      4  C   LIG    1        0.015   0.329   0.852  0.00  0.00    -0.036 A 
ATOM      5  C   LIG    1        0.630   0.638   2.209  0.00  0.00    +0.044 C 
ATOM      6  C   LIG    1       -1.380   0.346   0.904  0.00  0.00    +0.014 A 
ATOM      7  C   LIG    1       -2.117   0.153  -0.262  0.00  0.00    +0.013 A 
ATOM      8  C   LIG    1       -3.518   0.257  -0.220  0.00  0.00    +0.095 A 
ATOM      9  N   LIG    1       -4.158   0.151  -1.354  0.00  0.00    -0.173 NA
ATOM     10  N   LIG    1       -3.558  -0.044  -2.493  0.00  0.00    -0.242 N 
ATOM     11  C   LIG    1       -2.205  -0.155  -2.602  0.00  0.00    +0.273 A 
ATOM     12  O   LIG    1       -1.690  -0.348  -3.728  0.00  0.00    -0.266 OA
ATOM     13  H   LIG    1       -4.103  -0.122  -3.409  0.00  0.00    +0.192 HD
ATOM     14  C   LIG    1       -1.465  -0.051  -1.453  0.00  0.00    +0.053 A 
ENDROOT
BRANCH   3  15
ATOM     15  C   LIG    1        2.112   0.293  -0.393  0.00  0.00    +0.340 C 
ATOM     16  O   LIG    1        2.760   0.425  -1.463  0.00  0.00    -0.245 OA
BRANCH  15  17
ATOM     17  O   LIG    1        2.946   0.302   0.728  0.00  0.00    -0.461 OA
BRANCH  17  18
ATOM     18  C   LIG    1        4.338   0.478   0.629  0.00  0.00    +0.229 C 
ATOM     19  C   LIG    1        5.047   0.096   1.910  0.00  0.00    +0.048 C 
ENDBRANCH  17  18
ENDBRANCH  15  17
ENDBRANCH   3  15
BRANCH   8  20
ATOM     20  C   LIG    1       -4.184   0.267   1.105  0.00  0.00    +0.213 C 
BRANCH  20  21
ATOM     21  O   LIG    1       -4.682   1.577   1.408  0.00  0.00    -0.389 OA
ATOM     22  H   LIG    1       -4.274   1.763   2.334  0.00  0.00    +0.210 HD
ENDBRANCH  20  21
ENDBRANCH   8  20
TORSDOF 5
