REMARK  Name = molecules/DUTFBSAKKUNBAL-JSNMRZPZSA-N.pdb
REMARK                            x       y       z     vdW  Elec       q    Type
REMARK                         _______ _______ _______ _____ _____    ______ ____
ROOT
ATOM      1  C   LIG    1       -0.011  -0.108   0.035  0.00  0.00    +0.003 C 
ENDROOT
BRANCH   1   2
ATOM      2  C   LIG    1        1.240   0.293   0.849  0.00  0.00    +0.020 C 
ATOM      3  C   LIG    1        1.167   1.798   1.150  0.00  0.00    +0.013 C 
BRANCH   2   4
ATOM      4  C   LIG    1        2.460   0.190   0.021  0.00  0.00    -0.044 A 
ATOM      5  C   LIG    1        3.425  -0.719   0.321  0.00  0.00    +0.007 A 
ATOM      6  C   LIG    1        4.592  -0.770  -0.425  0.00  0.00    +0.045 A 
ATOM      7  C   LIG    1        4.814   0.077  -1.473  0.00  0.00    +0.117 A 
ATOM      8  C   LIG    1        3.828   1.009  -1.782  0.00  0.00    +0.045 A 
ATOM      9  C   LIG    1        2.651   1.059  -1.028  0.00  0.00    +0.007 A 
BRANCH   7  10
ATOM     10  O   LIG    1        5.966   0.048  -2.231  0.00  0.00    -0.507 OA
ATOM     11  H   LIG    1        6.715  -0.587  -2.074  0.00  0.00    +0.292 HD
ENDBRANCH   7  10
ENDBRANCH   2   4
ENDBRANCH   1   2
BRANCH   1  12
ATOM     12  C   LIG    1        0.005  -1.572  -0.181  0.00  0.00    +0.001 C 
ATOM     13  C   LIG    1        1.074  -2.026  -1.123  0.00  0.00    +0.004 C 
ENDBRANCH   1  12
BRANCH   1  14
ATOM     14  C   LIG    1       -1.183   0.325   0.916  0.00  0.00    +0.022 C 
BRANCH  14  15
ATOM     15  C   LIG    1       -2.424   0.581   0.172  0.00  0.00    -0.044 A 
ATOM     16  C   LIG    1       -3.282  -0.430  -0.156  0.00  0.00    +0.007 A 
ATOM     17  C   LIG    1       -4.464  -0.172  -0.878  0.00  0.00    +0.045 A 
ATOM     18  C   LIG    1       -4.783   1.109  -1.270  0.00  0.00    +0.117 A 
ATOM     19  C   LIG    1       -3.928   2.127  -0.945  0.00  0.00    +0.045 A 
ATOM     20  C   LIG    1       -2.782   1.838  -0.240  0.00  0.00    +0.007 A 
BRANCH  18  21
ATOM     21  O   LIG    1       -5.973   1.359  -1.994  0.00  0.00    -0.507 OA
ATOM     22  H   LIG    1       -6.777   1.562  -1.381  0.00  0.00    +0.292 HD
ENDBRANCH  18  21
ENDBRANCH  14  15
BRANCH  14  23
ATOM     23  C   LIG    1       -1.288  -0.278   2.238  0.00  0.00    +0.005 C 
ATOM     24  C   LIG    1       -1.452  -1.718   2.461  0.00  0.00    +0.004 C 
ENDBRANCH  14  23
ENDBRANCH   1  14
TORSDOF 8
