REMARK  Name = molecules/DUYJMQONPNNFPI-UHFFFAOYSA-N.pdb
REMARK                            x       y       z     vdW  Elec       q    Type
REMARK                         _______ _______ _______ _____ _____    ______ ____
ROOT
ATOM      1  C   LIG    1       -0.328  -0.884   0.240  0.00  0.00    +0.078 A 
ATOM      2  C   LIG    1       -1.002   0.112   0.907  0.00  0.00    +0.052 A 
ATOM      3  C   LIG    1       -2.358   0.043   1.140  0.00  0.00    +0.057 A 
ATOM      4  C   LIG    1       -3.053  -1.095   0.672  0.00  0.00    +0.055 A 
ATOM      5  C   LIG    1       -2.371  -2.081   0.010  0.00  0.00    +0.072 A 
ATOM      6  C   LIG    1       -1.025  -2.022  -0.227  0.00  0.00    +0.143 A 
ENDROOT
BRANCH   3   7
ATOM      7  N   LIG    1       -3.067   1.056   1.808  0.00  0.00    -0.280 N 
ATOM      8  C   LIG    1       -2.559   2.227   2.359  0.00  0.00    +0.241 C 
ATOM      9  O   LIG    1       -1.325   2.536   2.322  0.00  0.00    -0.271 OA
ATOM     10  H   LIG    1       -4.133   0.913   1.902  0.00  0.00    +0.155 HD
BRANCH   8  11
ATOM     11  C   LIG    1       -3.401   3.232   3.043  0.00  0.00    +0.060 C 
ATOM     12  C   LIG    1       -4.687   3.054   3.159  0.00  0.00    +0.013 C 
ENDBRANCH   8  11
ENDBRANCH   3   7
BRANCH   1  13
ATOM     13  N   LIG    1        1.059  -0.842  -0.014  0.00  0.00    -0.281 N 
ATOM     14  H   LIG    1        1.500  -1.678  -0.544  0.00  0.00    +0.155 HD
BRANCH  13  17
ATOM     15  C   LIG    1        2.499   2.268   1.344  0.00  0.00    +0.116 A 
ATOM     16  N   LIG    1        1.605   1.326   1.024  0.00  0.00    -0.223 NA
ATOM     17  C   LIG    1        1.905   0.208   0.374  0.00  0.00    +0.220 A 
ATOM     18  N   LIG    1        3.213   0.071   0.041  0.00  0.00    -0.214 NA
ATOM     19  C   LIG    1        4.187   0.971   0.322  0.00  0.00    +0.078 A 
ATOM     20  C   LIG    1        3.833   2.095   0.988  0.00  0.00    +0.048 A 
BRANCH  19  21
ATOM     21  C   LIG    1        5.533   0.602  -0.086  0.00  0.00    +0.026 A 
ATOM     22  C   LIG    1        5.941  -0.722  -0.336  0.00  0.00    +0.096 A 
ATOM     23  N   LIG    1        7.212  -0.753  -0.729  0.00  0.00    -0.349 N 
ATOM     24  C   LIG    1        7.701   0.505  -0.762  0.00  0.00    +0.049 A 
ATOM     25  C   LIG    1        8.945   0.982  -1.115  0.00  0.00    +0.026 A 
ATOM     26  C   LIG    1        9.149   2.337  -1.068  0.00  0.00    +0.002 A 
ATOM     27  C   LIG    1        8.142   3.190  -0.683  0.00  0.00    +0.001 A 
ATOM     28  C   LIG    1        6.896   2.693  -0.331  0.00  0.00    +0.010 A 
ATOM     29  C   LIG    1        7.986  -1.924  -1.076  0.00  0.00    +0.149 C 
ATOM     30  C   LIG    1        6.651   1.351  -0.361  0.00  0.00    +0.009 A 
ENDBRANCH  19  21
ENDBRANCH  13  17
ENDBRANCH   1  13
BRANCH   4  31
ATOM     31  N   LIG    1       -4.442  -1.208   0.908  0.00  0.00    -0.330 N 
ATOM     32  C   LIG    1       -4.889  -1.369   2.282  0.00  0.00    +0.129 C 
BRANCH  31  33
ATOM     33  C   LIG    1       -5.472  -1.174  -0.096  0.00  0.00    +0.120 C 
BRANCH  33  34
ATOM     34  C   LIG    1       -4.989  -0.986  -1.492  0.00  0.00    +0.102 C 
BRANCH  34  35
ATOM     35  N   LIG    1       -6.180  -0.974  -2.350  0.00  0.00    -0.307 NA
ATOM     36  C   LIG    1       -7.016   0.175  -2.048  0.00  0.00    +0.104 C 
ATOM     37  C   LIG    1       -5.724  -0.788  -3.732  0.00  0.00    +0.104 C 
ENDBRANCH  34  35
ENDBRANCH  33  34
ENDBRANCH  31  33
ENDBRANCH   4  31
BRANCH   6  38
ATOM     38  O   LIG    1       -0.360  -3.044  -0.905  0.00  0.00    -0.493 OA
ATOM     39  C   LIG    1       -1.081  -4.171  -1.363  0.00  0.00    +0.277 C 
ENDBRANCH   6  38
TORSDOF 10
