REMARK  Name = molecules/DVASNQYQOZHAJN-OAHLLOKOSA-N.pdb
REMARK                            x       y       z     vdW  Elec       q    Type
REMARK                         _______ _______ _______ _____ _____    ______ ____
ROOT
ATOM      1  C   LIG    1       -0.598   0.601  -0.530  0.00  0.00    +0.116 C 
ENDROOT
BRANCH   1   2
ATOM      2  C   LIG    1       -1.530   0.511   0.605  0.00  0.00    -0.012 A 
ATOM      3  C   LIG    1       -1.538  -0.677   1.341  0.00  0.00    +0.007 A 
ATOM      4  C   LIG    1       -2.482  -0.827   2.332  0.00  0.00    +0.000 A 
ATOM      5  C   LIG    1       -3.417   0.160   2.619  0.00  0.00    +0.000 A 
ATOM      6  C   LIG    1       -3.397   1.332   1.886  0.00  0.00    +0.000 A 
ATOM      7  C   LIG    1       -2.453   1.506   0.880  0.00  0.00    +0.007 A 
ENDBRANCH   1   2
BRANCH   1   8
ATOM      8  C   LIG    1        0.690  -0.096  -0.376  0.00  0.00    -0.011 A 
ATOM      9  C   LIG    1        1.804   0.531   0.143  0.00  0.00    +0.019 A 
ATOM     10  C   LIG    1        3.029  -0.115   0.221  0.00  0.00    +0.055 A 
ATOM     11  C   LIG    1        3.139  -1.398  -0.226  0.00  0.00    +0.012 A 
ATOM     12  C   LIG    1        2.027  -2.024  -0.741  0.00  0.00    +0.001 A 
ATOM     13  C   LIG    1        0.828  -1.414  -0.824  0.00  0.00    +0.007 A 
BRANCH  10  14
ATOM     14  C   LIG    1        4.196   0.612   0.817  0.00  0.00    +0.417 C 
ATOM     15  F   LIG    1        4.121   0.378   2.195  0.00  0.00    -0.166 F 
ATOM     16  F   LIG    1        4.179   1.955   0.515  0.00  0.00    -0.166 F 
ATOM     17  F   LIG    1        5.403   0.098   0.322  0.00  0.00    -0.166 F 
ENDBRANCH  10  14
ENDBRANCH   1   8
BRANCH   1  18
ATOM     18  O   LIG    1       -0.283   1.925  -0.781  0.00  0.00    -0.379 OA
ATOM     19  H   LIG    1       -0.097   2.394   0.071  0.00  0.00    +0.211 HD
ENDBRANCH   1  18
BRANCH   1  20
ATOM     20  C   LIG    1       -1.367   0.077  -1.741  0.00  0.00    +0.041 C 
ATOM     21  C   LIG    1       -0.643   0.051  -3.019  0.00  0.00    +0.007 C 
ENDBRANCH   1  20
TORSDOF 5
