REMARK  Name = molecules/DVEQCIBLXRSYPH-LLVKDONJSA-N.pdb
REMARK                            x       y       z     vdW  Elec       q    Type
REMARK                         _______ _______ _______ _____ _____    ______ ____
ROOT
ATOM      1  O   LIG    1       -0.190  -0.428   1.592  0.00  0.00    -0.274 OA
ATOM      2  C   LIG    1       -0.003   0.075   0.495  0.00  0.00    +0.235 C 
ATOM      3  C   LIG    1        1.411   0.141  -0.114  0.00  0.00    +0.162 C 
ATOM      4  C   LIG    1        1.566   1.627  -0.259  0.00  0.00    +0.232 C 
ATOM      5  O   LIG    1        2.415   2.304   0.294  0.00  0.00    -0.275 OA
ATOM      6  N   LIG    1        0.620   2.287  -1.122  0.00  0.00    -0.239 N 
ATOM      7  C   LIG    1       -0.721   1.751  -1.120  0.00  0.00    +0.315 C 
ATOM      8  O   LIG    1       -1.596   2.288  -1.853  0.00  0.00    -0.252 OA
ATOM      9  H   LIG    1        0.905   3.093  -1.692  0.00  0.00    +0.159 HD
ATOM     10  N   LIG    1       -1.038   0.626  -0.293  0.00  0.00    -0.222 N 
ENDROOT
BRANCH  10  11
ATOM     11  C   LIG    1       -2.382   0.084  -0.256  0.00  0.00    +0.086 C 
ATOM     12  C   LIG    1       -3.015   0.188   1.107  0.00  0.00    +0.023 C 
ATOM     13  C   LIG    1       -4.427  -0.312   1.000  0.00  0.00    +0.002 C 
ATOM     14  C   LIG    1       -4.832  -0.670  -0.399  0.00  0.00    +0.000 C 
ATOM     15  C   LIG    1       -3.900  -1.651  -1.033  0.00  0.00    +0.002 C 
ATOM     16  C   LIG    1       -2.452  -1.349  -0.693  0.00  0.00    +0.023 C 
ENDBRANCH  10  11
BRANCH   3  17
ATOM     17  C   LIG    1        2.384  -0.441   0.830  0.00  0.00    +0.022 C 
BRANCH  17  18
ATOM     18  C   LIG    1        3.784  -0.580   0.398  0.00  0.00    +0.001 C 
BRANCH  18  19
ATOM     19  C   LIG    1        4.599   0.575  -0.005  0.00  0.00    -0.003 C 
ATOM     20  C   LIG    1        6.028   0.055  -0.377  0.00  0.00    +0.004 C 
ENDBRANCH  18  19
ENDBRANCH  17  18
ENDBRANCH   3  17
TORSDOF 4
