REMARK  Name = molecules/DVJCPEWCHQLAEH-UHFFFAOYSA-N.pdb
REMARK                            x       y       z     vdW  Elec       q    Type
REMARK                         _______ _______ _______ _____ _____    ______ ____
ROOT
ATOM      1  N   LIG    1        4.566  -0.974   1.069  0.00  0.00    -0.296 NA
ATOM      2  C   LIG    1        4.232   0.375   1.404  0.00  0.00    +0.100 C 
ATOM      3  C   LIG    1        2.805   0.513   1.908  0.00  0.00    +0.100 C 
ATOM      4  N   LIG    1        1.831   0.063   0.965  0.00  0.00    -0.296 NA
ATOM      5  C   LIG    1        2.283  -1.085   0.242  0.00  0.00    +0.100 C 
ATOM      6  C   LIG    1        3.351  -1.766   1.052  0.00  0.00    +0.100 C 
ENDROOT
BRANCH   1   7
ATOM      7  C   LIG    1        5.227  -1.159  -0.182  0.00  0.00    +0.119 C 
BRANCH   7   8
ATOM      8  C   LIG    1        6.535  -0.481  -0.303  0.00  0.00    -0.030 A 
ATOM      9  C   LIG    1        7.280  -0.137   0.803  0.00  0.00    +0.054 A 
ATOM     10  C   LIG    1        8.517   0.510   0.685  0.00  0.00    +0.167 A 
ATOM     11  O   LIG    1        9.449   0.958   1.609  0.00  0.00    -0.453 OA
ATOM     12  C   LIG    1       10.685   1.225   0.982  0.00  0.00    +0.466 C 
ATOM     13  O   LIG    1       10.257   1.452  -0.370  0.00  0.00    -0.453 OA
ATOM     14  C   LIG    1        9.027   0.821  -0.556  0.00  0.00    +0.166 A 
ATOM     15  C   LIG    1        8.295   0.483  -1.674  0.00  0.00    +0.050 A 
ATOM     16  C   LIG    1        7.076  -0.154  -1.546  0.00  0.00    +0.009 A 
ENDBRANCH   7   8
ENDBRANCH   1   7
BRANCH   4  17
ATOM     17  C   LIG    1        1.359   1.119   0.068  0.00  0.00    +0.111 C 
BRANCH  17  18
ATOM     18  C   LIG    1        0.373   0.491  -0.826  0.00  0.00    -0.013 C 
ATOM     19  C   LIG    1       -0.890   0.931  -0.870  0.00  0.00    -0.075 C 
ATOM     20  C   LIG    1       -1.318   2.077  -0.006  0.00  0.00    +0.039 C 
BRANCH  19  21
ATOM     21  C   LIG    1       -1.777   0.262  -1.844  0.00  0.00    +0.034 C 
BRANCH  21  22
ATOM     22  C   LIG    1       -2.893  -0.468  -1.173  0.00  0.00    +0.031 C 
BRANCH  22  23
ATOM     23  C   LIG    1       -3.773   0.357  -0.344  0.00  0.00    -0.028 C 
ATOM     24  C   LIG    1       -5.031   0.680  -0.576  0.00  0.00    -0.076 C 
ATOM     25  C   LIG    1       -5.741   1.549   0.406  0.00  0.00    +0.039 C 
BRANCH  24  26
ATOM     26  C   LIG    1       -5.735   0.209  -1.787  0.00  0.00    +0.034 C 
BRANCH  26  27
ATOM     27  C   LIG    1       -6.935  -0.644  -1.488  0.00  0.00    +0.031 C 
BRANCH  27  28
ATOM     28  C   LIG    1       -7.976   0.048  -0.709  0.00  0.00    -0.028 C 
ATOM     29  C   LIG    1       -8.310  -0.442   0.470  0.00  0.00    -0.080 C 
ATOM     30  C   LIG    1       -9.360   0.249   1.266  0.00  0.00    +0.038 C 
ATOM     31  C   LIG    1       -7.668  -1.672   1.033  0.00  0.00    +0.038 C 
ENDBRANCH  27  28
ENDBRANCH  26  27
ENDBRANCH  24  26
ENDBRANCH  22  23
ENDBRANCH  21  22
ENDBRANCH  19  21
ENDBRANCH  17  18
ENDBRANCH   4  17
TORSDOF 10
