REMARK  Name = molecules/DVNYTAVYBRSTGK-UHFFFAOYSA-N.pdb
REMARK                            x       y       z     vdW  Elec       q    Type
REMARK                         _______ _______ _______ _____ _____    ______ ____
ROOT
ATOM      1  C   LIG    1        0.168  -0.294  -0.082  0.00  0.00    +0.164 A 
ATOM      2  C   LIG    1       -0.824   0.634   0.135  0.00  0.00    +0.126 A 
ATOM      3  N   LIG    1       -2.026   0.069  -0.161  0.00  0.00    -0.333 N 
ATOM      4  H   LIG    1       -2.938   0.564  -0.081  0.00  0.00    +0.168 HD
ATOM      5  C   LIG    1       -1.784  -1.195  -0.558  0.00  0.00    +0.198 A 
ATOM      6  N   LIG    1       -0.447  -1.408  -0.507  0.00  0.00    -0.229 NA
ENDROOT
BRANCH   1   9
ATOM      7  N   LIG    1        2.540  -1.153  -0.151  0.00  0.00    -0.324 N 
ATOM      8  H   LIG    1        2.469  -2.115   0.238  0.00  0.00    +0.145 HD
ATOM      9  C   LIG    1        1.619  -0.113   0.109  0.00  0.00    +0.263 C 
ATOM     10  O   LIG    1        2.053   0.989   0.514  0.00  0.00    -0.269 OA
ATOM     11  H   LIG    1        3.349  -0.955  -0.774  0.00  0.00    +0.145 HD
ENDBRANCH   1   9
BRANCH   2  12
ATOM     12  N   LIG    1       -0.602   1.951   0.591  0.00  0.00    -0.343 N 
ATOM     13  H   LIG    1       -0.161   2.090   1.527  0.00  0.00    +0.144 HD
ATOM     14  H   LIG    1       -0.850   2.812   0.053  0.00  0.00    +0.144 HD
ENDBRANCH   2  12
TORSDOF 2
