REMARK  Name = molecules/DWODOIKZDGJOPQ-LJQANCHMSA-N.pdb
REMARK                            x       y       z     vdW  Elec       q    Type
REMARK                         _______ _______ _______ _____ _____    ______ ____
ROOT
ATOM      1  C   LIG    1       -0.848   0.974   0.243  0.00  0.00    +0.108 C 
ENDROOT
BRANCH   1   2
ATOM      2  C   LIG    1       -1.052   2.253  -0.440  0.00  0.00    -0.027 A 
ATOM      3  C   LIG    1       -1.467   3.371   0.256  0.00  0.00    +0.005 A 
ATOM      4  C   LIG    1       -1.670   4.596  -0.357  0.00  0.00    +0.000 A 
ATOM      5  C   LIG    1       -1.440   4.674  -1.717  0.00  0.00    +0.000 A 
ATOM      6  C   LIG    1       -1.026   3.564  -2.416  0.00  0.00    +0.000 A 
ATOM      7  C   LIG    1       -0.826   2.343  -1.799  0.00  0.00    +0.005 A 
ENDBRANCH   1   2
BRANCH   1   8
ATOM      8  N   LIG    1        0.390   0.308  -0.148  0.00  0.00    -0.304 N 
ATOM      9  C   LIG    1        1.386  -0.066   0.745  0.00  0.00    +0.246 C 
ATOM     10  O   LIG    1        1.247   0.168   1.970  0.00  0.00    -0.270 OA
ATOM     11  H   LIG    1        0.475   0.135  -1.162  0.00  0.00    +0.150 HD
BRANCH   9  12
ATOM     12  C   LIG    1        2.597  -0.726   0.315  0.00  0.00    +0.055 A 
ATOM     13  C   LIG    1        3.681  -0.888   1.184  0.00  0.00    +0.123 A 
ATOM     14  N   LIG    1        4.774  -1.497   0.738  0.00  0.00    -0.263 NA
ATOM     15  C   LIG    1        4.874  -1.964  -0.522  0.00  0.00    +0.111 A 
ATOM     16  C   LIG    1        3.847  -1.838  -1.426  0.00  0.00    +0.020 A 
ATOM     17  C   LIG    1        2.688  -1.197  -0.971  0.00  0.00    +0.016 A 
ENDBRANCH   9  12
ENDBRANCH   1   8
BRANCH   1  18
ATOM     18  C   LIG    1       -1.977  -0.003  -0.039  0.00  0.00    +0.062 C 
BRANCH  18  19
ATOM     19  C   LIG    1       -1.841  -1.252   0.710  0.00  0.00    -0.045 A 
ATOM     20  C   LIG    1       -2.394  -1.403   1.958  0.00  0.00    +0.004 A 
ATOM     21  C   LIG    1       -2.266  -2.581   2.665  0.00  0.00    +0.000 A 
ATOM     22  C   LIG    1       -1.555  -3.618   2.068  0.00  0.00    +0.000 A 
ATOM     23  C   LIG    1       -0.991  -3.491   0.817  0.00  0.00    +0.000 A 
ATOM     24  C   LIG    1       -1.129  -2.305   0.126  0.00  0.00    +0.004 A 
ENDBRANCH  18  19
ENDBRANCH   1  18
TORSDOF 5
