REMARK  Name = molecules/DWTTZBARDOXEAM-GXTWGEPZSA-N.pdb
REMARK                            x       y       z     vdW  Elec       q    Type
REMARK                         _______ _______ _______ _____ _____    ______ ____
ROOT
ATOM      1  C   LIG    1        3.325   1.633  -0.883  0.00  0.00    +0.135 A 
ATOM      2  C   LIG    1        4.473   1.103  -0.300  0.00  0.00    +0.091 A 
ATOM      3  C   LIG    1        4.433  -0.093   0.364  0.00  0.00    +0.121 A 
ATOM      4  C   LIG    1        3.219  -0.751   0.434  0.00  0.00    +0.050 A 
ATOM      5  C   LIG    1        2.078  -0.224  -0.145  0.00  0.00    -0.026 A 
ATOM      6  C   LIG    1        0.878  -1.074   0.029  0.00  0.00    +0.036 C 
ATOM      7  C   LIG    1        1.091  -2.484  -0.536  0.00  0.00    +0.005 C 
ATOM      8  C   LIG    1       -0.118  -3.296  -0.099  0.00  0.00    +0.000 C 
ATOM      9  C   LIG    1       -1.405  -2.776  -0.668  0.00  0.00    +0.003 C 
ATOM     10  C   LIG    1       -2.252  -2.185   0.429  0.00  0.00    +0.031 C 
ATOM     11  C   LIG    1       -2.882  -0.871   0.051  0.00  0.00    +0.115 C 
ATOM     12  C   LIG    1       -2.893   0.044   1.268  0.00  0.00    +0.031 C 
ATOM     13  C   LIG    1       -3.269   1.447   0.918  0.00  0.00    +0.006 C 
ATOM     14  C   LIG    1       -2.403   2.134  -0.060  0.00  0.00    +0.044 C 
ATOM     15  C   LIG    1       -0.919   1.979   0.179  0.00  0.00    +0.174 C 
ATOM     16  C   LIG    1       -0.347   3.255   0.775  0.00  0.00    +0.052 C 
ATOM     17  O   LIG    1       -0.331   1.601  -1.026  0.00  0.00    -0.458 OA
ATOM     18  C   LIG    1        0.968   1.613  -1.453  0.00  0.00    +0.343 C 
ATOM     19  O   LIG    1        1.198   2.266  -2.541  0.00  0.00    -0.245 OA
ATOM     20  C   LIG    1        2.106   0.969  -0.810  0.00  0.00    +0.104 A 
ENDROOT
BRANCH   1  21
ATOM     21  O   LIG    1        3.461   2.851  -1.536  0.00  0.00    -0.506 OA
ATOM     22  H   LIG    1        4.360   3.291  -1.562  0.00  0.00    +0.292 HD
ENDBRANCH   1  21
BRANCH   3  23
ATOM     23  O   LIG    1        5.583  -0.648   0.960  0.00  0.00    -0.507 OA
ATOM     24  H   LIG    1        6.127  -1.258   0.359  0.00  0.00    +0.292 HD
ENDBRANCH   3  23
BRANCH  11  25
ATOM     25  O   LIG    1       -4.205  -1.104  -0.290  0.00  0.00    -0.392 OA
ATOM     26  H   LIG    1       -4.302  -1.346  -1.235  0.00  0.00    +0.210 HD
ENDBRANCH  11  25
TORSDOF 3
