REMARK  Name = molecules/DXGLGDHPHMLXJC-UHFFFAOYSA-N.pdb
REMARK                            x       y       z     vdW  Elec       q    Type
REMARK                         _______ _______ _______ _____ _____    ______ ____
ROOT
ATOM      1  C   LIG    1        0.273   0.017  -0.481  0.00  0.00    +0.064 A 
ATOM      2  C   LIG    1        0.393  -0.465   0.806  0.00  0.00    +0.019 A 
ATOM      3  C   LIG    1        1.627  -0.619   1.433  0.00  0.00    +0.046 A 
ATOM      4  C   LIG    1        2.798  -0.289   0.774  0.00  0.00    +0.124 A 
ATOM      5  C   LIG    1        2.645   0.190  -0.514  0.00  0.00    +0.091 A 
ATOM      6  C   LIG    1        1.450   0.354  -1.157  0.00  0.00    +0.131 A 
ENDROOT
BRANCH   1   7
ATOM      7  C   LIG    1       -0.959   0.166  -1.215  0.00  0.00    +0.197 C 
ATOM      8  O   LIG    1       -0.908   0.321  -2.473  0.00  0.00    -0.287 OA
BRANCH   7   9
ATOM      9  C   LIG    1       -2.250   0.143  -0.571  0.00  0.00    +0.022 A 
ATOM     10  C   LIG    1       -2.535   0.579   0.696  0.00  0.00    +0.012 A 
ATOM     11  C   LIG    1       -3.806   0.477   1.270  0.00  0.00    +0.001 A 
ATOM     12  C   LIG    1       -4.815  -0.086   0.525  0.00  0.00    +0.000 A 
ATOM     13  C   LIG    1       -4.571  -0.533  -0.751  0.00  0.00    +0.001 A 
ATOM     14  C   LIG    1       -3.314  -0.425  -1.299  0.00  0.00    +0.012 A 
ENDBRANCH   7   9
ENDBRANCH   1   7
BRANCH   4  15
ATOM     15  O   LIG    1        4.041  -0.437   1.388  0.00  0.00    -0.495 OA
ATOM     16  C   LIG    1        5.186  -0.073   0.643  0.00  0.00    +0.277 C 
ENDBRANCH   4  15
BRANCH   6  17
ATOM     17  O   LIG    1        1.392   0.851  -2.474  0.00  0.00    -0.506 OA
ATOM     18  H   LIG    1        2.186   1.101  -2.997  0.00  0.00    +0.292 HD
ENDBRANCH   6  17
TORSDOF 4
