REMARK  Name = molecules/DXHYQIJBUNRPJT-UHFFFAOYSA-N.pdb
REMARK                            x       y       z     vdW  Elec       q    Type
REMARK                         _______ _______ _______ _____ _____    ______ ____
ROOT
ATOM      1  C   LIG    1       -1.297   2.309  -0.748  0.00  0.00    +0.039 A 
ATOM      2  C   LIG    1       -1.080   1.021  -0.236  0.00  0.00    +0.080 A 
ATOM      3  C   LIG    1       -2.159   0.178  -0.169  0.00  0.00    +0.134 A 
ATOM      4  C   LIG    1       -3.429   0.597  -0.599  0.00  0.00    +0.048 A 
ATOM      5  C   LIG    1       -3.587   1.869  -1.093  0.00  0.00    +0.026 A 
ATOM      6  C   LIG    1       -2.522   2.752  -1.177  0.00  0.00    +0.025 A 
ENDROOT
BRANCH   2   7
ATOM      7  C   LIG    1        0.256   0.638   0.197  0.00  0.00    +0.248 C 
ATOM      8  N   LIG    1        0.649  -0.601   0.730  0.00  0.00    -0.311 N 
ATOM      9  H   LIG    1       -0.009  -1.372   0.871  0.00  0.00    +0.149 HD
ATOM     10  O   LIG    1        1.138   1.571   0.054  0.00  0.00    -0.270 OA
BRANCH   8  11
ATOM     11  C   LIG    1        2.037  -0.838   1.112  0.00  0.00    +0.104 C 
BRANCH  11  12
ATOM     12  C   LIG    1        2.902  -0.720  -0.101  0.00  0.00    +0.018 C 
BRANCH  12  13
ATOM     13  C   LIG    1        4.364  -0.959   0.233  0.00  0.00    -0.002 C 
ATOM     14  C   LIG    1        4.874   0.037   1.246  0.00  0.00    +0.004 C 
ENDBRANCH  12  13
ENDBRANCH  11  12
ENDBRANCH   8  11
ENDBRANCH   2   7
BRANCH   6  15
ATOM     15  N   LIG    1       -2.680   4.070  -1.687  0.00  0.00    -0.358 N 
ATOM     16  H   LIG    1       -3.617   4.490  -1.825  0.00  0.00    +0.142 HD
ATOM     17  H   LIG    1       -1.835   4.621  -1.925  0.00  0.00    +0.142 HD
ENDBRANCH   6  15
BRANCH   3  18
ATOM     18  O   LIG    1       -2.035  -1.105   0.321  0.00  0.00    -0.479 OA
BRANCH  18  19
ATOM     19  C   LIG    1       -3.138  -1.985   0.396  0.00  0.00    +0.317 C 
BRANCH  19  20
ATOM     20  C   LIG    1       -2.624  -3.249   0.964  0.00  0.00    -0.065 C 
ATOM     21  C   LIG    1       -2.192  -4.276   1.425  0.00  0.00    +0.007 C 
ENDBRANCH  19  20
ENDBRANCH  18  19
ENDBRANCH   3  18
TORSDOF 8
