REMARK  Name = molecules/DXPOSRCHIDYWHW-AWEZNQCLSA-N.pdb
REMARK                            x       y       z     vdW  Elec       q    Type
REMARK                         _______ _______ _______ _____ _____    ______ ____
ROOT
ATOM      1  N   LIG    1        0.009   0.579   0.806  0.00  0.00    -0.312 NA
ATOM      2  H   LIG    1        0.015   1.319   1.554  0.00  0.00    +0.122 HD
ENDROOT
BRANCH   1   3
ATOM      3  C   LIG    1       -0.507   1.120  -0.463  0.00  0.00    +0.099 C 
BRANCH   3   4
ATOM      4  C   LIG    1       -1.961   1.265  -0.582  0.00  0.00    +0.121 C 
BRANCH   4   6
ATOM      5  C   LIG    1       -4.007   0.073  -0.104  0.00  0.00    +0.302 C 
ATOM      6  N   LIG    1       -2.701   0.195   0.129  0.00  0.00    -0.298 N 
ATOM      7  H   LIG    1       -2.156  -0.336   0.878  0.00  0.00    +0.150 HD
ATOM      8  N   LIG    1       -5.318  -0.052  -0.335  0.00  0.00    -0.281 N 
ATOM      9  C   LIG    1       -5.975  -1.239   0.278  0.00  0.00    +0.137 C 
ATOM     10  C   LIG    1       -6.915  -0.624   1.303  0.00  0.00    +0.179 C 
ATOM     11  O   LIG    1       -6.930   0.796   1.210  0.00  0.00    -0.377 OA
ATOM     12  C   LIG    1       -7.257   1.237  -0.069  0.00  0.00    +0.179 C 
ATOM     13  C   LIG    1       -6.245   0.778  -1.052  0.00  0.00    +0.137 C 
ATOM     14  O   LIG    1       -3.977   1.433  -1.032  0.00  0.00    -0.253 OA
ENDBRANCH   4   6
ENDBRANCH   3   4
ENDBRANCH   1   3
BRANCH   1  15
ATOM     15  C   LIG    1        1.432   0.357   0.480  0.00  0.00    +0.115 C 
BRANCH  15  16
ATOM     16  C   LIG    1        2.082  -0.551   1.440  0.00  0.00    +0.166 C 
BRANCH  16  17
ATOM     17  O   LIG    1        2.080  -0.178   2.804  0.00  0.00    -0.387 OA
ATOM     18  H   LIG    1        2.203   0.832   2.911  0.00  0.00    +0.210 HD
ENDBRANCH  16  17
BRANCH  16  19
ATOM     19  C   LIG    1        3.519  -0.752   1.083  0.00  0.00    +0.261 C 
BRANCH  19  20
ATOM     20  O   LIG    1        3.842  -0.715  -0.297  0.00  0.00    -0.489 OA
BRANCH  20  21
ATOM     21  C   LIG    1        5.244  -0.593  -0.652  0.00  0.00    +0.121 A 
ATOM     22  C   LIG    1        6.100  -0.317   0.386  0.00  0.00    +0.049 A 
ATOM     23  C   LIG    1        7.525  -0.259   0.057  0.00  0.00    +0.049 A 
ATOM     24  C   LIG    1        7.854  -0.467  -1.119  0.00  0.00    +0.117 A 
ATOM     25  C   LIG    1        7.100  -0.716  -2.292  0.00  0.00    +0.049 A 
ATOM     26  C   LIG    1        5.669  -0.768  -1.965  0.00  0.00    +0.049 A 
BRANCH  24  27
ATOM     27  O   LIG    1        9.322  -0.531  -1.413  0.00  0.00    -0.507 OA
ATOM     28  H   LIG    1        9.881  -0.024  -0.616  0.00  0.00    +0.292 HD
ENDBRANCH  24  27
ENDBRANCH  20  21
ENDBRANCH  19  20
ENDBRANCH  16  19
ENDBRANCH  15  16
ENDBRANCH   1  15
TORSDOF 10
