REMARK  Name = molecules/DXVUYOAEDJXBPY-NFFDBFGFSA-N.pdb
REMARK                            x       y       z     vdW  Elec       q    Type
REMARK                         _______ _______ _______ _____ _____    ______ ____
ROOT
ATOM      1  N   LIG    1       -0.441  -1.183   0.756  0.00  0.00    -0.268 N 
ATOM      2  C   LIG    1       -1.610  -2.028   0.757  0.00  0.00    +0.084 C 
ATOM      3  C   LIG    1       -2.173  -2.154   2.133  0.00  0.00    +0.049 C 
ATOM      4  C   LIG    1       -1.369  -3.373   0.122  0.00  0.00    +0.049 C 
ATOM      5  N   LIG    1       -2.592  -1.306  -0.079  0.00  0.00    -0.282 NA
ATOM      6  CA  LIG    1       -2.425   0.043   0.457  0.00  0.00    +0.173 C 
ATOM      7  H   LIG    1       -2.364  -1.373  -1.077  0.00  0.00    +0.125 HD
ATOM      8  C   LIG    1       -0.928   0.115   0.458  0.00  0.00    +0.239 C 
ATOM      9  O   LIG    1       -0.299   1.165   0.229  0.00  0.00    -0.273 OA
ENDROOT
BRANCH   1  12
ATOM     10  O   LIG    1        1.605  -0.718   3.215  0.00  0.00    -0.273 OA
ATOM     11  C   LIG    1        1.695  -0.840   1.943  0.00  0.00    +0.240 C 
ATOM     12  CA  LIG    1        0.892  -1.589   0.995  0.00  0.00    +0.194 C 
ATOM     13  C   LIG    1        1.953  -1.317   0.003  0.00  0.00    +0.165 C 
ATOM     14  S   LIG    1        1.592  -0.165  -1.358  0.00  0.00    -0.127 S 
ATOM     15  C   LIG    1        2.962   0.990  -1.025  0.00  0.00    +0.042 C 
ATOM     16  CA  LIG    1        3.526   0.422   0.246  0.00  0.00    +0.201 C 
ATOM     17  C   LIG    1        2.508   2.394  -0.810  0.00  0.00    +0.025 C 
ATOM     18  C   LIG    1        3.963   0.995  -2.153  0.00  0.00    +0.025 C 
ATOM     19  N   LIG    1        2.527  -0.364   0.913  0.00  0.00    -0.271 N 
BRANCH  16  20
ATOM     20  C   LIG    1        4.731  -0.385   0.049  0.00  0.00    +0.327 C 
ATOM     21  O   LIG    1        5.773   0.021  -0.528  0.00  0.00    -0.249 OA
BRANCH  20  22
ATOM     22  OXT LIG    1        4.753  -1.686   0.518  0.00  0.00    -0.479 OA
ATOM     23  HXT LIG    1        4.353  -1.982   1.387  0.00  0.00    +0.295 HD
ENDBRANCH  20  22
ENDBRANCH  16  20
ENDBRANCH   1  12
BRANCH   6  24
ATOM     24  C   LIG    1       -3.074   1.053  -0.382  0.00  0.00    -0.022 A 
ATOM     25  C   LIG    1       -2.661   2.353  -0.338  0.00  0.00    +0.005 A 
ATOM     26  C   LIG    1       -3.271   3.356  -1.101  0.00  0.00    +0.000 A 
ATOM     27  C   LIG    1       -4.315   2.988  -1.909  0.00  0.00    +0.000 A 
ATOM     28  C   LIG    1       -4.753   1.673  -1.971  0.00  0.00    +0.000 A 
ATOM     29  C   LIG    1       -4.144   0.715  -1.219  0.00  0.00    +0.005 A 
ENDBRANCH   6  24
TORSDOF 4
