REMARK  Name = molecules/DYAIAHUQIPBDIP-AXAPSJFSSA-N.pdb
REMARK                            x       y       z     vdW  Elec       q    Type
REMARK                         _______ _______ _______ _____ _____    ______ ____
ROOT
ATOM      1  CA  LIG    1       -1.582   0.453  -1.923  0.00  0.00    +0.123 C 
ATOM      2  C   LIG    1       -2.135  -0.678  -1.505  0.00  0.00    -0.021 C 
ATOM      3  C   LIG    1       -1.268  -1.830  -1.013  0.00  0.00    +0.104 C 
ATOM      4  S   LIG    1        0.042  -2.062  -2.225  0.00  0.00    -0.131 S 
ATOM      5  C   LIG    1        0.626  -0.431  -2.688  0.00  0.00    +0.169 C 
ATOM      6  CA  LIG    1        1.828   0.102  -1.943  0.00  0.00    +0.191 C 
ATOM      7  C   LIG    1        1.014   1.286  -1.614  0.00  0.00    +0.244 C 
ATOM      8  O   LIG    1        1.290   2.441  -1.187  0.00  0.00    -0.273 OA
ATOM      9  N   LIG    1       -0.145   0.560  -1.982  0.00  0.00    -0.249 N 
ENDROOT
BRANCH   6  10
ATOM     10  N   LIG    1        2.318  -0.660  -0.844  0.00  0.00    -0.299 N 
ATOM     11  H   LIG    1        1.684  -0.968  -0.086  0.00  0.00    +0.150 HD
ATOM     12  C   LIG    1        3.685  -1.014  -0.773  0.00  0.00    +0.247 C 
ATOM     13  O   LIG    1        4.462  -0.635  -1.703  0.00  0.00    -0.273 OA
BRANCH  12  14
ATOM     14  C   LIG    1        4.250  -1.796   0.324  0.00  0.00    +0.230 C 
BRANCH  14  15
ATOM     15  C   LIG    1        5.356  -1.061   1.017  0.00  0.00    -0.010 A 
ATOM     16  C   LIG    1        4.983  -0.171   2.010  0.00  0.00    +0.006 A 
ATOM     17  C   LIG    1        5.913   0.569   2.715  0.00  0.00    +0.000 A 
ATOM     18  C   LIG    1        7.236   0.402   2.406  0.00  0.00    +0.000 A 
ATOM     19  C   LIG    1        7.595  -0.488   1.414  0.00  0.00    +0.000 A 
ATOM     20  C   LIG    1        6.680  -1.233   0.703  0.00  0.00    +0.006 A 
ENDBRANCH  14  15
BRANCH  14  21
ATOM     21  O   LIG    1        3.336  -2.185   1.296  0.00  0.00    -0.378 OA
ATOM     22  H   LIG    1        2.716  -1.496   1.585  0.00  0.00    +0.211 HD
ENDBRANCH  14  21
ENDBRANCH  12  14
ENDBRANCH   6  10
BRANCH   1  23
ATOM     23  C   LIG    1       -2.328   1.630  -2.354  0.00  0.00    +0.351 C 
ATOM     24  OXT LIG    1       -3.569   1.733  -2.392  0.00  0.00    -0.244 OA
BRANCH  23  25
ATOM     25  O   LIG    1       -1.681   2.816  -2.786  0.00  0.00    -0.476 OA
ATOM     26  H   LIG    1       -1.535   3.566  -2.092  0.00  0.00    +0.295 HD
ENDBRANCH  23  25
ENDBRANCH   1  23
BRANCH   2  27
ATOM     27  C   LIG    1       -3.592  -0.862  -1.445  0.00  0.00    +0.111 C 
BRANCH  27  28
ATOM     28  S   LIG    1       -4.136  -1.155   0.270  0.00  0.00    -0.080 S 
BRANCH  28  29
ATOM     29  C   LIG    1       -3.841   0.311   1.225  0.00  0.00    +0.211 A 
ATOM     30  N   LIG    1       -2.712   0.573   1.914  0.00  0.00    -0.101 NA
ATOM     31  N   LIG    1       -2.881   1.748   2.486  0.00  0.00    -0.022 NA
ATOM     32  N   LIG    1       -4.076   2.207   2.167  0.00  0.00    -0.042 NA
ATOM     33  N   LIG    1       -4.705   1.327   1.374  0.00  0.00    -0.196 N 
BRANCH  33  34
ATOM     34  C   LIG    1       -6.042   1.503   0.825  0.00  0.00    +0.345 C 
BRANCH  34  35
ATOM     35  S   LIG    1       -7.191   0.807   1.990  0.00  0.00    +0.100 S 
ATOM     36  O   LIG    1       -6.912   1.511   3.309  0.00  0.00    -0.146 OA
ATOM     37  O   LIG    1       -8.611   1.039   1.606  0.00  0.00    -0.146 OA
BRANCH  35  38
ATOM     38  O   LIG    1       -6.836  -0.816   2.189  0.00  0.00    -0.252 OA
ATOM     39  H   LIG    1       -7.281  -1.316   1.458  0.00  0.00    +0.245 HD
ENDBRANCH  35  38
ENDBRANCH  34  35
ENDBRANCH  33  34
ENDBRANCH  28  29
ENDBRANCH  27  28
ENDBRANCH   2  27
TORSDOF 12
