REMARK  Name = molecules/DYDCUQKUCUHJBH-UWTATZPHSA-N.pdb
REMARK                            x       y       z     vdW  Elec       q    Type
REMARK                         _______ _______ _______ _____ _____    ______ ____
ROOT
ATOM      1  C   LIG    1       -0.536  -0.127   0.540  0.00  0.00    +0.168 C 
ATOM      2  C   LIG    1        0.733  -0.890   0.518  0.00  0.00    +0.255 C 
ATOM      3  O   LIG    1        1.010  -1.921   1.159  0.00  0.00    -0.272 OA
ATOM      4  N   LIG    1        1.575  -0.198  -0.390  0.00  0.00    -0.193 N 
ATOM      5  H   LIG    1        2.552  -0.437  -0.636  0.00  0.00    +0.182 HD
ATOM      6  O   LIG    1        0.890   0.865  -0.912  0.00  0.00    -0.278 OA
ATOM      7  C   LIG    1       -0.054   1.234   0.019  0.00  0.00    +0.218 C 
ENDROOT
BRANCH   1   8
ATOM      8  N   LIG    1       -1.433  -0.742  -0.404  0.00  0.00    -0.318 NA
ATOM      9  H   LIG    1       -2.283  -0.177  -0.595  0.00  0.00    +0.119 HD
ATOM     10  H   LIG    1       -0.956  -1.084  -1.262  0.00  0.00    +0.119 HD
ENDBRANCH   1   8
TORSDOF 1
