REMARK  Name = molecules/DYKFCLLONBREIL-KVUCHLLUSA-N.pdb
REMARK                            x       y       z     vdW  Elec       q    Type
REMARK                         _______ _______ _______ _____ _____    ______ ____
ROOT
ATOM      1  C   LIG    1       -2.557   0.014   0.468  0.00  0.00    +0.129 C 
ATOM      2  C   LIG    1       -3.943  -0.038  -0.029  0.00  0.00    +0.127 C 
ATOM      3  C   LIG    1       -4.136   0.318  -1.296  0.00  0.00    +0.121 C 
ATOM      4  C   LIG    1       -2.938   0.716  -2.030  0.00  0.00    +0.211 C 
ATOM      5  C   LIG    1       -1.605   0.153  -1.754  0.00  0.00    +0.190 C 
ATOM      6  C   LIG    1       -0.675   1.288  -1.528  0.00  0.00    +0.141 C 
ATOM      7  C   LIG    1        0.537   0.991  -1.071  0.00  0.00    +0.044 C 
ATOM      8  C   LIG    1        0.849  -0.422  -0.830  0.00  0.00    +0.031 C 
ATOM      9  C   LIG    1       -0.280  -0.918   0.100  0.00  0.00    +0.018 C 
ATOM     10  C   LIG    1        2.175  -0.697  -0.262  0.00  0.00    +0.046 C 
ATOM     11  C   LIG    1        3.138   0.381  -0.092  0.00  0.00    -0.011 A 
ATOM     12  C   LIG    1        4.411   0.007   0.361  0.00  0.00    +0.033 A 
ATOM     13  C   LIG    1        5.338   0.994   0.554  0.00  0.00    +0.027 A 
ATOM     14  C   LIG    1        5.087   2.316   0.328  0.00  0.00    +0.048 A 
ATOM     15  C   LIG    1        3.804   2.681  -0.129  0.00  0.00    +0.128 A 
ATOM     16  C   LIG    1        2.825   1.706  -0.340  0.00  0.00    +0.068 A 
ATOM     17  C   LIG    1        1.508   2.042  -0.837  0.00  0.00    +0.197 C 
ATOM     18  O   LIG    1        1.194   3.241  -1.070  0.00  0.00    -0.287 OA
ATOM     19  O   LIG    1       -3.042   1.578  -2.939  0.00  0.00    -0.288 OA
ATOM     20  C   LIG    1       -1.621  -0.708  -0.493  0.00  0.00    +0.061 C 
ENDROOT
BRANCH   3  21
ATOM     21  C   LIG    1       -5.443   0.318  -1.920  0.00  0.00    +0.248 C 
ATOM     22  N   LIG    1       -6.573  -0.074  -1.172  0.00  0.00    -0.325 N 
ATOM     23  H   LIG    1       -7.135   0.649  -0.677  0.00  0.00    +0.145 HD
ATOM     24  H   LIG    1       -6.795  -1.099  -1.151  0.00  0.00    +0.145 HD
ATOM     25  O   LIG    1       -5.581   0.660  -3.110  0.00  0.00    -0.270 OA
ENDBRANCH   3  21
BRANCH   1  27
ATOM     26  C   LIG    1       -2.679  -1.774   2.087  0.00  0.00    +0.105 C 
ATOM     27  N   LIG    1       -2.390  -0.398   1.824  0.00  0.00    -0.299 NA
ATOM     28  C   LIG    1       -3.218   0.427   2.671  0.00  0.00    +0.105 C 
ENDBRANCH   1  27
BRANCH  12  29
ATOM     29  N   LIG    1        4.692  -1.346   0.599  0.00  0.00    -0.336 N 
ATOM     30  C   LIG    1        4.103  -2.217   1.563  0.00  0.00    +0.129 C 
ATOM     31  C   LIG    1        5.734  -1.938  -0.258  0.00  0.00    +0.129 C 
ENDBRANCH  12  29
BRANCH   2  32
ATOM     32  O   LIG    1       -5.043  -0.423   0.706  0.00  0.00    -0.509 OA
ATOM     33  H   LIG    1       -5.690   0.164   1.174  0.00  0.00    +0.292 HD
ENDBRANCH   2  32
BRANCH  15  34
ATOM     34  O   LIG    1        3.561   3.992  -0.350  0.00  0.00    -0.506 OA
ATOM     35  H   LIG    1        2.787   4.457  -0.651  0.00  0.00    +0.292 HD
ENDBRANCH  15  34
BRANCH   6  36
ATOM     36  O   LIG    1       -0.983   2.601  -1.757  0.00  0.00    -0.507 OA
ATOM     37  H   LIG    1       -1.284   3.234  -1.006  0.00  0.00    +0.292 HD
ENDBRANCH   6  36
BRANCH   5  38
ATOM     38  O   LIG    1       -1.242  -0.603  -2.879  0.00  0.00    -0.373 OA
ATOM     39  H   LIG    1       -1.540  -1.522  -2.696  0.00  0.00    +0.211 HD
ENDBRANCH   5  38
TORSDOF 7
