REMARK  Name = molecules/DYLUUSLLRIQKOE-UHFFFAOYSA-N.pdb
REMARK                            x       y       z     vdW  Elec       q    Type
REMARK                         _______ _______ _______ _____ _____    ______ ____
ROOT
ATOM      1  C   LIG    1        1.424   0.310  -0.608  0.00  0.00    +0.224 A 
ATOM      2  N   LIG    1        0.709  -0.767  -0.259  0.00  0.00    -0.181 NA
ATOM      3  C   LIG    1       -0.545  -0.667   0.215  0.00  0.00    +0.220 A 
ATOM      4  N   LIG    1       -1.093   0.571   0.337  0.00  0.00    -0.193 NA
ATOM      5  C   LIG    1       -0.420   1.679  -0.001  0.00  0.00    +0.185 A 
ATOM      6  N   LIG    1        0.826   1.536  -0.469  0.00  0.00    -0.193 NA
ENDROOT
BRANCH   5   7
ATOM      7  C   LIG    1       -0.954   3.023   0.118  0.00  0.00    +0.109 A 
ATOM      8  C   LIG    1       -2.263   3.198   0.605  0.00  0.00    +0.031 A 
ATOM      9  C   LIG    1       -2.819   4.461   0.737  0.00  0.00    +0.004 A 
ATOM     10  C   LIG    1       -2.074   5.560   0.387  0.00  0.00    +0.032 A 
ATOM     11  C   LIG    1       -0.770   5.385  -0.097  0.00  0.00    +0.144 A 
ATOM     12  N   LIG    1       -0.307   4.145  -0.198  0.00  0.00    -0.240 NA
BRANCH  11  13
ATOM     13  C   LIG    1       -0.007   6.596  -0.442  0.00  0.00    +0.434 C 
ATOM     14  F   LIG    1        0.778   6.998   0.638  0.00  0.00    -0.164 F 
ATOM     15  F   LIG    1       -0.891   7.648  -0.690  0.00  0.00    -0.164 F 
ATOM     16  F   LIG    1        0.774   6.452  -1.547  0.00  0.00    -0.164 F 
ENDBRANCH  11  13
ENDBRANCH   5   7
BRANCH   1  17
ATOM     17  N   LIG    1        2.753   0.196  -1.028  0.00  0.00    -0.283 N 
ATOM     18  H   LIG    1        3.272   1.088  -1.310  0.00  0.00    +0.155 HD
BRANCH  17  21
ATOM     19  C   LIG    1        5.680  -2.124  -1.012  0.00  0.00    +0.145 A 
ATOM     20  C   LIG    1        4.887  -0.980  -0.988  0.00  0.00    +0.055 A 
ATOM     21  C   LIG    1        3.489  -1.026  -1.120  0.00  0.00    +0.037 A 
ATOM     22  C   LIG    1        2.929  -2.264  -1.276  0.00  0.00    +0.043 A 
ATOM     23  C   LIG    1        3.751  -3.399  -1.297  0.00  0.00    +0.113 A 
ATOM     24  N   LIG    1        5.087  -3.318  -1.169  0.00  0.00    -0.251 NA
BRANCH  19  25
ATOM     25  C   LIG    1        7.167  -2.040  -0.852  0.00  0.00    +0.434 C 
ATOM     26  F   LIG    1        7.590  -2.592   0.349  0.00  0.00    -0.164 F 
ATOM     27  F   LIG    1        7.560  -0.695  -0.935  0.00  0.00    -0.164 F 
ATOM     28  F   LIG    1        7.717  -2.686  -1.936  0.00  0.00    -0.164 F 
ENDBRANCH  19  25
ENDBRANCH  17  21
ENDBRANCH   1  17
BRANCH   3  29
ATOM     29  N   LIG    1       -1.309  -1.827   0.528  0.00  0.00    -0.311 N 
ATOM     30  H   LIG    1       -0.893  -2.754   0.341  0.00  0.00    +0.149 HD
BRANCH  29  31
ATOM     31  C   LIG    1       -2.630  -1.750   1.105  0.00  0.00    +0.138 C 
BRANCH  31  32
ATOM     32  C   LIG    1       -3.530  -2.913   0.800  0.00  0.00    +0.076 C 
ATOM     33  C   LIG    1       -4.832  -2.667   1.580  0.00  0.00    +0.042 C 
ATOM     34  C   LIG    1       -3.918  -2.965  -0.657  0.00  0.00    +0.042 C 
BRANCH  32  35
ATOM     35  O   LIG    1       -3.049  -4.138   1.202  0.00  0.00    -0.388 OA
ATOM     36  H   LIG    1       -2.455  -4.574   0.567  0.00  0.00    +0.210 HD
ENDBRANCH  32  35
ENDBRANCH  31  32
ENDBRANCH  29  31
ENDBRANCH   3  29
TORSDOF 9
