REMARK  Name = molecules/DYUQAZSOFZSPHD-VIFPVBQESA-N.pdb
REMARK                            x       y       z     vdW  Elec       q    Type
REMARK                         _______ _______ _______ _____ _____    ______ ____
ROOT
ATOM      1  C   LIG    1        0.492  -0.168  -0.100  0.00  0.00    -0.019 A 
ATOM      2  C   LIG    1        1.023   1.056   0.160  0.00  0.00    +0.006 A 
ATOM      3  C   LIG    1        2.379   1.271   0.252  0.00  0.00    +0.000 A 
ATOM      4  C   LIG    1        3.272   0.232   0.079  0.00  0.00    +0.000 A 
ATOM      5  C   LIG    1        2.728  -1.024  -0.188  0.00  0.00    +0.000 A 
ATOM      6  C   LIG    1        1.367  -1.231  -0.278  0.00  0.00    +0.006 A 
ENDROOT
BRANCH   1   7
ATOM      7  C   LIG    1       -0.949  -0.460  -0.210  0.00  0.00    +0.144 C 
BRANCH   7   9
ATOM      8  C   LIG    1       -3.265   0.266   0.041  0.00  0.00    +0.007 C 
ATOM      9  C   LIG    1       -1.820   0.666   0.255  0.00  0.00    +0.033 C 
ENDBRANCH   7   9
BRANCH   7  10
ATOM     10  O   LIG    1       -1.215  -1.625   0.504  0.00  0.00    -0.387 OA
ATOM     11  H   LIG    1       -0.495  -1.820   1.171  0.00  0.00    +0.210 HD
ENDBRANCH   7  10
ENDBRANCH   1   7
TORSDOF 3
