REMARK  Name = molecules/DZGWFCGJZKJUFP-UHFFFAOYSA-N.pdb
REMARK                            x       y       z     vdW  Elec       q    Type
REMARK                         _______ _______ _______ _____ _____    ______ ____
ROOT
ATOM      1  C   LIG    1        0.026  -0.307  -0.410  0.00  0.00    -0.046 A 
ATOM      2  C   LIG    1        0.926  -1.006   0.368  0.00  0.00    +0.007 A 
ATOM      3  C   LIG    1        2.278  -0.671   0.360  0.00  0.00    +0.045 A 
ATOM      4  C   LIG    1        2.766   0.355  -0.412  0.00  0.00    +0.117 A 
ATOM      5  C   LIG    1        1.870   1.056  -1.191  0.00  0.00    +0.045 A 
ATOM      6  C   LIG    1        0.540   0.724  -1.182  0.00  0.00    +0.007 A 
ENDROOT
BRANCH   4   7
ATOM      7  O   LIG    1        4.127   0.647  -0.381  0.00  0.00    -0.507 OA
ATOM      8  H   LIG    1        4.542   1.388  -0.925  0.00  0.00    +0.292 HD
ENDBRANCH   4   7
BRANCH   1   9
ATOM      9  C   LIG    1       -1.416  -0.665  -0.402  0.00  0.00    +0.050 C 
BRANCH   9  10
ATOM     10  C   LIG    1       -2.182   0.096   0.657  0.00  0.00    +0.082 C 
BRANCH  10  11
ATOM     11  N   LIG    1       -3.576  -0.355   0.546  0.00  0.00    -0.330 NA
ATOM     12  H   LIG    1       -4.027  -0.295   1.481  0.00  0.00    +0.118 HD
ATOM     13  H   LIG    1       -4.057   0.272  -0.130  0.00  0.00    +0.118 HD
ENDBRANCH  10  11
ENDBRANCH   9  10
ENDBRANCH   1   9
TORSDOF 4
