REMARK  Name = molecules/FABPRXSRWADJSP-MEDUHNTESA-N.pdb
REMARK                            x       y       z     vdW  Elec       q    Type
REMARK                         _______ _______ _______ _____ _____    ______ ____
ROOT
ATOM      1  C   LIG    1        0.841   0.269   0.179  0.00  0.00    +0.168 A 
ATOM      2  C   LIG    1       -0.277   1.065  -0.096  0.00  0.00    +0.110 A 
ATOM      3  C   LIG    1       -0.087   2.304  -0.644  0.00  0.00    +0.149 A 
ATOM      4  F   LIG    1       -1.146   3.096  -0.921  0.00  0.00    -0.203 F 
ATOM      5  C   LIG    1        1.161   2.792  -0.936  0.00  0.00    +0.054 A 
ATOM      6  C   LIG    1        2.274   2.015  -0.668  0.00  0.00    +0.052 A 
ATOM      7  C   LIG    1        3.535   2.512  -0.945  0.00  0.00    +0.204 A 
ATOM      8  C   LIG    1        4.639   1.766  -0.669  0.00  0.00    +0.122 A 
ATOM      9  C   LIG    1        4.441   0.524  -0.114  0.00  0.00    +0.105 A 
ATOM     10  N   LIG    1        3.214   0.019   0.165  0.00  0.00    -0.340 N 
ATOM     11  O   LIG    1        3.624   3.662  -1.454  0.00  0.00    -0.286 OA
ATOM     12  C   LIG    1        2.097   0.747  -0.106  0.00  0.00    +0.097 A 
ENDROOT
BRANCH   2  13
ATOM     13  N   LIG    1       -1.563   0.578   0.183  0.00  0.00    -0.323 N 
ATOM     14  C   LIG    1       -2.244   0.699   1.468  0.00  0.00    +0.124 C 
ATOM     15  C   LIG    1       -3.521  -0.068   1.391  0.00  0.00    +0.075 C 
ATOM     16  N   LIG    1       -4.689   0.803   1.312  0.00  0.00    -0.311 NA
ATOM     17  C   LIG    1       -5.866  -0.026   1.506  0.00  0.00    +0.081 C 
ATOM     18  C   LIG    1       -5.886  -1.140   0.479  0.00  0.00    +0.015 C 
ATOM     19  C   LIG    1       -4.771  -0.948  -0.545  0.00  0.00    +0.008 C 
ATOM     20  H   LIG    1       -4.787   1.257   0.381  0.00  0.00    +0.122 HD
ATOM     21  C   LIG    1       -3.414  -0.884   0.131  0.00  0.00    +0.025 C 
ATOM     22  C   LIG    1       -2.426  -0.123  -0.739  0.00  0.00    +0.110 C 
ENDBRANCH   2  13
BRANCH  10  23
ATOM     23  C   LIG    1        3.100  -1.263   0.786  0.00  0.00    +0.088 C 
ATOM     24  C   LIG    1        4.425  -1.928   1.199  0.00  0.00    +0.027 C 
ATOM     25  C   LIG    1        3.516  -2.529   0.189  0.00  0.00    +0.027 C 
ENDBRANCH  10  23
BRANCH   1  26
ATOM     26  O   LIG    1        0.612  -0.984   0.728  0.00  0.00    -0.491 OA
ATOM     27  C   LIG    1        0.335  -2.119  -0.058  0.00  0.00    +0.277 C 
ENDBRANCH   1  26
BRANCH   8  28
ATOM     28  C   LIG    1        5.981   2.280  -0.959  0.00  0.00    +0.342 C 
ATOM     29  O   LIG    1        6.157   3.414  -1.465  0.00  0.00    -0.245 OA
BRANCH  28  30
ATOM     30  O   LIG    1        7.056   1.470  -0.654  0.00  0.00    -0.477 OA
ATOM     31  H   LIG    1        7.941   1.544  -1.145  0.00  0.00    +0.295 HD
ENDBRANCH  28  30
ENDBRANCH   8  28
TORSDOF 5
