REMARK  Name = molecules/FABUFPQFXZVHFB-PVYNADRNSA-N.pdb
REMARK                            x       y       z     vdW  Elec       q    Type
REMARK                         _______ _______ _______ _____ _____    ______ ____
ROOT
ATOM      1  C   LIG    1        1.760   0.449   0.309  0.00  0.00    +0.102 C 
ATOM      2  C   LIG    1        1.031  -0.870   0.598  0.00  0.00    +0.061 C 
ATOM      3  C   LIG    1        1.637  -2.037  -0.084  0.00  0.00    +0.153 C 
ATOM      4  C   LIG    1        1.081  -3.304  -0.078  0.00  0.00    +0.093 C 
ATOM      5  C   LIG    1       -0.064  -3.754   0.699  0.00  0.00    +0.037 C 
ATOM      6  C   LIG    1       -1.298  -2.995   0.848  0.00  0.00    +0.003 C 
ATOM      7  C   LIG    1       -2.046  -2.606  -0.373  0.00  0.00    +0.006 C 
ATOM      8  C   LIG    1       -3.337  -1.877   0.042  0.00  0.00    +0.015 C 
ATOM      9  C   LIG    1       -2.974  -0.447   0.222  0.00  0.00    +0.127 C 
ATOM     10  C   LIG    1       -4.086   0.549   0.059  0.00  0.00    +0.081 C 
ATOM     11  C   LIG    1       -3.700   1.845   0.732  0.00  0.00    +0.147 C 
ATOM     12  O   LIG    1       -3.915   1.855   1.953  0.00  0.00    -0.296 OA
ATOM     13  C   LIG    1       -3.124   2.998   0.037  0.00  0.00    +0.050 C 
ATOM     14  C   LIG    1       -2.710   4.021   1.101  0.00  0.00    +0.021 C 
ATOM     15  C   LIG    1       -1.913   2.735  -0.789  0.00  0.00    +0.136 C 
ATOM     16  C   LIG    1       -0.634   2.581   0.032  0.00  0.00    +0.128 C 
ATOM     17  C   LIG    1        0.435   2.231  -0.933  0.00  0.00    +0.216 C 
ATOM     18  O   LIG    1        0.673   3.063  -1.856  0.00  0.00    -0.276 OA
ATOM     19  C   LIG    1       -4.126   3.713  -0.848  0.00  0.00    +0.021 C 
ATOM     20  C   LIG    1       -5.425   0.092   0.532  0.00  0.00    +0.018 C 
ATOM     21  C   LIG    1       -4.303  -2.015  -1.093  0.00  0.00    +0.010 C 
ATOM     22  C   LIG    1        2.096  -4.472  -0.261  0.00  0.00    +0.044 C 
ATOM     23  O   LIG    1        0.990  -2.562  -1.234  0.00  0.00    -0.365 OA
ATOM     24  N   LIG    1        1.207   1.043  -0.902  0.00  0.00    -0.309 N 
ATOM     25  H   LIG    1        1.420   0.512  -1.802  0.00  0.00    +0.149 HD
ENDROOT
BRANCH   1  26
ATOM     26  C   LIG    1        3.220   0.255   0.205  0.00  0.00    -0.050 C 
ATOM     27  C   LIG    1        3.943  -0.350   1.339  0.00  0.00    +0.041 C 
ATOM     28  C   LIG    1        3.862   0.633  -0.885  0.00  0.00    +0.029 C 
BRANCH  28  29
ATOM     29  C   LIG    1        5.334   0.457  -1.034  0.00  0.00    +0.071 A 
ATOM     30  N   LIG    1        6.147   0.627  -0.040  0.00  0.00    -0.245 NA
ATOM     31  C   LIG    1        7.448   0.459  -0.214  0.00  0.00    +0.076 A 
ATOM     32  C   LIG    1        8.552   0.609   0.802  0.00  0.00    +0.073 C 
ATOM     33  S   LIG    1        7.546   0.037  -1.864  0.00  0.00    -0.080 S 
ATOM     34  C   LIG    1        5.876   0.103  -2.244  0.00  0.00    +0.074 A 
ENDBRANCH  28  29
ENDBRANCH   1  26
BRANCH   9  35
ATOM     35  O   LIG    1       -2.407  -0.194   1.485  0.00  0.00    -0.391 OA
ATOM     36  H   LIG    1       -3.051  -0.469   2.163  0.00  0.00    +0.210 HD
ENDBRANCH   9  35
BRANCH  15  37
ATOM     37  O   LIG    1       -1.694   3.912  -1.552  0.00  0.00    -0.390 OA
ATOM     38  H   LIG    1       -1.062   4.519  -1.096  0.00  0.00    +0.210 HD
ENDBRANCH  15  37
TORSDOF 4
