REMARK  Name = molecules/FAIIFDPAEUKBEP-INIZCTEOSA-N.pdb
REMARK                            x       y       z     vdW  Elec       q    Type
REMARK                         _______ _______ _______ _____ _____    ______ ____
ROOT
ATOM      1  C   LIG    1       -1.676   1.591  -1.011  0.00  0.00    +0.080 C 
ATOM      2  C   LIG    1       -0.749   0.889  -0.120  0.00  0.00    +0.097 C 
ATOM      3  C   LIG    1        0.650   0.822  -0.607  0.00  0.00    +0.065 C 
ATOM      4  C   LIG    1        1.063   1.343  -1.750  0.00  0.00    +0.016 C 
ATOM      5  C   LIG    1        2.495   1.256  -2.215  0.00  0.00    +0.061 C 
ATOM      6  N   LIG    1        0.087   2.009  -2.554  0.00  0.00    -0.309 N 
ATOM      7  H   LIG    1        0.426   2.426  -3.471  0.00  0.00    +0.153 HD
ATOM      8  C   LIG    1       -1.270   2.115  -2.156  0.00  0.00    +0.120 C 
ENDROOT
BRANCH   2   9
ATOM      9  C   LIG    1       -1.250  -0.461   0.276  0.00  0.00    -0.033 A 
ATOM     10  C   LIG    1       -1.560  -0.784   1.582  0.00  0.00    +0.037 A 
ATOM     11  C   LIG    1       -2.023  -2.031   1.958  0.00  0.00    +0.126 A 
ATOM     12  C   LIG    1       -2.187  -2.994   1.008  0.00  0.00    +0.033 A 
ATOM     13  C   LIG    1       -1.890  -2.716  -0.307  0.00  0.00    +0.003 A 
ATOM     14  C   LIG    1       -1.430  -1.470  -0.660  0.00  0.00    +0.005 A 
BRANCH  11  15
ATOM     15  N   LIG    1       -2.337  -2.342   3.310  0.00  0.00    +0.056 N 
ATOM     16  O   LIG    1       -2.207  -1.497   4.232  0.00  0.00    -0.126 OA
ATOM     17  O   LIG    1       -2.795  -3.586   3.662  0.00  0.00    -0.126 OA
ENDBRANCH  11  15
ENDBRANCH   2   9
BRANCH   1  18
ATOM     18  C   LIG    1       -3.095   1.716  -0.622  0.00  0.00    +0.338 C 
ATOM     19  O   LIG    1       -3.854   2.322  -1.410  0.00  0.00    -0.245 OA
BRANCH  18  20
ATOM     20  O   LIG    1       -3.597   1.201   0.547  0.00  0.00    -0.465 OA
ATOM     21  C   LIG    1       -4.952   1.308   0.941  0.00  0.00    +0.280 C 
ENDBRANCH  18  20
ENDBRANCH   1  18
BRANCH   3  22
ATOM     22  C   LIG    1        1.628   0.133   0.237  0.00  0.00    +0.338 C 
ATOM     23  O   LIG    1        1.260  -0.377   1.340  0.00  0.00    -0.245 OA
BRANCH  22  24
ATOM     24  O   LIG    1        2.957  -0.012  -0.077  0.00  0.00    -0.459 OA
BRANCH  24  25
ATOM     25  C   LIG    1        3.892  -0.678   0.744  0.00  0.00    +0.171 C 
ATOM     26  C   LIG    1        4.976   0.318   1.162  0.00  0.00    +0.052 C 
ATOM     27  C   LIG    1        4.578  -1.809   0.042  0.00  0.00    +0.052 C 
ENDBRANCH  24  25
ENDBRANCH  22  24
ENDBRANCH   3  22
BRANCH   8  28
ATOM     28  C   LIG    1       -2.226   2.806  -3.014  0.00  0.00    +0.115 C 
ATOM     29  N   LIG    1       -2.970   3.357  -3.708  0.00  0.00    -0.190 NA
ENDBRANCH   8  28
TORSDOF 8
