REMARK  Name = molecules/FBOUYBDGKBSUES-VXKWHMMOSA-N.pdb
REMARK                            x       y       z     vdW  Elec       q    Type
REMARK                         _______ _______ _______ _____ _____    ______ ____
ROOT
ATOM      1  C   LIG    1        0.273  -0.144  -0.739  0.00  0.00    +0.404 C 
ATOM      2  N   LIG    1       -0.841   0.746  -0.648  0.00  0.00    -0.256 N 
ATOM      3  C   LIG    1       -0.617   2.120  -0.329  0.00  0.00    +0.117 C 
ATOM      4  C   LIG    1       -1.571   2.637   0.727  0.00  0.00    +0.054 C 
ATOM      5  C   LIG    1       -2.953   2.338   0.213  0.00  0.00    -0.041 A 
ATOM      6  C   LIG    1       -3.929   3.270   0.546  0.00  0.00    +0.004 A 
ATOM      7  C   LIG    1       -5.198   3.021   0.090  0.00  0.00    +0.000 A 
ATOM      8  C   LIG    1       -5.487   1.893  -0.665  0.00  0.00    +0.000 A 
ATOM      9  C   LIG    1       -4.503   0.989  -0.979  0.00  0.00    +0.006 A 
ATOM     10  C   LIG    1       -3.217   1.228  -0.525  0.00  0.00    -0.019 A 
ATOM     11  C   LIG    1       -2.160   0.210  -0.887  0.00  0.00    +0.140 C 
ATOM     12  O   LIG    1        0.137  -1.363  -1.016  0.00  0.00    -0.226 OA
ENDROOT
BRANCH  11  13
ATOM     13  C   LIG    1       -2.445  -0.985  -0.082  0.00  0.00    -0.023 A 
ATOM     14  C   LIG    1       -2.145  -1.084   1.263  0.00  0.00    +0.006 A 
ATOM     15  C   LIG    1       -2.411  -2.203   2.022  0.00  0.00    +0.000 A 
ATOM     16  C   LIG    1       -3.007  -3.296   1.428  0.00  0.00    +0.000 A 
ATOM     17  C   LIG    1       -3.317  -3.212   0.066  0.00  0.00    +0.000 A 
ATOM     18  C   LIG    1       -3.038  -2.077  -0.666  0.00  0.00    +0.006 A 
ENDBRANCH  11  13
BRANCH   1  19
ATOM     19  O   LIG    1        1.580   0.299  -0.521  0.00  0.00    -0.445 OA
BRANCH  19  20
ATOM     20  C   LIG    1        2.695  -0.548  -0.603  0.00  0.00    +0.195 C 
ATOM     21  C   LIG    1        3.330  -0.624   0.779  0.00  0.00    +0.034 C 
ATOM     22  C   LIG    1        4.298   0.525   0.992  0.00  0.00    +0.022 C 
ATOM     23  C   LIG    1        5.391   0.519  -0.065  0.00  0.00    +0.085 C 
ATOM     24  N   LIG    1        5.039  -0.485  -1.057  0.00  0.00    -0.299 NA
ATOM     25  C   LIG    1        5.030  -1.818  -0.493  0.00  0.00    +0.085 C 
ATOM     26  C   LIG    1        4.187  -1.896   0.763  0.00  0.00    +0.022 C 
ATOM     27  C   LIG    1        3.731  -0.107  -1.585  0.00  0.00    +0.129 C 
ENDBRANCH  19  20
ENDBRANCH   1  19
TORSDOF 3
