REMARK  Name = molecules/FBOZXECLQNJBKD-ZDUSSCGKSA-N.pdb
REMARK                            x       y       z     vdW  Elec       q    Type
REMARK                         _______ _______ _______ _____ _____    ______ ____
ROOT
ATOM      1  C   UNK A  0       -0.684   1.956   0.517  0.00  0.00    +0.030 A 
ATOM      2  C   UNK A  0        0.350   2.081   1.430  0.00  0.00    +0.024 A 
ATOM      3  C   UNK A  0        1.631   1.625   1.132  0.00  0.00    +0.015 A 
ATOM      4  C   UNK A  0        1.954   1.027  -0.068  0.00  0.00    +0.037 A 
ATOM      5  C   UNK A  0        0.930   0.902  -0.975  0.00  0.00    +0.015 A 
ATOM      6  C   UNK A  0       -0.364   1.361  -0.679  0.00  0.00    +0.024 A 
ENDROOT
BRANCH   4   7
ATOM      7  C   UNK A  0        3.304   0.562  -0.358  0.00  0.00    +0.245 C 
ATOM      8  O   UNK A  0        4.202   0.623   0.517  0.00  0.00    -0.270 OA
ATOM      9  N   GLU A  1        3.639   0.032  -1.623  0.00  0.00    -0.298 N 
ATOM     10  H   GLU A  1        2.967  -0.060  -2.409  0.00  0.00    +0.150 HD
BRANCH   9  11
ATOM     11  CA  GLU A  1        5.010  -0.441  -1.916  0.00  0.00    +0.182 C 
BRANCH  11  12
ATOM     12  C   GLU A  1        5.563   0.500  -2.932  0.00  0.00    +0.325 C 
ATOM     13  OXT GLU A  1        4.816   1.435  -3.356  0.00  0.00    -0.249 OA
BRANCH  12  14
ATOM     14  O   GLU A  1        6.852   0.358  -3.396  0.00  0.00    -0.479 OA
ATOM     15  H   GLU A  1        7.343   1.186  -3.737  0.00  0.00    +0.295 HD
ENDBRANCH  12  14
ENDBRANCH  11  12
BRANCH  11  16
ATOM     16  CB  GLU A  1        4.892  -1.838  -2.447  0.00  0.00    +0.045 C 
BRANCH  16  17
ATOM     17  CG  GLU A  1        6.225  -2.419  -2.775  0.00  0.00    +0.123 C 
BRANCH  17  18
ATOM     18  CD  GLU A  1        7.064  -2.515  -1.575  0.00  0.00    +0.305 C 
ATOM     19  OE2 GLU A  1        6.618  -2.227  -0.452  0.00  0.00    -0.251 OA
BRANCH  18  20
ATOM     20  OE1 GLU A  1        8.381  -2.934  -1.690  0.00  0.00    -0.481 OA
ATOM     21  HE1 GLU A  1        9.163  -2.306  -1.789  0.00  0.00    +0.295 HD
ENDBRANCH  18  20
ENDBRANCH  17  18
ENDBRANCH  16  17
ENDBRANCH  11  16
ENDBRANCH   9  11
ENDBRANCH   4   7
BRANCH   1  22
ATOM     22  N   UNK A  0       -1.971   2.433   0.849  0.00  0.00    -0.327 N 
ATOM     23  C   UNK A  0       -2.326   3.049   2.114  0.00  0.00    +0.129 C 
BRANCH  22  24
ATOM     24  C   UNK A  0       -3.107   2.338  -0.084  0.00  0.00    +0.161 C 
BRANCH  24  32
ATOM     25  C   UNK A  0       -5.093  -1.983   0.798  0.00  0.00    +0.149 A 
ATOM     26  N   UNK A  0       -6.075  -2.708   1.346  0.00  0.00    -0.198 NA
ATOM     27  C   UNK A  0       -7.106  -2.180   2.020  0.00  0.00    +0.216 A 
ATOM     28  N   UNK A  0       -7.134  -0.824   2.143  0.00  0.00    -0.193 NA
ATOM     29  C   UNK A  0       -6.184  -0.032   1.621  0.00  0.00    +0.185 A 
ATOM     30  N   UNK A  0       -6.194   1.317   1.734  0.00  0.00    -0.232 NA
ATOM     31  C   UNK A  0       -5.199   2.038   1.178  0.00  0.00    +0.138 A 
ATOM     32  C   UNK A  0       -4.159   1.467   0.495  0.00  0.00    +0.077 A 
ATOM     33  N   UNK A  0       -4.151   0.129   0.385  0.00  0.00    -0.242 NA
ATOM     34  C   UNK A  0       -5.140  -0.609   0.935  0.00  0.00    +0.148 A 
BRANCH  25  35
ATOM     35  N   UNK A  0       -4.005  -2.554   0.086  0.00  0.00    -0.341 N 
ATOM     36  H   UNK A  0       -3.062  -2.126   0.204  0.00  0.00    +0.144 HD
ATOM     37  H   UNK A  0       -4.205  -3.375  -0.521  0.00  0.00    +0.144 HD
ENDBRANCH  25  35
BRANCH  27  38
ATOM     38  N   UNK A  0       -8.118  -2.998   2.578  0.00  0.00    -0.327 N 
ATOM     39  H   UNK A  0       -9.052  -2.611   2.795  0.00  0.00    +0.145 HD
ATOM     40  H   UNK A  0       -7.922  -4.002   2.775  0.00  0.00    +0.145 HD
ENDBRANCH  27  38
ENDBRANCH  24  32
ENDBRANCH  22  24
ENDBRANCH   1  22
TORSDOF 13
