REMARK  Name = molecules/FBPFZTCFMRRESA-KVTDHHQDSA-N.pdb
REMARK                            x       y       z     vdW  Elec       q    Type
REMARK                         _______ _______ _______ _____ _____    ______ ____
ROOT
ATOM      1  C   LIG    1        0.480   0.135  -0.806  0.00  0.00    +0.176 C 
ENDROOT
BRANCH   1   2
ATOM      2  O   LIG    1       -0.248  -0.460  -1.863  0.00  0.00    -0.386 OA
ATOM      3  H   LIG    1        0.102  -1.379  -2.002  0.00  0.00    +0.210 HD
ENDBRANCH   1   2
BRANCH   1   4
ATOM      4  C   LIG    1        1.834  -0.491  -0.732  0.00  0.00    +0.171 C 
BRANCH   4   5
ATOM      5  O   LIG    1        1.800  -1.873  -0.490  0.00  0.00    -0.387 OA
ATOM      6  H   LIG    1        2.222  -2.065   0.382  0.00  0.00    +0.210 HD
ENDBRANCH   4   5
BRANCH   4   7
ATOM      7  C   LIG    1        2.788   0.237   0.160  0.00  0.00    +0.189 C 
BRANCH   7   8
ATOM      8  O   LIG    1        2.536   0.126   1.509  0.00  0.00    -0.392 OA
ATOM      9  H   LIG    1        2.953   0.928   1.945  0.00  0.00    +0.210 HD
ENDBRANCH   7   8
ENDBRANCH   4   7
ENDBRANCH   1   4
BRANCH   1  10
ATOM     10  C   LIG    1       -0.342  -0.045   0.427  0.00  0.00    +0.176 C 
BRANCH  10  11
ATOM     11  O   LIG    1       -0.578  -1.387   0.716  0.00  0.00    -0.386 OA
ATOM     12  H   LIG    1       -0.828  -1.830  -0.137  0.00  0.00    +0.210 HD
ENDBRANCH  10  11
BRANCH  10  13
ATOM     13  C   LIG    1       -1.632   0.716   0.425  0.00  0.00    +0.171 C 
BRANCH  13  14
ATOM     14  O   LIG    1       -2.180   0.576   1.719  0.00  0.00    -0.387 OA
ATOM     15  H   LIG    1       -1.442   0.588   2.381  0.00  0.00    +0.210 HD
ENDBRANCH  13  14
BRANCH  13  16
ATOM     16  C   LIG    1       -2.673   0.174  -0.522  0.00  0.00    +0.189 C 
BRANCH  16  17
ATOM     17  O   LIG    1       -3.824   0.969  -0.316  0.00  0.00    -0.392 OA
ATOM     18  H   LIG    1       -3.800   1.420   0.565  0.00  0.00    +0.210 HD
ENDBRANCH  16  17
ENDBRANCH  13  16
ENDBRANCH  10  13
ENDBRANCH   1  10
TORSDOF 11
