REMARK  Name = molecules/FBPFZTCFMRRESA-JGWLITMVSA-N.pdb
REMARK                            x       y       z     vdW  Elec       q    Type
REMARK                         _______ _______ _______ _____ _____    ______ ____
ROOT
ATOM      1  C   LIG    1        0.590  -0.362  -0.631  0.00  0.00    +0.176 C 
ENDROOT
BRANCH   1   2
ATOM      2  O   LIG    1        0.729  -1.659  -0.207  0.00  0.00    -0.386 OA
ATOM      3  H   LIG    1        0.521  -1.815   0.731  0.00  0.00    +0.210 HD
ENDBRANCH   1   2
BRANCH   1   4
ATOM      4  C   LIG    1       -0.557   0.367  -0.020  0.00  0.00    +0.176 C 
BRANCH   4   5
ATOM      5  O   LIG    1       -0.373   0.394   1.363  0.00  0.00    -0.386 OA
ATOM      6  H   LIG    1       -0.633  -0.470   1.768  0.00  0.00    +0.210 HD
ENDBRANCH   4   5
BRANCH   4   7
ATOM      7  C   LIG    1       -1.897  -0.243  -0.302  0.00  0.00    +0.171 C 
BRANCH   7   8
ATOM      8  O   LIG    1       -2.197  -0.326  -1.639  0.00  0.00    -0.387 OA
ATOM      9  H   LIG    1       -2.239  -1.240  -2.002  0.00  0.00    +0.210 HD
ENDBRANCH   7   8
BRANCH   7  10
ATOM     10  C   LIG    1       -2.942   0.637   0.393  0.00  0.00    +0.189 C 
BRANCH  10  11
ATOM     11  O   LIG    1       -4.217   0.118   0.259  0.00  0.00    -0.392 OA
ATOM     12  H   LIG    1       -4.562   0.245  -0.640  0.00  0.00    +0.210 HD
ENDBRANCH  10  11
ENDBRANCH   7  10
ENDBRANCH   4   7
ENDBRANCH   1   4
BRANCH   1  13
ATOM     13  C   LIG    1        1.852   0.447  -0.310  0.00  0.00    +0.171 C 
BRANCH  13  14
ATOM     14  O   LIG    1        2.054   0.434   1.054  0.00  0.00    -0.387 OA
ATOM     15  H   LIG    1        2.200  -0.454   1.435  0.00  0.00    +0.210 HD
ENDBRANCH  13  14
BRANCH  13  16
ATOM     16  C   LIG    1        3.042  -0.096  -1.071  0.00  0.00    +0.189 C 
BRANCH  16  17
ATOM     17  O   LIG    1        4.133   0.712  -0.757  0.00  0.00    -0.392 OA
ATOM     18  H   LIG    1        4.274   0.793   0.226  0.00  0.00    +0.210 HD
ENDBRANCH  16  17
ENDBRANCH  13  16
ENDBRANCH   1  13
TORSDOF 11
