REMARK  Name = molecules/FBQPGGIHOFZRGH-UHFFFAOYSA-N.pdb
REMARK                            x       y       z     vdW  Elec       q    Type
REMARK                         _______ _______ _______ _____ _____    ______ ____
ROOT
ATOM      1  C   LIG    1       -0.621  -0.486  -0.339  0.00  0.00    +0.039 A 
ATOM      2  C   LIG    1       -2.014  -0.261  -0.235  0.00  0.00    +0.057 A 
ATOM      3  C   LIG    1       -2.493   0.841   0.436  0.00  0.00    +0.197 A 
ATOM      4  O   LIG    1       -1.644   1.598   0.971  0.00  0.00    -0.287 OA
ATOM      5  C   LIG    1       -3.796   1.237   0.607  0.00  0.00    +0.036 A 
ATOM      6  C   LIG    1       -4.050   2.413   1.325  0.00  0.00    +0.013 A 
ATOM      7  C   LIG    1       -5.299   2.924   1.557  0.00  0.00    +0.001 A 
ATOM      8  C   LIG    1       -6.382   2.240   1.054  0.00  0.00    +0.001 A 
ATOM      9  C   LIG    1       -6.162   1.084   0.343  0.00  0.00    +0.016 A 
ATOM     10  C   LIG    1       -4.895   0.571   0.112  0.00  0.00    +0.024 A 
ATOM     11  S   LIG    1       -4.545  -0.830  -0.759  0.00  0.00    -0.088 S 
ATOM     12  C   LIG    1       -2.868  -1.164  -0.867  0.00  0.00    +0.028 A 
ATOM     13  C   LIG    1       -2.372  -2.251  -1.577  0.00  0.00    -0.036 A 
ATOM     14  C   LIG    1       -1.017  -2.434  -1.656  0.00  0.00    +0.006 A 
ATOM     15  C   LIG    1       -3.389  -3.136  -2.200  0.00  0.00    +0.045 C 
ATOM     16  C   LIG    1       -0.129  -1.581  -1.057  0.00  0.00    +0.024 A 
ENDROOT
BRANCH   1  17
ATOM     17  N   LIG    1        0.333   0.343   0.275  0.00  0.00    -0.342 N 
ATOM     18  H   LIG    1        0.082   1.031   0.976  0.00  0.00    +0.146 HD
BRANCH  17  19
ATOM     19  C   LIG    1        1.753   0.351   0.101  0.00  0.00    +0.117 C 
BRANCH  19  20
ATOM     20  C   LIG    1        2.597  -0.610   0.799  0.00  0.00    +0.103 C 
BRANCH  20  21
ATOM     21  N   LIG    1        3.999  -0.435   0.469  0.00  0.00    -0.301 NA
BRANCH  21  22
ATOM     22  C   LIG    1        4.418   0.948   0.507  0.00  0.00    +0.081 C 
ATOM     23  C   LIG    1        4.418   1.551   1.878  0.00  0.00    +0.020 C 
ENDBRANCH  21  22
BRANCH  21  24
ATOM     24  C   LIG    1        4.259  -0.856  -0.910  0.00  0.00    +0.081 C 
ATOM     25  C   LIG    1        5.755  -0.808  -1.193  0.00  0.00    +0.020 C 
ENDBRANCH  21  24
ENDBRANCH  20  21
ENDBRANCH  19  20
ENDBRANCH  17  19
ENDBRANCH   1  17
TORSDOF 6
