REMARK  Name = molecules/FBRAWBYQGRLCEK-AVVSTMBFSA-N.pdb
REMARK                            x       y       z     vdW  Elec       q    Type
REMARK                         _______ _______ _______ _____ _____    ______ ____
ROOT
ATOM      1  C   LIG    1        1.832   0.807  -1.065  0.00  0.00    +0.180 C 
ATOM      2  C   LIG    1        1.560   2.204  -0.725  0.00  0.00    +0.038 C 
ATOM      3  C   LIG    1        0.048   2.323  -0.824  0.00  0.00    +0.012 C 
ATOM      4  C   LIG    1       -0.345   1.027  -0.206  0.00  0.00    +0.007 C 
ATOM      5  C   LIG    1       -1.818   0.706  -0.323  0.00  0.00    +0.039 C 
ATOM      6  C   LIG    1       -2.529   1.712   0.542  0.00  0.00    +0.012 C 
ATOM      7  C   LIG    1       -3.998   1.400   0.620  0.00  0.00    +0.032 C 
ATOM      8  C   LIG    1       -4.161  -0.067   1.026  0.00  0.00    -0.053 C 
ATOM      9  C   LIG    1       -4.960  -0.347   2.019  0.00  0.00    +0.051 C 
ATOM     10  C   LIG    1       -5.170  -1.705   2.505  0.00  0.00    +0.179 C 
ATOM     11  O   LIG    1       -5.939  -1.931   3.452  0.00  0.00    -0.288 OA
ATOM     12  C   LIG    1       -4.419  -2.725   1.799  0.00  0.00    +0.047 C 
ATOM     13  C   LIG    1       -3.621  -2.435   0.805  0.00  0.00    -0.009 C 
ATOM     14  C   LIG    1       -3.392  -1.088   0.294  0.00  0.00    +0.049 C 
ATOM     15  C   LIG    1       -3.895  -0.999  -1.162  0.00  0.00    +0.024 C 
ATOM     16  C   LIG    1       -1.961  -0.665   0.327  0.00  0.00    +0.184 C 
ATOM     17  F   LIG    1       -1.592  -0.549   1.681  0.00  0.00    -0.232 F 
ATOM     18  C   LIG    1       -0.996  -1.608  -0.263  0.00  0.00    +0.172 C 
ATOM     19  C   LIG    1        0.488  -1.244  -0.311  0.00  0.00    +0.089 C 
ATOM     20  O   LIG    1       -1.323  -2.651  -0.708  0.00  0.00    -0.294 OA
ATOM     21  C   LIG    1        2.252   3.251  -1.554  0.00  0.00    +0.012 C 
ATOM     22  C   LIG    1        0.512   0.070  -0.993  0.00  0.00    +0.025 C 
ATOM     23  C   LIG    1       -0.117  -0.156  -2.364  0.00  0.00    +0.016 C 
ENDROOT
BRANCH   1  24
ATOM     24  C   LIG    1        2.158   0.751  -2.564  0.00  0.00    +0.192 C 
ATOM     25  O   LIG    1        1.506   1.333  -3.390  0.00  0.00    -0.292 OA
BRANCH  24  26
ATOM     26  C   LIG    1        3.313  -0.036  -3.079  0.00  0.00    +0.187 C 
ATOM     27 CL   LIG    1        4.810   0.895  -3.178  0.00  0.00    -0.117 Cl
ENDBRANCH  24  26
ENDBRANCH   1  24
BRANCH   1  28
ATOM     28  O   LIG    1        2.825   0.121  -0.467  0.00  0.00    -0.449 OA
BRANCH  28  29
ATOM     29  C   LIG    1        3.119  -0.030   0.825  0.00  0.00    +0.308 C 
ATOM     30  O   LIG    1        2.423   0.551   1.654  0.00  0.00    -0.251 OA
BRANCH  29  31
ATOM     31  C   LIG    1        4.242  -0.858   1.372  0.00  0.00    +0.120 C 
BRANCH  31  32
ATOM     32  C   LIG    1        4.298  -0.814   2.884  0.00  0.00    +0.008 C 
ATOM     33  C   LIG    1        5.468  -1.686   3.297  0.00  0.00    +0.004 C 
ENDBRANCH  31  32
ENDBRANCH  29  31
ENDBRANCH  28  29
ENDBRANCH   1  28
TORSDOF 6
