REMARK  Name = molecules/FDATWRLUYRHCJE-UHFFFAOYSA-N.pdb
REMARK                            x       y       z     vdW  Elec       q    Type
REMARK                         _______ _______ _______ _____ _____    ______ ____
ROOT
ATOM      1  C   LIG    1        0.073   0.936   0.918  0.00  0.00    +0.197 C 
ATOM      2  O   LIG    1        0.979   0.192   1.391  0.00  0.00    -0.287 OA
ENDROOT
BRANCH   1   3
ATOM      3  C   LIG    1       -1.259   0.386   0.727  0.00  0.00    +0.064 A 
ATOM      4  C   LIG    1       -1.555  -0.887   1.145  0.00  0.00    +0.129 A 
ATOM      5  C   LIG    1       -2.825  -1.423   0.952  0.00  0.00    +0.069 A 
ATOM      6  C   LIG    1       -3.797  -0.675   0.337  0.00  0.00    +0.033 A 
ATOM      7  C   LIG    1       -3.514   0.628  -0.097  0.00  0.00    +0.024 A 
ATOM      8  C   LIG    1       -2.248   1.117   0.113  0.00  0.00    +0.017 A 
BRANCH   4   9
ATOM      9  O   LIG    1       -0.587  -1.689   1.780  0.00  0.00    -0.506 OA
ATOM     10  H   LIG    1       -0.839  -2.623   2.072  0.00  0.00    +0.292 HD
ENDBRANCH   4   9
BRANCH   6  11
ATOM     11  N   LIG    1       -5.128  -1.172   0.143  0.00  0.00    -0.330 N 
BRANCH  11  12
ATOM     12  C   LIG    1       -5.614  -2.340   0.811  0.00  0.00    +0.102 C 
ATOM     13  C   LIG    1       -6.683  -2.077   1.859  0.00  0.00    +0.024 C 
ENDBRANCH  11  12
BRANCH  11  14
ATOM     14  C   LIG    1       -6.017  -0.476  -0.776  0.00  0.00    +0.102 C 
ATOM     15  C   LIG    1       -7.127   0.263  -0.108  0.00  0.00    +0.024 C 
ENDBRANCH  11  14
ENDBRANCH   6  11
ENDBRANCH   1   3
BRANCH   1  16
ATOM     16  C   LIG    1        0.378   2.306   0.580  0.00  0.00    +0.036 A 
ATOM     17  C   LIG    1       -0.409   3.299   1.188  0.00  0.00    +0.012 A 
ATOM     18  C   LIG    1       -0.148   4.611   0.973  0.00  0.00    +0.001 A 
ATOM     19  C   LIG    1        0.911   4.969   0.140  0.00  0.00    +0.001 A 
ATOM     20  C   LIG    1        1.670   3.989  -0.449  0.00  0.00    +0.016 A 
ATOM     21  C   LIG    1        1.409   2.627  -0.234  0.00  0.00    +0.070 A 
BRANCH  21  22
ATOM     22  C   LIG    1        2.223   1.660  -0.935  0.00  0.00    +0.340 C 
ATOM     23  O   LIG    1        3.202   2.035  -1.664  0.00  0.00    -0.245 OA
BRANCH  22  24
ATOM     24  O   LIG    1        2.018   0.298  -0.885  0.00  0.00    -0.461 OA
BRANCH  24  25
ATOM     25  C   LIG    1        2.789  -0.670  -1.553  0.00  0.00    +0.232 C 
BRANCH  25  26
ATOM     26  C   LIG    1        4.219  -0.643  -1.090  0.00  0.00    +0.041 C 
BRANCH  26  27
ATOM     27  C   LIG    1        4.994  -1.712  -1.844  0.00  0.00    +0.003 C 
BRANCH  27  28
ATOM     28  C   LIG    1        6.441  -1.748  -1.432  0.00  0.00    -0.000 C 
BRANCH  28  29
ATOM     29  C   LIG    1        6.659  -2.047   0.023  0.00  0.00    -0.003 C 
ATOM     30  C   LIG    1        8.180  -2.031   0.239  0.00  0.00    +0.004 C 
ENDBRANCH  28  29
ENDBRANCH  27  28
ENDBRANCH  26  27
ENDBRANCH  25  26
ENDBRANCH  24  25
ENDBRANCH  22  24
ENDBRANCH  21  22
ENDBRANCH   1  16
TORSDOF 13
