REMARK  Name = molecules/FDBWMYOFXWMGEY-SANMLTNESA-N.pdb
REMARK                            x       y       z     vdW  Elec       q    Type
REMARK                         _______ _______ _______ _____ _____    ______ ____
ROOT
ATOM      1  C   LIG    1       -2.300  -0.580   0.829  0.00  0.00    +0.164 C 
ENDROOT
BRANCH   1   2
ATOM      2  N   LIG    1       -2.604   0.784   0.478  0.00  0.00    -0.300 N 
ATOM      3  C   LIG    1       -2.930   1.822   1.373  0.00  0.00    +0.245 C 
ATOM      4  O   LIG    1       -2.977   1.589   2.605  0.00  0.00    -0.270 OA
ATOM      5  H   LIG    1       -2.578   1.011  -0.554  0.00  0.00    +0.150 HD
BRANCH   3   6
ATOM      6  C   LIG    1       -3.217   3.167   0.915  0.00  0.00    +0.037 A 
ATOM      7  C   LIG    1       -3.660   4.133   1.821  0.00  0.00    +0.013 A 
ATOM      8  C   LIG    1       -3.945   5.425   1.462  0.00  0.00    +0.001 A 
ATOM      9  C   LIG    1       -3.792   5.800   0.150  0.00  0.00    +0.000 A 
ATOM     10  C   LIG    1       -3.365   4.904  -0.772  0.00  0.00    +0.001 A 
ATOM     11  C   LIG    1       -3.078   3.587  -0.388  0.00  0.00    +0.013 A 
ENDBRANCH   3   6
ENDBRANCH   1   2
BRANCH   1  12
ATOM     12  C   LIG    1       -3.518  -1.227   1.333  0.00  0.00    +0.236 C 
ATOM     13  O   LIG    1       -4.349  -0.529   1.958  0.00  0.00    -0.274 OA
ATOM     14  N   LIG    1       -3.839  -2.627   1.162  0.00  0.00    -0.300 N 
BRANCH  14  15
ATOM     15  C   LIG    1       -4.955  -3.158   1.901  0.00  0.00    +0.107 C 
BRANCH  15  16
ATOM     16  C   LIG    1       -6.318  -3.019   1.341  0.00  0.00    +0.016 C 
ATOM     17  C   LIG    1       -6.602  -3.682   0.054  0.00  0.00    +0.005 C 
ENDBRANCH  15  16
ENDBRANCH  14  15
BRANCH  14  18
ATOM     18  C   LIG    1       -2.981  -3.486   0.397  0.00  0.00    +0.107 C 
BRANCH  18  19
ATOM     19  C   LIG    1       -3.266  -3.507  -1.062  0.00  0.00    +0.016 C 
ATOM     20  C   LIG    1       -2.264  -4.405  -1.799  0.00  0.00    +0.005 C 
ENDBRANCH  18  19
ENDBRANCH  14  18
ENDBRANCH   1  12
BRANCH   1  21
ATOM     21  C   LIG    1       -1.204  -0.648   1.886  0.00  0.00    +0.067 C 
BRANCH  21  22
ATOM     22  C   LIG    1        0.064  -0.023   1.437  0.00  0.00    -0.045 A 
ATOM     23  C   LIG    1        0.405   1.277   1.723  0.00  0.00    +0.007 A 
ATOM     24  C   LIG    1        1.613   1.818   1.289  0.00  0.00    +0.046 A 
ATOM     25  C   LIG    1        2.520   1.085   0.559  0.00  0.00    +0.121 A 
ATOM     26  C   LIG    1        2.194  -0.221   0.264  0.00  0.00    +0.046 A 
ATOM     27  C   LIG    1        1.000  -0.755   0.693  0.00  0.00    +0.007 A 
BRANCH  25  28
ATOM     28  O   LIG    1        3.723   1.658   0.139  0.00  0.00    -0.491 OA
BRANCH  28  29
ATOM     29  C   LIG    1        4.666   0.899  -0.618  0.00  0.00    +0.244 C 
BRANCH  29  30
ATOM     30  C   LIG    1        5.871   1.715  -0.962  0.00  0.00    +0.125 C 
BRANCH  30  31
ATOM     31  N   LIG    1        6.887   1.097  -1.701  0.00  0.00    -0.300 NA
BRANCH  31  32
ATOM     32  C   LIG    1        7.995   0.548  -1.004  0.00  0.00    +0.081 C 
ATOM     33  C   LIG    1        8.788   1.717  -0.402  0.00  0.00    +0.020 C 
ENDBRANCH  31  32
BRANCH  31  34
ATOM     34  C   LIG    1        6.684   0.727  -3.037  0.00  0.00    +0.081 C 
ATOM     35  C   LIG    1        5.752  -0.397  -3.326  0.00  0.00    +0.020 C 
ENDBRANCH  31  34
ENDBRANCH  30  31
ENDBRANCH  29  30
ENDBRANCH  28  29
ENDBRANCH  25  28
ENDBRANCH  21  22
ENDBRANCH   1  21
TORSDOF 15
