REMARK  Name = molecules/FDMBBCOBEAVDAO-AWEZNQCLSA-N.pdb
REMARK                            x       y       z     vdW  Elec       q    Type
REMARK                         _______ _______ _______ _____ _____    ______ ____
ROOT
ATOM      1  O   LIG    1        0.217  -0.290  -0.754  0.00  0.00    -0.454 OA
ENDROOT
BRANCH   1   2
ATOM      2  C   LIG    1        1.057   0.732  -0.344  0.00  0.00    +0.340 C 
ATOM      3  O   LIG    1        0.639   1.901  -0.496  0.00  0.00    -0.245 OA
BRANCH   2   4
ATOM      4  C   LIG    1        2.364   0.514   0.238  0.00  0.00    +0.059 A 
ATOM      5  C   LIG    1        3.123   1.599   0.614  0.00  0.00    +0.015 A 
ATOM      6  C   LIG    1        4.380   1.496   1.177  0.00  0.00    +0.001 A 
ATOM      7  C   LIG    1        4.897   0.237   1.371  0.00  0.00    +0.000 A 
ATOM      8  C   LIG    1        4.152  -0.862   1.001  0.00  0.00    +0.001 A 
ATOM      9  C   LIG    1        2.900  -0.742   0.440  0.00  0.00    +0.015 A 
ENDBRANCH   2   4
ENDBRANCH   1   2
BRANCH   1  10
ATOM     10  C   LIG    1       -1.045  -0.141  -1.318  0.00  0.00    +0.123 C 
ATOM     11  C   LIG    1       -0.940   0.699  -2.605  0.00  0.00    +0.057 C 
BRANCH  10  12
ATOM     12  C   LIG    1       -1.545  -1.490  -1.788  0.00  0.00    +0.046 C 
ATOM     13  C   LIG    1       -1.654  -2.493  -0.672  0.00  0.00    +0.008 C 
ENDBRANCH  10  12
BRANCH  10  14
ATOM     14  C   LIG    1       -2.059   0.563  -0.467  0.00  0.00    +0.131 C 
BRANCH  14  15
ATOM     15  N   LIG    1       -2.357  -0.052   0.784  0.00  0.00    -0.305 NA
ATOM     16  C   LIG    1       -1.263  -0.123   1.713  0.00  0.00    +0.104 C 
ATOM     17  C   LIG    1       -3.372   0.802   1.425  0.00  0.00    +0.104 C 
ENDBRANCH  14  15
ENDBRANCH  10  14
ENDBRANCH   1  10
TORSDOF 6
