REMARK  Name = molecules/FDMQDKQUTRLUBU-UHFFFAOYSA-N.pdb
REMARK                            x       y       z     vdW  Elec       q    Type
REMARK                         _______ _______ _______ _____ _____    ______ ____
ROOT
ATOM      1  C   LIG    1        1.514   0.266  -1.337  0.00  0.00    +0.087 A 
ATOM      2  N   LIG    1        0.500  -0.257  -0.610  0.00  0.00    -0.213 NA
ATOM      3  C   LIG    1        0.591  -1.288   0.200  0.00  0.00    +0.223 A 
ATOM      4  N   LIG    1        1.796  -1.944   0.373  0.00  0.00    -0.178 NA
ATOM      5  C   LIG    1        2.828  -1.461  -0.327  0.00  0.00    +0.239 A 
ATOM      6  C   LIG    1        2.716  -0.363  -1.184  0.00  0.00    +0.100 A 
ATOM      7  S   LIG    1        3.749   0.523  -2.211  0.00  0.00    -0.090 S 
ATOM      8  C   LIG    1        2.630   1.667  -2.806  0.00  0.00    +0.048 A 
ATOM      9  C   LIG    1        1.469   1.317  -2.175  0.00  0.00    +0.036 A 
ENDROOT
BRANCH   3  10
ATOM     10  N   LIG    1       -0.499  -1.778   0.945  0.00  0.00    -0.284 N 
ATOM     11  H   LIG    1       -0.324  -2.608   1.594  0.00  0.00    +0.155 HD
BRANCH  10  12
ATOM     12  C   LIG    1       -1.821  -1.307   0.945  0.00  0.00    +0.034 A 
ATOM     13  C   LIG    1       -2.698  -1.665   1.981  0.00  0.00    +0.025 A 
ATOM     14  C   LIG    1       -4.002  -1.240   2.004  0.00  0.00    +0.025 A 
ATOM     15  C   LIG    1       -4.507  -0.430   0.992  0.00  0.00    +0.030 A 
ATOM     16  C   LIG    1       -3.632  -0.091  -0.014  0.00  0.00    +0.025 A 
ATOM     17  C   LIG    1       -2.299  -0.512  -0.059  0.00  0.00    +0.025 A 
BRANCH  15  18
ATOM     18  N   LIG    1       -5.860   0.034   1.012  0.00  0.00    -0.327 N 
ATOM     19  C   LIG    1       -6.683   0.102   2.187  0.00  0.00    +0.120 C 
ATOM     20  C   LIG    1       -8.115  -0.317   1.965  0.00  0.00    +0.103 C 
ATOM     21  N   LIG    1       -8.647   0.214   0.723  0.00  0.00    -0.302 NA
ATOM     22  C   LIG    1       -8.823   1.635   0.733  0.00  0.00    +0.105 C 
ATOM     23  C   LIG    1       -7.809  -0.253  -0.334  0.00  0.00    +0.103 C 
ATOM     24  C   LIG    1       -6.472   0.499  -0.227  0.00  0.00    +0.120 C 
ENDBRANCH  15  18
ENDBRANCH  10  12
ENDBRANCH   3  10
BRANCH   5  25
ATOM     25  O   LIG    1        4.063  -2.048  -0.219  0.00  0.00    -0.437 OA
BRANCH  25  26
ATOM     26  C   LIG    1        5.183  -1.626  -0.895  0.00  0.00    +0.132 A 
ATOM     27  C   LIG    1        6.032  -0.671  -0.333  0.00  0.00    +0.069 A 
ATOM     28  C   LIG    1        7.170  -0.197  -0.942  0.00  0.00    +0.037 A 
ATOM     29  C   LIG    1        7.452  -0.737  -2.207  0.00  0.00    +0.023 A 
ATOM     30  C   LIG    1        6.654  -1.670  -2.796  0.00  0.00    +0.005 A 
ATOM     31  C   LIG    1        5.519  -2.113  -2.136  0.00  0.00    +0.046 A 
BRANCH  28  32
ATOM     32  N   LIG    1        8.059   0.754  -0.412  0.00  0.00    -0.282 N 
ATOM     33  C   LIG    1        8.028   1.256   0.886  0.00  0.00    +0.241 C 
ATOM     34  O   LIG    1        7.162   0.878   1.726  0.00  0.00    -0.271 OA
ATOM     35  H   LIG    1        8.810   1.119  -1.050  0.00  0.00    +0.155 HD
BRANCH  33  36
ATOM     36  C   LIG    1        8.997   2.261   1.372  0.00  0.00    +0.060 C 
ATOM     37  C   LIG    1        9.935   2.721   0.586  0.00  0.00    +0.013 C 
ENDBRANCH  33  36
ENDBRANCH  28  32
ENDBRANCH  25  26
ENDBRANCH   5  25
TORSDOF 7
