REMARK  Name = molecules/FEBLZLNTKCEFIT-VSXGLTOVSA-N.pdb
REMARK                            x       y       z     vdW  Elec       q    Type
REMARK                         _______ _______ _______ _____ _____    ______ ____
ROOT
ATOM      1  C   LIG    1        4.069  -1.256   0.491  0.00  0.00    -0.009 C 
ATOM      2  C   LIG    1        3.200  -0.089   0.380  0.00  0.00    +0.047 C 
ATOM      3  C   LIG    1        3.294   0.789   1.611  0.00  0.00    +0.023 C 
ATOM      4  C   LIG    1        1.784  -0.375  -0.030  0.00  0.00    +0.153 C 
ATOM      5  C   LIG    1        1.245  -1.682   0.361  0.00  0.00    +0.154 C 
ATOM      6  C   LIG    1       -0.235  -1.770   0.062  0.00  0.00    +0.044 C 
ATOM      7  C   LIG    1       -1.004  -0.672   0.665  0.00  0.00    +0.012 C 
ATOM      8  C   LIG    1       -0.976  -0.565   2.143  0.00  0.00    +0.015 C 
ATOM      9  C   LIG    1       -2.399  -0.502   0.098  0.00  0.00    +0.164 C 
ATOM     10  C   LIG    1       -2.728   0.849   0.661  0.00  0.00    +0.162 C 
ATOM     11  C   LIG    1       -1.403   1.615   0.680  0.00  0.00    +0.039 C 
ATOM     12  O   LIG    1       -3.519   1.457  -0.294  0.00  0.00    -0.343 OA
ATOM     13  C   LIG    1       -3.274   0.788  -1.492  0.00  0.00    +0.166 C 
ATOM     14  C   LIG    1       -4.613   0.330  -2.005  0.00  0.00    +0.074 C 
ATOM     15  C   LIG    1       -2.763   1.834  -2.464  0.00  0.00    +0.074 C 
ATOM     16  O   LIG    1       -2.365  -0.214  -1.264  0.00  0.00    -0.332 OA
ATOM     17  C   LIG    1       -0.446   0.643   0.097  0.00  0.00    +0.007 C 
ATOM     18  C   LIG    1        0.998   0.854   0.358  0.00  0.00    +0.037 C 
ATOM     19  C   LIG    1        1.450   1.989  -0.517  0.00  0.00    +0.048 C 
ATOM     20  C   LIG    1        2.868   2.071  -0.892  0.00  0.00    +0.194 C 
ATOM     21  F   LIG    1        3.021   2.438  -2.239  0.00  0.00    -0.241 F 
ATOM     22  F   LIG    1        1.710  -0.361  -1.443  0.00  0.00    -0.238 F 
ATOM     23  C   LIG    1        3.682   0.865  -0.692  0.00  0.00    -0.020 C 
ATOM     24  C   LIG    1        4.738   0.671  -1.423  0.00  0.00    +0.054 C 
ATOM     25  C   LIG    1        5.545  -0.524  -1.239  0.00  0.00    +0.179 C 
ATOM     26  O   LIG    1        6.581  -0.730  -1.944  0.00  0.00    -0.288 OA
ATOM     27  C   LIG    1        5.148  -1.478  -0.238  0.00  0.00    +0.047 C 
ENDROOT
BRANCH   5  28
ATOM     28  O   LIG    1        1.479  -2.195   1.585  0.00  0.00    -0.389 OA
ATOM     29  H   LIG    1        1.729  -1.655   2.326  0.00  0.00    +0.210 HD
ENDBRANCH   5  28
BRANCH   9  30
ATOM     30  C   LIG    1       -3.330  -1.583   0.370  0.00  0.00    +0.193 C 
ATOM     31  O   LIG    1       -3.918  -2.084  -0.606  0.00  0.00    -0.292 OA
BRANCH  30  32
ATOM     32  C   LIG    1       -3.659  -2.155   1.681  0.00  0.00    +0.233 C 
BRANCH  32  33
ATOM     33  O   LIG    1       -4.633  -3.129   1.528  0.00  0.00    -0.387 OA
ATOM     34  H   LIG    1       -4.167  -3.942   1.180  0.00  0.00    +0.210 HD
ENDBRANCH  32  33
ENDBRANCH  30  32
ENDBRANCH   9  30
TORSDOF 4
