REMARK  Name = molecules/FEBOTPHFXYHVPL-UHFFFAOYSA-N.pdb
REMARK                            x       y       z     vdW  Elec       q    Type
REMARK                         _______ _______ _______ _____ _____    ______ ____
ROOT
ATOM      1  C   LIG    1       -2.453  -0.515   0.587  0.00  0.00    +0.095 C 
ATOM      2  C   LIG    1       -1.643   0.705   0.578  0.00  0.00    +0.040 C 
ATOM      3  C   LIG    1       -0.193   0.330   0.836  0.00  0.00    +0.086 C 
ATOM      4  N   LIG    1        0.003  -1.075   0.688  0.00  0.00    -0.302 NA
ATOM      5  C   LIG    1       -0.590  -1.676  -0.464  0.00  0.00    +0.086 C 
ATOM      6  C   LIG    1       -2.040  -1.317  -0.657  0.00  0.00    +0.040 C 
ENDROOT
BRANCH   1  17
ATOM      7  O   LIG    1       -4.098  -2.672   1.475  0.00  0.00    -0.247 OA
ATOM      8  C   LIG    1       -4.558  -1.539   1.206  0.00  0.00    +0.328 A 
ATOM      9  N   LIG    1       -5.844  -1.227   1.305  0.00  0.00    -0.306 N 
ATOM     10  H   LIG    1       -6.630  -1.845   1.605  0.00  0.00    +0.170 HD
ATOM     11  C   LIG    1       -6.022   0.039   0.954  0.00  0.00    +0.067 A 
ATOM     12  C   LIG    1       -7.140   0.831   0.885  0.00  0.00    +0.028 A 
ATOM     13  C   LIG    1       -7.026   2.145   0.477  0.00  0.00    +0.002 A 
ATOM     14  C   LIG    1       -5.773   2.602   0.153  0.00  0.00    +0.002 A 
ATOM     15  C   LIG    1       -4.625   1.824   0.213  0.00  0.00    +0.028 A 
ATOM     16  C   LIG    1       -4.752   0.524   0.620  0.00  0.00    +0.070 A 
ATOM     17  N   LIG    1       -3.842  -0.457   0.777  0.00  0.00    -0.289 N 
ENDBRANCH   1  17
BRANCH   4  18
ATOM     18  C   LIG    1        1.347  -1.512   0.945  0.00  0.00    +0.085 C 
BRANCH  18  19
ATOM     19  C   LIG    1        2.323  -1.049  -0.087  0.00  0.00    +0.023 C 
BRANCH  19  20
ATOM     20  C   LIG    1        3.707  -1.584   0.307  0.00  0.00    +0.081 C 
BRANCH  20  21
ATOM     21  C   LIG    1        4.708  -1.168  -0.676  0.00  0.00    +0.163 C 
ATOM     22  O   LIG    1        4.841  -1.905  -1.707  0.00  0.00    -0.292 OA
BRANCH  21  23
ATOM     23  C   LIG    1        5.503   0.027  -0.480  0.00  0.00    +0.018 A 
ATOM     24  C   LIG    1        5.381   0.840   0.616  0.00  0.00    +0.014 A 
ATOM     25  C   LIG    1        6.187   1.977   0.722  0.00  0.00    +0.039 A 
ATOM     26  C   LIG    1        7.093   2.263  -0.279  0.00  0.00    +0.123 A 
ATOM     27  F   LIG    1        7.889   3.366  -0.196  0.00  0.00    -0.205 F 
ATOM     28  C   LIG    1        7.236   1.466  -1.387  0.00  0.00    +0.039 A 
ATOM     29  C   LIG    1        6.433   0.349  -1.474  0.00  0.00    +0.014 A 
ENDBRANCH  21  23
ENDBRANCH  20  21
ENDBRANCH  19  20
ENDBRANCH  18  19
ENDBRANCH   4  18
TORSDOF 6
