REMARK  Name = molecules/FEZBIKUBAYAZIU-UHFFFAOYSA-N.pdb
REMARK                            x       y       z     vdW  Elec       q    Type
REMARK                         _______ _______ _______ _____ _____    ______ ____
ROOT
ATOM      1  C   LIG    1       -2.148  -0.247   1.476  0.00  0.00    +0.245 C 
ATOM      2  O   LIG    1       -1.725   0.826   1.981  0.00  0.00    -0.270 OA
ATOM      3  N   LIG    1       -1.335  -1.397   1.544  0.00  0.00    -0.307 N 
ATOM      4  H   LIG    1       -1.706  -2.288   1.110  0.00  0.00    +0.149 HD
ENDROOT
BRANCH   1   5
ATOM      5  C   LIG    1       -3.454  -0.281   0.838  0.00  0.00    +0.044 A 
ATOM      6  C   LIG    1       -4.070   0.926   0.538  0.00  0.00    +0.062 A 
ATOM      7  C   LIG    1       -5.294   1.000  -0.067  0.00  0.00    +0.166 A 
ATOM      8  C   LIG    1       -5.929  -0.176  -0.386  0.00  0.00    +0.204 A 
ATOM      9  C   LIG    1       -5.348  -1.395  -0.103  0.00  0.00    +0.166 A 
ATOM     10  C   LIG    1       -4.116  -1.439   0.506  0.00  0.00    +0.062 A 
BRANCH   7  11
ATOM     11  O   LIG    1       -5.873   2.224  -0.348  0.00  0.00    -0.491 OA
ATOM     12  C   LIG    1       -5.194   3.418  -0.009  0.00  0.00    +0.277 C 
ENDBRANCH   7  11
BRANCH   9  13
ATOM     13  O   LIG    1       -6.034  -2.574  -0.446  0.00  0.00    -0.491 OA
ATOM     14  C   LIG    1       -5.516  -3.864  -0.193  0.00  0.00    +0.277 C 
ENDBRANCH   9  13
BRANCH   8  15
ATOM     15  O   LIG    1       -7.171  -0.101  -0.999  0.00  0.00    -0.488 OA
ATOM     16  C   LIG    1       -7.172  -0.063  -2.422  0.00  0.00    +0.277 C 
ENDBRANCH   8  15
ENDBRANCH   1   5
BRANCH   3  17
ATOM     17  C   LIG    1       -0.054  -1.344   2.178  0.00  0.00    +0.139 C 
BRANCH  17  18
ATOM     18  C   LIG    1        0.983  -0.656   1.328  0.00  0.00    -0.030 A 
ATOM     19  C   LIG    1        2.281  -0.623   1.784  0.00  0.00    +0.009 A 
ATOM     20  C   LIG    1        3.292  -0.004   1.054  0.00  0.00    +0.046 A 
ATOM     21  C   LIG    1        3.020   0.594  -0.150  0.00  0.00    +0.121 A 
ATOM     22  C   LIG    1        1.691   0.547  -0.594  0.00  0.00    +0.046 A 
ATOM     23  C   LIG    1        0.699  -0.066   0.133  0.00  0.00    +0.009 A 
BRANCH  21  24
ATOM     24  O   LIG    1        3.905   1.221  -0.943  0.00  0.00    -0.491 OA
BRANCH  24  25
ATOM     25  C   LIG    1        5.244   1.474  -0.892  0.00  0.00    +0.244 C 
BRANCH  25  26
ATOM     26  C   LIG    1        6.189   0.328  -0.870  0.00  0.00    +0.124 C 
BRANCH  26  27
ATOM     27  N   LIG    1        7.561   0.871  -0.813  0.00  0.00    -0.305 NA
ATOM     28  C   LIG    1        7.747   1.595   0.432  0.00  0.00    +0.104 C 
ATOM     29  C   LIG    1        8.435  -0.305  -0.793  0.00  0.00    +0.104 C 
ENDBRANCH  26  27
ENDBRANCH  25  26
ENDBRANCH  24  25
ENDBRANCH  21  24
ENDBRANCH  17  18
ENDBRANCH   3  17
TORSDOF 10
