REMARK  Name = molecules/FFHBJDQSGDNCIV-CTQGIVEYSA-N.pdb
REMARK                            x       y       z     vdW  Elec       q    Type
REMARK                         _______ _______ _______ _____ _____    ______ ____
ROOT
ATOM      1  C   UNK A  1        4.295   0.742  -0.036  0.00  0.00    +0.168 C 
ATOM      2  C   UNK A  1        3.750   0.103   1.199  0.00  0.00    +0.234 C 
ATOM      3  O   UNK A  1        4.112   0.637   2.292  0.00  0.00    -0.274 OA
ATOM      4  N   HIS A  2        2.894  -1.005   1.245  0.00  0.00    -0.302 N 
ATOM      5  H   HIS A  2        2.102  -1.074   1.970  0.00  0.00    +0.150 HD
ATOM      6  CA  HIS A  2        3.010  -2.130   0.336  0.00  0.00    +0.165 C 
ATOM      7  C   HIS A  2        1.955  -2.179  -0.683  0.00  0.00    +0.234 C 
ATOM      8  N   PHE A  3        0.646  -2.640  -0.590  0.00  0.00    -0.302 N 
ATOM      9  CA  PHE A  3       -0.432  -2.154   0.273  0.00  0.00    +0.163 C 
ATOM     10  C   PHE A  3       -1.160  -1.052  -0.409  0.00  0.00    +0.234 C 
ATOM     11  O   PHE A  3       -0.587   0.097  -0.246  0.00  0.00    -0.274 OA
ATOM     12  N   ARG A  4       -2.320  -1.060  -1.174  0.00  0.00    -0.302 N 
ATOM     13  CA  ARG A  4       -3.706  -1.280  -0.878  0.00  0.00    +0.159 C 
ATOM     14  C   ARG A  4       -4.180  -0.796   0.437  0.00  0.00    +0.234 C 
ATOM     15  O   ARG A  4       -4.455  -1.592   1.390  0.00  0.00    -0.274 OA
ATOM     16  N   TRP A  5       -4.329   0.603   0.635  0.00  0.00    -0.302 N 
ATOM     17  H   TRP A  5       -3.851   1.035   1.495  0.00  0.00    +0.150 HD
ATOM     18  CA  TRP A  5       -5.082   1.506  -0.208  0.00  0.00    +0.163 C 
ATOM     19  C   TRP A  5       -4.263   2.378  -1.067  0.00  0.00    +0.234 C 
ATOM     20  N   UNK A  6       -3.716   3.634  -0.746  0.00  0.00    -0.301 N 
ATOM     21  C   UNK A  6       -2.859   3.945   0.385  0.00  0.00    +0.182 C 
ATOM     22  C   UNK A  6       -1.424   4.020  -0.173  0.00  0.00    +0.034 C 
ATOM     23  C   UNK A  6       -0.490   4.747   0.734  0.00  0.00    +0.004 C 
ATOM     24  C   UNK A  6        0.946   4.458   0.385  0.00  0.00    +0.019 C 
ATOM     25  C   UNK A  6        1.103   3.561  -0.809  0.00  0.00    +0.104 C 
ATOM     26  N   UNK A  6        2.393   3.670  -1.457  0.00  0.00    -0.315 N 
ATOM     27  C   UNK A  6        3.465   2.748  -1.287  0.00  0.00    +0.215 C 
ATOM     28  O   UNK A  6        4.096   2.397  -2.310  0.00  0.00    -0.276 OA
ATOM     29  H   UNK A  6        2.531   4.494  -2.096  0.00  0.00    +0.149 HD
ATOM     30  H   UNK A  6       -3.924   4.468  -1.380  0.00  0.00    +0.150 HD
ATOM     31  O   TRP A  5       -4.006   1.962  -2.256  0.00  0.00    -0.274 OA
ATOM     32  H   ARG A  4       -2.185  -0.850  -2.245  0.00  0.00    +0.150 HD
ATOM     33  H   PHE A  3        0.342  -3.441  -1.230  0.00  0.00    +0.150 HD
ATOM     34  O   HIS A  2        2.314  -1.720  -1.845  0.00  0.00    -0.274 OA
ATOM     35  C   UNK A  6        3.859   2.200   0.018  0.00  0.00    +0.127 C 
ENDROOT
BRANCH   1  36
ATOM     36  N   UNK A  1        5.769   0.688   0.030  0.00  0.00    -0.302 N 
ATOM     37  H   UNK A  1        6.249   1.260   0.750  0.00  0.00    +0.150 HD
ATOM     38  C   UNK A  1        6.482  -0.135  -0.860  0.00  0.00    +0.234 C 
ATOM     39  O   UNK A  1        5.884  -0.849  -1.718  0.00  0.00    -0.274 OA
BRANCH  38  40
ATOM     40  C   UNK A  1        7.982  -0.162  -0.780  0.00  0.00    +0.159 C 
BRANCH  40  41
ATOM     41  N   UNK A  1        8.451  -1.539  -0.935  0.00  0.00    -0.304 N 
ATOM     42  C   UNK A  0        9.218  -2.150   0.077  0.00  0.00    +0.211 C 
ATOM     43  O   UNK A  0        9.487  -1.480   1.116  0.00  0.00    -0.276 OA
ATOM     44  C   UNK A  0        9.700  -3.556  -0.078  0.00  0.00    +0.109 C 
ATOM     45  H   UNK A  1        8.208  -2.042  -1.794  0.00  0.00    +0.149 HD
ENDBRANCH  40  41
BRANCH  40  46
ATOM     46  C   UNK A  1        8.480   0.659  -1.962  0.00  0.00    +0.032 C 
BRANCH  46  47
ATOM     47  C   UNK A  1        7.994   2.063  -1.859  0.00  0.00    +0.002 C 
BRANCH  47  48
ATOM     48  C   UNK A  1        8.509   2.828  -0.677  0.00  0.00    -0.003 C 
ATOM     49  C   UNK A  1       10.039   2.927  -0.729  0.00  0.00    +0.004 C 
ENDBRANCH  47  48
ENDBRANCH  46  47
ENDBRANCH  40  46
ENDBRANCH  38  40
ENDBRANCH   1  36
BRANCH  21  50
ATOM     50  C   UNK A  6       -3.247   5.273   0.900  0.00  0.00    +0.325 C 
ATOM     51  O   UNK A  6       -4.170   5.977   0.404  0.00  0.00    -0.249 OA
BRANCH  50  52
ATOM     52  O   UNK A  6       -2.579   5.816   1.998  0.00  0.00    -0.479 OA
ATOM     53  H   UNK A  6       -2.564   6.781   2.225  0.00  0.00    +0.295 HD
ENDBRANCH  50  52
ENDBRANCH  21  50
BRANCH  13  54
ATOM     54  CB  ARG A  4       -4.232  -2.646  -1.261  0.00  0.00    +0.035 C 
BRANCH  54  55
ATOM     55  CG  ARG A  4       -5.764  -2.557  -1.341  0.00  0.00    +0.043 C 
BRANCH  55  56
ATOM     56  CD  ARG A  4       -6.296  -3.943  -1.734  0.00  0.00    +0.243 C 
BRANCH  56  57
ATOM     57  NE  ARG A  4       -7.716  -3.891  -1.832  0.00  0.00    -0.114 NA
ATOM     58  CZ  ARG A  4       -8.361  -4.842  -2.400  0.00  0.00    +0.376 C 
BRANCH  58  59
ATOM     59  NH1 ARG A  4       -7.659  -5.946  -2.931  0.00  0.00    -0.289 N 
ATOM     60 HH11 ARG A  4       -7.264  -6.684  -2.324  0.00  0.00    +0.255 HD
ATOM     61 HH12 ARG A  4       -7.533  -6.022  -3.958  0.00  0.00    +0.255 HD
ENDBRANCH  58  59
BRANCH  58  62
ATOM     62  NH2 ARG A  4       -9.777  -4.789  -2.505  0.00  0.00    -0.289 N 
ATOM     63 HH21 ARG A  4      -10.356  -5.639  -2.421  0.00  0.00    +0.255 HD
ATOM     64 HH22 ARG A  4      -10.236  -3.876  -2.671  0.00  0.00    +0.255 HD
ENDBRANCH  58  62
ENDBRANCH  56  57
ENDBRANCH  55  56
ENDBRANCH  54  55
ENDBRANCH  13  54
BRANCH  18  65
ATOM     65  CB  TRP A  5       -5.926   2.333   0.774  0.00  0.00    +0.069 C 
BRANCH  65  66
ATOM     66  CG  TRP A  5       -6.831   3.252   0.049  0.00  0.00    -0.020 A 
ATOM     67  CD2 TRP A  5       -7.637   4.161   0.693  0.00  0.00    +0.003 A 
ATOM     68  CE3 TRP A  5       -7.840   4.466   2.010  0.00  0.00    +0.010 A 
ATOM     69  CZ3 TRP A  5       -8.729   5.447   2.356  0.00  0.00    +0.001 A 
ATOM     70  CH2 TRP A  5       -9.422   6.130   1.384  0.00  0.00    +0.002 A 
ATOM     71  CZ2 TRP A  5       -9.223   5.827   0.035  0.00  0.00    +0.026 A 
ATOM     72  CE2 TRP A  5       -8.326   4.837  -0.310  0.00  0.00    +0.047 A 
ATOM     73  NE1 TRP A  5       -7.968   4.372  -1.515  0.00  0.00    -0.360 N 
ATOM     74  HE1 TRP A  5       -8.348   4.722  -2.432  0.00  0.00    +0.165 HD
ATOM     75  CD1 TRP A  5       -7.058   3.409  -1.286  0.00  0.00    +0.087 A 
ENDBRANCH  65  66
ENDBRANCH  18  65
BRANCH   9  76
ATOM     76  CB  PHE A  3       -1.323  -3.319   0.619  0.00  0.00    +0.067 C 
BRANCH  76  77
ATOM     77  CG  PHE A  3       -0.597  -4.384   1.309  0.00  0.00    -0.045 A 
ATOM     78  CD2 PHE A  3       -0.446  -4.368   2.679  0.00  0.00    +0.004 A 
ATOM     79  CE2 PHE A  3        0.216  -5.359   3.366  0.00  0.00    +0.000 A 
ATOM     80  CZ  PHE A  3        0.765  -6.423   2.713  0.00  0.00    +0.000 A 
ATOM     81  CE1 PHE A  3        0.632  -6.473   1.321  0.00  0.00    +0.000 A 
ATOM     82  CD1 PHE A  3       -0.047  -5.453   0.643  0.00  0.00    +0.004 A 
ENDBRANCH  76  77
ENDBRANCH   9  76
BRANCH   6  83
ATOM     83  CB  HIS A  2        3.102  -3.438   1.155  0.00  0.00    +0.086 C 
BRANCH  83  84
ATOM     84  CG  HIS A  2        4.185  -3.352   2.140  0.00  0.00    +0.038 A 
ATOM     85  CD2 HIS A  2        4.130  -2.885   3.425  0.00  0.00    +0.133 A 
ATOM     86  NE2 HIS A  2        5.348  -2.996   3.950  0.00  0.00    -0.244 NA
ATOM     87  CE1 HIS A  2        6.167  -3.519   3.036  0.00  0.00    +0.196 A 
ATOM     88  ND1 HIS A  2        5.450  -3.738   1.921  0.00  0.00    -0.348 N 
ATOM     89  HD1 HIS A  2        5.804  -4.144   1.021  0.00  0.00    +0.166 HD
ENDBRANCH  83  84
ENDBRANCH   6  83
TORSDOF 20
