REMARK  Name = molecules/FFINMCNLQNTKLU-UHFFFAOYSA-N.pdb
REMARK                            x       y       z     vdW  Elec       q    Type
REMARK                         _______ _______ _______ _____ _____    ______ ____
ROOT
ATOM      1  C   LIG    1       -0.186  -1.528   1.017  0.00  0.00    +0.010 C 
ENDROOT
BRANCH   1   2
ATOM      2  C   LIG    1       -0.807  -0.205   1.331  0.00  0.00    +0.096 C 
BRANCH   2   5
ATOM      3  N   LIG    1       -2.892   1.191   0.979  0.00  0.00    -0.284 N 
ATOM      4  H   LIG    1       -2.476   2.015   1.455  0.00  0.00    +0.155 HD
ATOM      5  C   LIG    1       -2.177  -0.020   0.830  0.00  0.00    +0.217 C 
ATOM      6  O   LIG    1       -2.759  -0.976   0.235  0.00  0.00    -0.275 OA
BRANCH   3   7
ATOM      7  C   LIG    1       -4.209   1.301   0.474  0.00  0.00    +0.061 A 
ATOM      8  C   LIG    1       -5.297   0.965   1.284  0.00  0.00    +0.051 A 
ATOM      9  I   LIG    1       -4.895   0.304   3.254  0.00  0.00    -0.041 I 
ATOM     10  C   LIG    1       -6.596   1.055   0.831  0.00  0.00    +0.087 A 
ATOM     11  C   LIG    1       -6.786   1.494  -0.465  0.00  0.00    +0.029 A 
ATOM     12  I   LIG    1       -8.748   1.649  -1.202  0.00  0.00    -0.043 I 
ATOM     13  C   LIG    1       -5.724   1.833  -1.285  0.00  0.00    +0.031 A 
ATOM     14  C   LIG    1       -4.429   1.736  -0.814  0.00  0.00    +0.037 A 
ATOM     15  I   LIG    1       -2.767   2.236  -2.000  0.00  0.00    -0.042 I 
BRANCH  10  16
ATOM     16  C   LIG    1       -7.718   0.698   1.694  0.00  0.00    +0.339 C 
ATOM     17  O   LIG    1       -7.558   0.299   2.873  0.00  0.00    -0.245 OA
BRANCH  16  18
ATOM     18  O   LIG    1       -9.004   0.800   1.205  0.00  0.00    -0.477 OA
ATOM     19  H   LIG    1       -9.631   1.512   1.604  0.00  0.00    +0.295 HD
ENDBRANCH  16  18
ENDBRANCH  10  16
ENDBRANCH   3   7
ENDBRANCH   2   5
ENDBRANCH   1   2
BRANCH   1  20
ATOM     20  C   LIG    1       -0.038  -1.810  -0.454  0.00  0.00    +0.010 C 
BRANCH  20  21
ATOM     21  C   LIG    1        0.811  -0.797  -1.174  0.00  0.00    +0.096 C 
BRANCH  21  22
ATOM     22  C   LIG    1        2.182  -0.807  -0.633  0.00  0.00    +0.217 C 
ATOM     23  O   LIG    1        2.597  -1.590   0.238  0.00  0.00    -0.275 OA
ATOM     24  N   LIG    1        3.098   0.168  -1.160  0.00  0.00    -0.284 N 
ATOM     25  H   LIG    1        2.835   0.852  -1.880  0.00  0.00    +0.155 HD
BRANCH  24  26
ATOM     26  C   LIG    1        4.430   0.194  -0.670  0.00  0.00    +0.061 A 
ATOM     27  C   LIG    1        4.774   0.955   0.417  0.00  0.00    +0.037 A 
ATOM     28  I   LIG    1        3.346   2.138   1.427  0.00  0.00    -0.042 I 
ATOM     29  C   LIG    1        6.102   0.926   0.843  0.00  0.00    +0.031 A 
ATOM     30  C   LIG    1        7.011   0.150   0.171  0.00  0.00    +0.029 A 
ATOM     31  I   LIG    1        9.000   0.128   0.834  0.00  0.00    -0.043 I 
ATOM     32  C   LIG    1        6.657  -0.616  -0.926  0.00  0.00    +0.087 A 
ATOM     33  C   LIG    1        5.347  -0.595  -1.355  0.00  0.00    +0.051 A 
ATOM     34  I   LIG    1        4.737  -1.748  -3.033  0.00  0.00    -0.041 I 
BRANCH  32  35
ATOM     35  C   LIG    1        7.633  -1.434  -1.626  0.00  0.00    +0.339 C 
ATOM     36  O   LIG    1        8.290  -0.938  -2.595  0.00  0.00    -0.245 OA
BRANCH  35  37
ATOM     37  O   LIG    1        7.884  -2.736  -1.285  0.00  0.00    -0.477 OA
ATOM     38  H   LIG    1        7.927  -3.442  -2.006  0.00  0.00    +0.295 HD
ENDBRANCH  35  37
ENDBRANCH  32  35
ENDBRANCH  24  26
ENDBRANCH  21  22
ENDBRANCH  20  21
ENDBRANCH   1  20
TORSDOF 11
