REMARK  Name = molecules/FFKUDWZICMJVPA-UHFFFAOYSA-N.pdb
REMARK                            x       y       z     vdW  Elec       q    Type
REMARK                         _______ _______ _______ _____ _____    ______ ____
ROOT
ATOM      1  C   LIG    1       -1.159   0.720   0.002  0.00  0.00    +0.101 A 
ATOM      2  C   LIG    1        0.047   0.078   0.126  0.00  0.00    +0.146 A 
ATOM      3  C   LIG    1        0.124  -1.293   0.071  0.00  0.00    +0.047 A 
ATOM      4  C   LIG    1       -1.030  -2.010  -0.110  0.00  0.00    +0.004 A 
ATOM      5  C   LIG    1       -2.256  -1.399  -0.238  0.00  0.00    +0.001 A 
ATOM      6  C   LIG    1       -2.295  -0.022  -0.178  0.00  0.00    +0.018 A 
ENDROOT
BRANCH   1   7
ATOM      7  C   LIG    1       -1.274   2.186   0.057  0.00  0.00    +0.340 C 
ATOM      8  O   LIG    1       -0.247   2.904   0.222  0.00  0.00    -0.245 OA
BRANCH   7   9
ATOM      9  O   LIG    1       -2.522   2.770  -0.075  0.00  0.00    -0.477 OA
ATOM     10  H   LIG    1       -3.108   2.435  -0.836  0.00  0.00    +0.295 HD
ENDBRANCH   7   9
ENDBRANCH   1   7
BRANCH   2  11
ATOM     11  O   LIG    1        1.173   0.852   0.306  0.00  0.00    -0.403 OA
BRANCH  11  12
ATOM     12  P   LIG    1        2.747   0.272   0.480  0.00  0.00    +0.528 P 
ATOM     13  O   LIG    1        3.620   1.356   1.120  0.00  0.00    -0.216 OA
BRANCH  12  14
ATOM     14  O   LIG    1        2.863  -1.080   1.473  0.00  0.00    -0.293 OA
ATOM     15  H   LIG    1        3.303  -1.849   1.041  0.00  0.00    +0.223 HD
ENDBRANCH  12  14
BRANCH  12  16
ATOM     16  O   LIG    1        3.381  -0.024  -1.068  0.00  0.00    -0.293 OA
ATOM     17  H   LIG    1        2.927   0.557  -1.751  0.00  0.00    +0.223 HD
ENDBRANCH  12  16
ENDBRANCH  11  12
ENDBRANCH   2  11
TORSDOF 6
