REMARK  Name = molecules/FGVVTMRZYROCTH-UHFFFAOYSA-N.pdb
REMARK                            x       y       z     vdW  Elec       q    Type
REMARK                         _______ _______ _______ _____ _____    ______ ____
ROOT
ATOM      1  O   LIG    1        1.304  -2.097   0.186  0.00  0.00    -0.080 OA
ATOM      2  N   LIG    1        0.480  -1.022   0.085  0.00  0.00    -0.189 N 
ATOM      3  C   LIG    1        0.979   0.215   0.189  0.00  0.00    +0.099 C 
ATOM      4  C   LIG    1        0.136   1.293   0.085  0.00  0.00    +0.016 C 
ATOM      5  C   LIG    1       -1.228   1.161  -0.125  0.00  0.00    +0.049 C 
ATOM      6  C   LIG    1       -1.708  -0.129  -0.226  0.00  0.00    +0.002 C 
ATOM      7  C   LIG    1       -0.850  -1.200  -0.120  0.00  0.00    +0.117 C 
ENDROOT
BRANCH   3   8
ATOM      8  S   LIG    1        2.740   0.512   0.462  0.00  0.00    -0.123 S 
ATOM      9  H   LIG    1        3.462  -0.610   0.085  0.00  0.00    +0.109 HD
ENDBRANCH   3   8
TORSDOF 1
