REMARK  Name = molecules/FGXWKSZFVQUSTL-UHFFFAOYSA-N.pdb
REMARK                            x       y       z     vdW  Elec       q    Type
REMARK                         _______ _______ _______ _____ _____    ______ ____
ROOT
ATOM      1  C   LIG    1       -2.779  -0.885  -0.493  0.00  0.00    +0.095 C 
ATOM      2  C   LIG    1       -1.765   0.030   0.088  0.00  0.00    +0.040 C 
ATOM      3  C   LIG    1       -0.633  -0.695   0.787  0.00  0.00    +0.086 C 
ATOM      4  N   LIG    1       -0.101  -1.839   0.150  0.00  0.00    -0.302 NA
ATOM      5  C   LIG    1       -1.103  -2.713  -0.437  0.00  0.00    +0.086 C 
ATOM      6  C   LIG    1       -2.520  -2.322  -0.088  0.00  0.00    +0.040 C 
ENDROOT
BRANCH   1  18
ATOM      7  O   LIG    1       -4.886  -2.458   0.923  0.00  0.00    -0.247 OA
ATOM      8  C   LIG    1       -5.056  -1.259   0.521  0.00  0.00    +0.328 A 
ATOM      9  N   LIG    1       -6.202  -0.572   0.673  0.00  0.00    -0.306 N 
ATOM     10  H   LIG    1       -7.064  -0.961   1.140  0.00  0.00    +0.170 HD
ATOM     11  C   LIG    1       -6.010   0.633   0.134  0.00  0.00    +0.068 A 
ATOM     12  C   LIG    1       -6.855   1.712   0.018  0.00  0.00    +0.047 A 
ATOM     13  C   LIG    1       -6.383   2.839  -0.598  0.00  0.00    +0.043 A 
ATOM     14 CL   LIG    1       -7.436   4.235  -0.762  0.00  0.00    -0.083 Cl
ATOM     15  C   LIG    1       -5.101   2.903  -1.091  0.00  0.00    +0.022 A 
ATOM     16  C   LIG    1       -4.263   1.832  -0.977  0.00  0.00    +0.029 A 
ATOM     17  C   LIG    1       -4.722   0.675  -0.354  0.00  0.00    +0.070 A 
ATOM     18  N   LIG    1       -4.113  -0.527  -0.110  0.00  0.00    -0.289 N 
ENDBRANCH   1  18
BRANCH   4  19
ATOM     19  C   LIG    1        1.006  -1.644  -0.742  0.00  0.00    +0.086 C 
BRANCH  19  20
ATOM     20  C   LIG    1        2.207  -1.108  -0.015  0.00  0.00    +0.037 C 
BRANCH  20  21
ATOM     21  C   LIG    1        3.370  -0.926  -0.985  0.00  0.00    +0.128 C 
BRANCH  21  22
ATOM     22  N   LIG    1        4.585  -0.512  -0.373  0.00  0.00    -0.292 N 
ATOM     23  C   LIG    1        5.521  -1.421   0.054  0.00  0.00    +0.328 A 
ATOM     24  N   LIG    1        6.580  -0.801   0.580  0.00  0.00    -0.306 N 
ATOM     25  H   LIG    1        7.456  -1.195   0.988  0.00  0.00    +0.170 HD
ATOM     26  C   LIG    1        6.309   0.534   0.484  0.00  0.00    +0.067 A 
ATOM     27  C   LIG    1        7.006   1.654   0.850  0.00  0.00    +0.028 A 
ATOM     28  C   LIG    1        6.517   2.925   0.650  0.00  0.00    +0.002 A 
ATOM     29  C   LIG    1        5.275   3.065   0.056  0.00  0.00    +0.002 A 
ATOM     30  C   LIG    1        4.542   1.974  -0.327  0.00  0.00    +0.028 A 
ATOM     31  O   LIG    1        5.429  -2.663  -0.025  0.00  0.00    -0.247 OA
ATOM     32  C   LIG    1        5.063   0.702  -0.111  0.00  0.00    +0.070 A 
ENDBRANCH  21  22
ENDBRANCH  20  21
ENDBRANCH  19  20
ENDBRANCH   4  19
TORSDOF 5
