REMARK  Name = molecules/FHFYDNQZQSQIAI-UHFFFAOYSA-N.pdb
REMARK                            x       y       z     vdW  Elec       q    Type
REMARK                         _______ _______ _______ _____ _____    ______ ____
ROOT
ATOM      1  N   LIG    1       -2.797  -0.281   0.475  0.00  0.00    -0.346 N 
ATOM      2  C   LIG    1       -4.013  -0.180  -0.089  0.00  0.00    +0.105 A 
ATOM      3  C   LIG    1       -4.244   0.178  -1.391  0.00  0.00    +0.122 A 
ATOM      4  C   LIG    1       -3.174   0.459  -2.195  0.00  0.00    +0.203 A 
ATOM      5  C   LIG    1       -1.911   0.358  -1.622  0.00  0.00    +0.049 A 
ATOM      6  C   LIG    1       -0.813   0.636  -2.409  0.00  0.00    +0.054 A 
ATOM      7  C   LIG    1        0.475   0.561  -1.918  0.00  0.00    +0.145 A 
ATOM      8  C   LIG    1        0.644   0.193  -0.593  0.00  0.00    +0.067 A 
ATOM      9  C   LIG    1       -0.438  -0.093   0.226  0.00  0.00    +0.052 A 
ATOM     10  F   LIG    1        1.498   0.845  -2.762  0.00  0.00    -0.204 F 
ATOM     11  O   LIG    1       -3.324   0.795  -3.404  0.00  0.00    -0.286 OA
ATOM     12  C   LIG    1       -1.722  -0.006  -0.306  0.00  0.00    +0.055 A 
ENDROOT
BRANCH   8  13
ATOM     13  N   LIG    1        1.971   0.130  -0.088  0.00  0.00    -0.325 N 
ATOM     14  C   LIG    1        2.223  -0.410   1.234  0.00  0.00    +0.120 C 
ATOM     15  C   LIG    1        3.531  -1.187   1.156  0.00  0.00    +0.103 C 
ATOM     16  N   LIG    1        4.653  -0.356   0.845  0.00  0.00    -0.302 NA
ATOM     17  C   LIG    1        5.721  -1.167   0.321  0.00  0.00    +0.105 C 
ATOM     18  C   LIG    1        4.333   0.785   0.052  0.00  0.00    +0.103 C 
ATOM     19  C   LIG    1        3.113   0.599  -0.828  0.00  0.00    +0.120 C 
ENDBRANCH   8  13
BRANCH   1  20
ATOM     20  C   LIG    1       -2.691  -0.666   1.843  0.00  0.00    +0.118 C 
ATOM     21  C   LIG    1       -2.712   0.557   2.764  0.00  0.00    +0.027 C 
ENDBRANCH   1  20
BRANCH   3  22
ATOM     22  C   LIG    1       -5.608   0.260  -1.915  0.00  0.00    +0.342 C 
ATOM     23  O   LIG    1       -5.841   0.586  -3.100  0.00  0.00    -0.245 OA
BRANCH  22  24
ATOM     24  O   LIG    1       -6.688  -0.027  -1.092  0.00  0.00    -0.477 OA
ATOM     25  H   LIG    1       -6.699  -0.806  -0.446  0.00  0.00    +0.295 HD
ENDBRANCH  22  24
ENDBRANCH   3  22
TORSDOF 4
