REMARK  Name = molecules/FHGJSJFIQNQBCK-UHFFFAOYSA-N.pdb
REMARK                            x       y       z     vdW  Elec       q    Type
REMARK                         _______ _______ _______ _____ _____    ______ ____
ROOT
ATOM      1  C   LIG    1        0.231   0.290  -0.362  0.00  0.00    -0.002 A 
ATOM      2  C   LIG    1       -0.327   1.571  -0.172  0.00  0.00    +0.011 A 
ATOM      3  C   LIG    1       -1.613   1.799   0.158  0.00  0.00    +0.046 A 
ATOM      4  C   LIG    1       -2.459   0.734   0.327  0.00  0.00    +0.128 A 
ATOM      5  C   LIG    1       -1.999  -0.551   0.160  0.00  0.00    +0.024 A 
ATOM      6  C   LIG    1       -2.856  -1.632   0.316  0.00  0.00    +0.012 A 
ATOM      7  C   LIG    1       -2.406  -2.919   0.136  0.00  0.00    +0.001 A 
ATOM      8  C   LIG    1       -1.098  -3.095  -0.200  0.00  0.00    +0.001 A 
ATOM      9  C   LIG    1       -0.199  -2.041  -0.367  0.00  0.00    +0.009 A 
ATOM     10  C   LIG    1       -0.652  -0.755  -0.185  0.00  0.00    -0.008 A 
ENDROOT
BRANCH   1  11
ATOM     11  C   LIG    1        1.637   0.212  -0.644  0.00  0.00    +0.166 C 
ATOM     12  O   LIG    1        2.129   1.310  -1.173  0.00  0.00    -0.219 OA
BRANCH  11  13
ATOM     13  C   LIG    1        2.634  -0.819  -0.459  0.00  0.00    +0.057 C 
BRANCH  13  14
ATOM     14  C   LIG    1        4.070  -0.220  -0.589  0.00  0.00    +0.124 C 
BRANCH  14  15
ATOM     15  C   LIG    1        4.269   0.825   0.432  0.00  0.00    +0.305 C 
ATOM     16  O   LIG    1        3.346   1.088   1.221  0.00  0.00    -0.251 OA
BRANCH  15  17
ATOM     17  O   LIG    1        5.471   1.487   0.495  0.00  0.00    -0.481 OA
ATOM     18  H   LIG    1        5.905   1.992  -0.253  0.00  0.00    +0.295 HD
ENDBRANCH  15  17
ENDBRANCH  14  15
ENDBRANCH  13  14
ENDBRANCH  11  13
ENDBRANCH   1  11
BRANCH   4  19
ATOM     19  O   LIG    1       -3.806   0.926   0.672  0.00  0.00    -0.495 OA
ATOM     20  C   LIG    1       -4.366   2.203   0.864  0.00  0.00    +0.277 C 
ENDBRANCH   4  19
TORSDOF 6
