REMARK  Name = molecules/FIAFUQMPZJWCLV-UHFFFAOYSA-N.pdb
REMARK                            x       y       z     vdW  Elec       q    Type
REMARK                         _______ _______ _______ _____ _____    ______ ____
ROOT
ATOM      1  N   LIG    1        1.264   3.164   0.751  0.00  0.00    -0.269 N 
ATOM      2  C   LIG    1       -0.039   3.190   0.627  0.00  0.00    +0.308 C 
ATOM      3  N   LIG    1       -0.651   2.599   1.925  0.00  0.00    -0.269 N 
ATOM      4  H   LIG    1        0.031   2.285   2.582  0.00  0.00    +0.156 HD
ATOM      5  O   LIG    1       -0.884   3.531  -0.154  0.00  0.00    -0.252 OA
ATOM      6  H   LIG    1        1.436   3.680  -0.540  0.00  0.00    +0.156 HD
ENDROOT
BRANCH   3   7
ATOM      7  C   LIG    1       -2.051   2.586   1.994  0.00  0.00    +0.035 A 
ATOM      8  C   LIG    1       -2.607   3.835   2.453  0.00  0.00    +0.023 A 
ATOM      9  C   LIG    1       -3.954   3.970   2.569  0.00  0.00    +0.003 A 
ATOM     10  C   LIG    1       -4.796   2.934   2.235  0.00  0.00    +0.013 A 
ATOM     11  C   LIG    1       -4.250   1.728   1.795  0.00  0.00    +0.039 A 
ATOM     12  C   LIG    1       -2.906   1.564   1.666  0.00  0.00    +0.036 A 
BRANCH  11  13
ATOM     13  C   LIG    1       -5.194   0.761   1.141  0.00  0.00    +0.248 C 
ATOM     14  O   LIG    1       -5.252  -0.400   1.544  0.00  0.00    -0.270 OA
ATOM     15  N   LIG    1       -5.884   1.409   0.097  0.00  0.00    -0.281 N 
ATOM     16  H   LIG    1       -5.622   2.474   0.089  0.00  0.00    +0.155 HD
BRANCH  15  17
ATOM     17  C   LIG    1       -6.804   1.052  -0.853  0.00  0.00    +0.037 A 
ATOM     18  C   LIG    1       -7.465  -0.195  -0.936  0.00  0.00    +0.036 A 
ATOM     19  C   LIG    1       -8.289  -0.454  -1.943  0.00  0.00    +0.039 A 
ATOM     20  C   LIG    1       -8.498   0.543  -2.948  0.00  0.00    +0.013 A 
ATOM     21  C   LIG    1       -7.902   1.740  -2.875  0.00  0.00    +0.006 A 
ATOM     22  C   LIG    1       -7.046   2.029  -1.841  0.00  0.00    -0.029 A 
ATOM     23  C   LIG    1       -6.438   3.376  -1.792  0.00  0.00    +0.045 C 
BRANCH  19  24
ATOM     24  C   LIG    1       -9.351  -1.480  -2.140  0.00  0.00    +0.248 C 
ATOM     25  N   LIG    1      -10.444  -1.241  -1.278  0.00  0.00    -0.281 N 
ATOM     26  H   LIG    1      -10.355  -0.493  -0.614  0.00  0.00    +0.155 HD
ATOM     27  O   LIG    1       -9.183  -2.319  -3.007  0.00  0.00    -0.270 OA
BRANCH  25  28
ATOM     28  C   LIG    1      -11.643  -1.955  -1.399  0.00  0.00    +0.043 A 
ATOM     29  C   LIG    1      -12.566  -2.030  -0.383  0.00  0.00    +0.033 A 
ATOM     30  C   LIG    1      -12.160  -1.794   0.928  0.00  0.00    +0.128 A 
ATOM     31  C   LIG    1      -13.202  -1.945   1.893  0.00  0.00    +0.059 A 
ATOM     32  C   LIG    1      -14.466  -2.281   1.614  0.00  0.00    +0.119 A 
ATOM     33  C   LIG    1      -14.838  -2.513   0.304  0.00  0.00    +0.040 A 
ATOM     34  C   LIG    1      -13.890  -2.388  -0.673  0.00  0.00    +0.015 A 
ATOM     35  C   LIG    1      -14.271  -2.667  -1.981  0.00  0.00    +0.125 A 
ATOM     36  C   LIG    1      -13.357  -2.594  -2.977  0.00  0.00    +0.032 A 
ATOM     37  C   LIG    1      -12.066  -2.243  -2.706  0.00  0.00    +0.026 A 
BRANCH  32  38
ATOM     38  S   LIG    1      -15.695  -2.433   2.826  0.00  0.00    +0.110 S 
ATOM     39  O   LIG    1      -15.072  -3.246   3.965  0.00  0.00    -0.142 OA
ATOM     40  O   LIG    1      -16.932  -3.092   2.333  0.00  0.00    -0.142 OA
BRANCH  38  41
ATOM     41  O   LIG    1      -16.068  -0.869   3.479  0.00  0.00    -0.250 OA
ATOM     42  H   LIG    1      -15.897  -0.942   4.489  0.00  0.00    +0.245 HD
ENDBRANCH  38  41
ENDBRANCH  32  38
BRANCH  30  43
ATOM     43  S   LIG    1      -10.575  -1.355   1.391  0.00  0.00    +0.110 S 
ATOM     44  O   LIG    1      -10.574  -1.653   2.942  0.00  0.00    -0.142 OA
ATOM     45  O   LIG    1      -10.244   0.068   1.528  0.00  0.00    -0.142 OA
BRANCH  43  46
ATOM     46  O   LIG    1       -9.317  -2.348   0.947  0.00  0.00    -0.250 OA
ATOM     47  H   LIG    1       -8.985  -2.950   1.708  0.00  0.00    +0.245 HD
ENDBRANCH  43  46
ENDBRANCH  30  43
BRANCH  35  48
ATOM     48  S   LIG    1      -15.973  -3.049  -2.349  0.00  0.00    +0.110 S 
ATOM     49  O   LIG    1      -16.375  -4.285  -1.530  0.00  0.00    -0.142 OA
ATOM     50  O   LIG    1      -16.758  -1.878  -1.902  0.00  0.00    -0.142 OA
BRANCH  48  51
ATOM     51  O   LIG    1      -16.131  -3.394  -3.977  0.00  0.00    -0.250 OA
ATOM     52  H   LIG    1      -15.329  -3.737  -4.379  0.00  0.00    +0.245 HD
ENDBRANCH  48  51
ENDBRANCH  35  48
ENDBRANCH  25  28
ENDBRANCH  19  24
ENDBRANCH  15  17
ENDBRANCH  11  13
ENDBRANCH   3   7
BRANCH   1  57
ATOM     53  C   LIG    1        4.895   3.890   0.898  0.00  0.00    +0.039 A 
ATOM     54  C   LIG    1        5.148   3.058   2.011  0.00  0.00    +0.013 A 
ATOM     55  C   LIG    1        4.181   2.263   2.542  0.00  0.00    +0.003 A 
ATOM     56  C   LIG    1        2.933   2.289   1.979  0.00  0.00    +0.023 A 
ATOM     57  C   LIG    1        2.653   3.157   0.844  0.00  0.00    +0.035 A 
ATOM     58  C   LIG    1        3.706   3.949   0.349  0.00  0.00    +0.036 A 
BRANCH  53  60
ATOM     59  N   LIG    1        6.447   3.058  -0.464  0.00  0.00    -0.281 N 
ATOM     60  C   LIG    1        6.264   4.284   0.297  0.00  0.00    +0.248 C 
ATOM     61  O   LIG    1        6.770   5.242   0.603  0.00  0.00    -0.270 OA
ATOM     62  H   LIG    1        7.810   3.544  -0.440  0.00  0.00    +0.155 HD
BRANCH  59  65
ATOM     63  C   LIG    1        7.891  -0.172  -1.109  0.00  0.00    +0.039 A 
ATOM     64  C   LIG    1        7.761   1.044  -0.549  0.00  0.00    +0.036 A 
ATOM     65  C   LIG    1        6.936   2.040  -1.132  0.00  0.00    +0.037 A 
ATOM     66  C   LIG    1        6.275   1.696  -2.358  0.00  0.00    -0.029 A 
ATOM     67  C   LIG    1        6.428   0.446  -2.879  0.00  0.00    +0.006 A 
ATOM     68  C   LIG    1        5.540   2.758  -3.134  0.00  0.00    +0.045 C 
ATOM     69  C   LIG    1        7.210  -0.472  -2.292  0.00  0.00    +0.013 A 
BRANCH  63  72
ATOM     70  N   LIG    1       10.153  -0.539   0.003  0.00  0.00    -0.281 N 
ATOM     71  H   LIG    1       10.046   0.206   0.587  0.00  0.00    +0.155 HD
ATOM     72  C   LIG    1        9.060  -1.016  -0.832  0.00  0.00    +0.248 C 
ATOM     73  O   LIG    1        9.092  -2.113  -1.376  0.00  0.00    -0.270 OA
BRANCH  70  74
ATOM     74  C   LIG    1       11.281  -1.335  -0.312  0.00  0.00    +0.043 A 
ATOM     75  C   LIG    1       12.385  -1.644   0.381  0.00  0.00    +0.033 A 
ATOM     76  C   LIG    1       12.351  -1.563   1.723  0.00  0.00    +0.128 A 
ATOM     77  C   LIG    1       13.606  -1.854   2.366  0.00  0.00    +0.059 A 
ATOM     78  C   LIG    1       14.714  -2.169   1.668  0.00  0.00    +0.119 A 
ATOM     79  C   LIG    1       14.692  -2.248   0.353  0.00  0.00    +0.040 A 
ATOM     80  C   LIG    1       13.556  -2.000  -0.367  0.00  0.00    +0.015 A 
ATOM     81  C   LIG    1       13.605  -2.045  -1.733  0.00  0.00    +0.125 A 
ATOM     82  C   LIG    1       12.463  -1.733  -2.442  0.00  0.00    +0.032 A 
ATOM     83  C   LIG    1       11.348  -1.396  -1.778  0.00  0.00    +0.026 A 
BRANCH  81  84
ATOM     84  S   LIG    1       15.037  -2.478  -2.626  0.00  0.00    +0.110 S 
ATOM     85  O   LIG    1       16.080  -1.430  -2.401  0.00  0.00    -0.142 OA
ATOM     86  O   LIG    1       14.666  -2.427  -4.106  0.00  0.00    -0.142 OA
BRANCH  84  87
ATOM     87  O   LIG    1       15.527  -4.017  -2.253  0.00  0.00    -0.250 OA
ATOM     88  H   LIG    1       15.323  -4.592  -3.058  0.00  0.00    +0.245 HD
ENDBRANCH  84  87
ENDBRANCH  81  84
BRANCH  78  89
ATOM     89  S   LIG    1       16.301  -2.180   2.501  0.00  0.00    +0.110 S 
ATOM     90  O   LIG    1       16.166  -1.484   3.774  0.00  0.00    -0.142 OA
ATOM     91  O   LIG    1       17.236  -1.312   1.596  0.00  0.00    -0.142 OA
BRANCH  89  92
ATOM     92  O   LIG    1       16.972  -3.676   2.485  0.00  0.00    -0.250 OA
ATOM     93  H   LIG    1       16.483  -4.420   2.904  0.00  0.00    +0.245 HD
ENDBRANCH  89  92
ENDBRANCH  78  89
BRANCH  76  94
ATOM     94  S   LIG    1       10.963  -1.078   2.591  0.00  0.00    +0.110 S 
ATOM     95  O   LIG    1       11.056   0.357   3.048  0.00  0.00    -0.142 OA
ATOM     96  O   LIG    1        9.651  -1.605   2.288  0.00  0.00    -0.142 OA
BRANCH  94  97
ATOM     97  O   LIG    1       11.262  -1.883   4.141  0.00  0.00    -0.250 OA
ATOM     98  H   LIG    1       11.615  -2.814   3.901  0.00  0.00    +0.245 HD
ENDBRANCH  94  97
ENDBRANCH  76  94
ENDBRANCH  70  74
ENDBRANCH  63  72
ENDBRANCH  59  65
ENDBRANCH  53  60
ENDBRANCH   1  57
TORSDOF 22
