REMARK  Name = molecules/FIHJKUPKCHIPAT-AHIGJZGOSA-N.pdb
REMARK                            x       y       z     vdW  Elec       q    Type
REMARK                         _______ _______ _______ _____ _____    ______ ____
ROOT
ATOM      1  C   LIG    1        1.009   1.651  -0.698  0.00  0.00    +0.014 C 
ATOM      2  C   LIG    1        0.937   0.243  -1.132  0.00  0.00    +0.061 C 
ATOM      3  C   LIG    1        1.466  -0.639  -0.025  0.00  0.00    +0.316 C 
ATOM      4  O   LIG    1        0.530  -1.672   0.121  0.00  0.00    -0.309 OA
ATOM      5  C   LIG    1       -0.640  -1.029   0.595  0.00  0.00    +0.293 C 
ATOM      6  O   LIG    1       -1.337  -2.040   1.268  0.00  0.00    -0.314 OA
ATOM      7  C   LIG    1       -2.698  -1.810   1.130  0.00  0.00    +0.203 C 
ATOM      8  C   LIG    1       -3.404  -2.945   1.869  0.00  0.00    +0.077 C 
ATOM      9  C   LIG    1       -3.026  -0.542   1.846  0.00  0.00    +0.068 C 
ATOM     10  C   LIG    1       -2.614   0.704   1.127  0.00  0.00    +0.012 C 
ATOM     11  C   LIG    1       -2.481   0.387  -0.373  0.00  0.00    +0.032 C 
ATOM     12  C   LIG    1       -2.450   1.687  -1.141  0.00  0.00    -0.008 C 
ATOM     13  C   LIG    1       -3.818   2.332  -1.210  0.00  0.00    +0.008 C 
ATOM     14  C   LIG    1       -2.050   1.457  -2.565  0.00  0.00    +0.004 C 
ATOM     15  C   LIG    1       -0.825   0.666  -2.786  0.00  0.00    +0.007 C 
ATOM     16  O   LIG    1       -3.091  -1.864  -0.182  0.00  0.00    -0.199 OA
ATOM     17  O   LIG    1       -2.056  -1.794  -1.025  0.00  0.00    -0.220 OA
ATOM     18  C   LIG    1       -1.407  -0.576  -0.661  0.00  0.00    +0.161 C 
ATOM     19  C   LIG    1       -0.385  -0.217  -1.675  0.00  0.00    +0.038 C 
ENDROOT
BRANCH   3  20
ATOM     20  O   LIG    1        2.756  -1.107  -0.249  0.00  0.00    -0.435 OA
BRANCH  20  21
ATOM     21  C   LIG    1        3.778  -0.864   0.651  0.00  0.00    +0.310 C 
ATOM     22  O   LIG    1        3.461  -0.190   1.685  0.00  0.00    -0.251 OA
BRANCH  21  23
ATOM     23  C   LIG    1        5.167  -1.357   0.432  0.00  0.00    +0.132 C 
BRANCH  23  24
ATOM     24  C   LIG    1        6.018  -0.902   1.603  0.00  0.00    +0.131 C 
BRANCH  24  25
ATOM     25  C   LIG    1        6.056   0.571   1.734  0.00  0.00    +0.305 C 
ATOM     26  O   LIG    1        6.713   1.057   2.675  0.00  0.00    -0.251 OA
BRANCH  25  27
ATOM     27  O   LIG    1        5.393   1.387   0.858  0.00  0.00    -0.481 OA
ATOM     28  H   LIG    1        5.852   2.003   0.218  0.00  0.00    +0.295 HD
ENDBRANCH  25  27
ENDBRANCH  24  25
ENDBRANCH  23  24
ENDBRANCH  21  23
ENDBRANCH  20  21
ENDBRANCH   3  20
TORSDOF 6
