REMARK  Name = molecules/FJCFFCXMEXZEIM-UHFFFAOYSA-N.pdb
REMARK                            x       y       z     vdW  Elec       q    Type
REMARK                         _______ _______ _______ _____ _____    ______ ____
ROOT
ATOM      1  O   LIG    1       -1.826   2.312  -0.771  0.00  0.00    -0.081 OA
ATOM      2  N   LIG    1       -1.282   1.115  -0.374  0.00  0.00    -0.202 N 
ATOM      3  C   LIG    1       -2.117   0.147   0.039  0.00  0.00    +0.116 C 
ATOM      4  C   LIG    1       -1.532  -1.050   0.433  0.00  0.00    +0.003 C 
ATOM      5  C   LIG    1       -0.176  -1.262   0.413  0.00  0.00    +0.063 C 
ATOM      6  C   LIG    1        0.655  -0.248  -0.016  0.00  0.00    +0.063 C 
ATOM      7  C   LIG    1        0.051   0.929  -0.401  0.00  0.00    +0.131 C 
ENDROOT
BRANCH   6   8
ATOM      8  C   LIG    1        2.115  -0.431  -0.054  0.00  0.00    +0.335 C 
ATOM      9  O   LIG    1        2.639  -1.507   0.300  0.00  0.00    -0.245 OA
BRANCH   8  10
ATOM     10  O   LIG    1        2.930   0.602  -0.489  0.00  0.00    -0.477 OA
ATOM     11  H   LIG    1        3.033   1.438   0.092  0.00  0.00    +0.295 HD
ENDBRANCH   8  10
ENDBRANCH   6   8
TORSDOF 2
