REMARK  Name = molecules/FJIKWRGCXUCUIG-HNNXBMFYSA-N.pdb
REMARK                            x       y       z     vdW  Elec       q    Type
REMARK                         _______ _______ _______ _____ _____    ______ ____
ROOT
ATOM      1  C   LIG    1       -3.409   0.592   1.583  0.00  0.00    +0.138 C 
ATOM      2  N   LIG    1       -2.359   0.796   0.663  0.00  0.00    -0.270 N 
ATOM      3  C   LIG    1       -1.941   2.111   0.247  0.00  0.00    +0.271 C 
ATOM      4  O   LIG    1       -2.592   3.041   0.738  0.00  0.00    -0.270 OA
ATOM      5  C   LIG    1       -0.849   2.506  -0.678  0.00  0.00    +0.320 C 
ATOM      6  N   LIG    1        0.371   1.777  -0.440  0.00  0.00    -0.243 NA
ATOM      7  C   LIG    1        0.609   0.499  -0.273  0.00  0.00    +0.079 C 
ATOM      8  C   LIG    1       -0.439  -0.475  -0.318  0.00  0.00    +0.023 A 
ATOM      9  C   LIG    1       -0.041  -1.663  -0.900  0.00  0.00    +0.032 A 
ATOM     10  C   LIG    1       -0.930  -2.712  -0.982  0.00  0.00    +0.042 A 
ATOM     11  C   LIG    1       -2.232  -2.625  -0.499  0.00  0.00    +0.022 A 
ATOM     12  C   LIG    1       -2.650  -1.445   0.080  0.00  0.00    +0.025 A 
ATOM     13 CL   LIG    1       -0.402  -4.206  -1.712  0.00  0.00    -0.084 Cl
ATOM     14  C   LIG    1       -1.753  -0.413   0.153  0.00  0.00    +0.045 A 
ENDROOT
BRANCH   7  15
ATOM     15  C   LIG    1        1.950   0.068  -0.062  0.00  0.00    +0.019 A 
ATOM     16  C   LIG    1        2.369  -1.130   0.410  0.00  0.00    +0.011 A 
ATOM     17  C   LIG    1        3.721  -1.403   0.715  0.00  0.00    +0.001 A 
ATOM     18  C   LIG    1        4.674  -0.435   0.540  0.00  0.00    +0.001 A 
ATOM     19  C   LIG    1        4.279   0.796   0.064  0.00  0.00    +0.020 A 
ATOM     20  C   LIG    1        2.956   1.030  -0.225  0.00  0.00    +0.050 A 
ATOM     21 CL   LIG    1        2.520   2.609  -0.825  0.00  0.00    -0.083 Cl
ENDBRANCH   7  15
BRANCH   5  22
ATOM     22  O   LIG    1       -1.255   2.261  -1.980  0.00  0.00    -0.364 OA
ATOM     23  H   LIG    1       -1.650   3.069  -2.414  0.00  0.00    +0.212 HD
ENDBRANCH   5  22
TORSDOF 2
