REMARK  Name = molecules/FJLBFSROUSIWMA-UHFFFAOYSA-N.pdb
REMARK                            x       y       z     vdW  Elec       q    Type
REMARK                         _______ _______ _______ _____ _____    ______ ____
ROOT
ATOM      1  C   LIG    1       -0.521  -1.167  -0.455  0.00  0.00    +0.031 C 
ATOM      2  C   LIG    1       -0.454  -2.141   0.687  0.00  0.00    +0.019 C 
ATOM      3  C   LIG    1       -1.255  -1.935  -1.581  0.00  0.00    +0.019 C 
ENDROOT
BRANCH   1   4
ATOM      4  C   LIG    1       -1.403  -0.007  -0.187  0.00  0.00    -0.020 A 
ATOM      5  C   LIG    1       -2.191   0.091   0.938  0.00  0.00    +0.007 A 
ATOM      6  C   LIG    1       -3.007   1.200   1.160  0.00  0.00    +0.020 A 
ATOM      7  C   LIG    1       -2.996   2.189   0.214  0.00  0.00    +0.111 A 
ATOM      8  N   LIG    1       -2.228   2.116  -0.902  0.00  0.00    -0.263 NA
ATOM      9  C   LIG    1       -1.450   1.035  -1.091  0.00  0.00    +0.115 A 
ENDBRANCH   1   4
BRANCH   1  10
ATOM     10  C   LIG    1        0.797  -0.785  -0.971  0.00  0.00    +0.176 C 
ATOM     11  O   LIG    1        1.168  -1.223  -2.121  0.00  0.00    -0.218 OA
BRANCH  10  12
ATOM     12  C   LIG    1        1.757   0.072  -0.282  0.00  0.00    +0.009 A 
ATOM     13  C   LIG    1        1.544   0.640   0.955  0.00  0.00    +0.117 A 
ATOM     14  N   LIG    1        2.475   1.426   1.538  0.00  0.00    -0.263 NA
ATOM     15  C   LIG    1        3.660   1.720   0.986  0.00  0.00    +0.111 A 
ATOM     16  C   LIG    1        3.922   1.179  -0.246  0.00  0.00    +0.020 A 
ATOM     17  C   LIG    1        2.991   0.376  -0.862  0.00  0.00    +0.009 A 
ENDBRANCH  10  12
ENDBRANCH   1  10
TORSDOF 3
