REMARK  Name = molecules/FJVAAURIDNIYAE-BJMVGYQFSA-N.pdb
REMARK                            x       y       z     vdW  Elec       q    Type
REMARK                         _______ _______ _______ _____ _____    ______ ____
ROOT
ATOM      1  C   LIG    1        0.574  -0.249   0.395  0.00  0.00    +0.177 C 
ATOM      2  N   LIG    1       -0.269  -0.565  -0.532  0.00  0.00    -0.181 NA
ENDROOT
BRANCH   2   3
ATOM      3  N   LIG    1       -1.609  -0.762  -0.118  0.00  0.00    -0.175 N 
ATOM      4  C   LIG    1       -2.230  -1.970  -0.470  0.00  0.00    +0.319 C 
ATOM      5  N   LIG    1       -3.571  -2.209  -0.068  0.00  0.00    -0.312 N 
ATOM      6  H   LIG    1       -4.194  -1.393   0.075  0.00  0.00    +0.147 HD
ATOM      7  H   LIG    1       -3.894  -3.200   0.073  0.00  0.00    +0.147 HD
ATOM      8  O   LIG    1       -1.647  -2.861  -1.130  0.00  0.00    -0.251 OA
BRANCH   3   9
ATOM      9  C   LIG    1       -2.248   0.280   0.627  0.00  0.00    +0.164 C 
BRANCH   9  10
ATOM     10  C   LIG    1       -2.954   1.287  -0.252  0.00  0.00    +0.177 C 
BRANCH  10  11
ATOM     11  O   LIG    1       -3.532   2.241   0.583  0.00  0.00    -0.393 OA
ATOM     12  H   LIG    1       -3.213   3.132   0.362  0.00  0.00    +0.209 HD
ENDBRANCH  10  11
ENDBRANCH   9  10
ENDBRANCH   3   9
ENDBRANCH   2   3
BRANCH   1  13
ATOM     13  C   LIG    1        1.974  -0.028   0.061  0.00  0.00    +0.150 A 
ATOM     14  O   LIG    1        2.934   0.298   0.909  0.00  0.00    -0.433 OA
ATOM     15  C   LIG    1        4.084   0.427   0.305  0.00  0.00    +0.280 A 
ATOM     16  C   LIG    1        3.861   0.166  -1.039  0.00  0.00    +0.076 A 
ATOM     17  C   LIG    1        2.523  -0.124  -1.204  0.00  0.00    +0.053 A 
BRANCH  15  18
ATOM     18  N   LIG    1        5.341   0.772   0.907  0.00  0.00    +0.093 N 
ATOM     19  O   LIG    1        5.379   0.998   2.261  0.00  0.00    -0.123 OA
ATOM     20  O   LIG    1        6.373   0.866   0.233  0.00  0.00    -0.123 OA
ENDBRANCH  15  18
ENDBRANCH   1  13
TORSDOF 6
