REMARK  Name = molecules/FJYJNLIEGUTPIJ-UHFFFAOYSA-N.pdb
REMARK                            x       y       z     vdW  Elec       q    Type
REMARK                         _______ _______ _______ _____ _____    ______ ____
ROOT
ATOM      1  C   LIG    1        0.578  -0.394   1.041  0.00  0.00    +0.253 C 
ATOM      2  O   LIG    1        0.792  -1.242   1.978  0.00  0.00    -0.270 OA
ATOM      3  N   LIG    1       -0.721  -0.209   0.506  0.00  0.00    -0.267 N 
ENDROOT
BRANCH   1   4
ATOM      4  C   LIG    1        1.771   0.323   0.616  0.00  0.00    +0.065 A 
ATOM      5  C   LIG    1        2.087   1.534   1.163  0.00  0.00    +0.028 A 
ATOM      6  I   LIG    1        0.926   2.395   2.724  0.00  0.00    -0.043 I 
ATOM      7  C   LIG    1        3.198   2.204   0.705  0.00  0.00    +0.031 A 
ATOM      8  C   LIG    1        3.970   1.630  -0.303  0.00  0.00    +0.036 A 
ATOM      9  C   LIG    1        3.633   0.398  -0.845  0.00  0.00    +0.052 A 
ATOM     10  I   LIG    1        5.669   2.608  -1.042  0.00  0.00    -0.042 I 
ATOM     11  C   LIG    1        2.525  -0.281  -0.393  0.00  0.00    +0.048 A 
ATOM     12  I   LIG    1        2.074  -2.175  -1.188  0.00  0.00    -0.041 I 
BRANCH   9  13
ATOM     13  N   LIG    1        4.435  -0.168  -1.870  0.00  0.00    -0.356 N 
ATOM     14  H   LIG    1        5.346   0.252  -2.156  0.00  0.00    +0.142 HD
ATOM     15  H   LIG    1        4.128  -1.030  -2.370  0.00  0.00    +0.142 HD
ENDBRANCH   9  13
ENDBRANCH   1   4
BRANCH   3  16
ATOM     16  C   LIG    1       -1.766  -1.080   0.998  0.00  0.00    +0.037 A 
ATOM     17  C   LIG    1       -2.160  -0.933   2.310  0.00  0.00    +0.023 A 
ATOM     18  C   LIG    1       -3.160  -1.748   2.831  0.00  0.00    +0.002 A 
ATOM     19  C   LIG    1       -3.764  -2.715   2.030  0.00  0.00    +0.000 A 
ATOM     20  C   LIG    1       -3.342  -2.830   0.726  0.00  0.00    +0.002 A 
ATOM     21  C   LIG    1       -2.354  -2.030   0.195  0.00  0.00    +0.023 A 
ENDBRANCH   3  16
BRANCH   3  22
ATOM     22  C   LIG    1       -0.986   0.818  -0.452  0.00  0.00    +0.125 C 
BRANCH  22  23
ATOM     23  C   LIG    1       -0.830   0.457  -1.888  0.00  0.00    +0.140 C 
BRANCH  23  24
ATOM     24  C   LIG    1       -1.184   1.705  -2.674  0.00  0.00    +0.306 C 
ATOM     25  O   LIG    1       -1.151   1.690  -3.936  0.00  0.00    -0.251 OA
BRANCH  24  26
ATOM     26  O   LIG    1       -1.548   2.888  -2.074  0.00  0.00    -0.481 OA
ATOM     27  H   LIG    1       -2.310   2.984  -1.425  0.00  0.00    +0.295 HD
ENDBRANCH  24  26
ENDBRANCH  23  24
ENDBRANCH  22  23
ENDBRANCH   3  22
TORSDOF 7
