REMARK  Name = molecules/FKKUMFTYSTZUJG-UHFFFAOYSA-N.pdb
REMARK                            x       y       z     vdW  Elec       q    Type
REMARK                         _______ _______ _______ _____ _____    ______ ____
ROOT
ATOM      1  C   LIG    1       -0.016  -0.946   1.106  0.00  0.00    +0.094 A 
ATOM      2  C   LIG    1       -0.531   0.047   1.915  0.00  0.00    +0.029 A 
ATOM      3  C   LIG    1       -1.786   0.543   1.623  0.00  0.00    +0.025 A 
ATOM      4  C   LIG    1       -2.544   0.095   0.566  0.00  0.00    +0.028 A 
ATOM      5  C   LIG    1       -2.021  -0.895  -0.234  0.00  0.00    +0.025 A 
ATOM      6  C   LIG    1       -0.752  -1.420   0.034  0.00  0.00    +0.029 A 
ENDROOT
BRANCH   1   7
ATOM      7  S   LIG    1        1.576  -1.562   1.493  0.00  0.00    +0.025 S 
ATOM      8  O   LIG    1        1.779  -1.446   2.978  0.00  0.00    -0.164 OA
ATOM      9  O   LIG    1        1.682  -2.993   1.051  0.00  0.00    -0.164 OA
BRANCH   7  10
ATOM     10  C   LIG    1        2.814  -0.647   0.668  0.00  0.00    +0.094 A 
ATOM     11  C   LIG    1        3.385   0.470   1.248  0.00  0.00    +0.029 A 
ATOM     12  C   LIG    1        4.353   1.128   0.525  0.00  0.00    +0.024 A 
ATOM     13  C   LIG    1        4.769   0.735  -0.723  0.00  0.00    +0.025 A 
ATOM     14  C   LIG    1        4.180  -0.383  -1.273  0.00  0.00    +0.024 A 
ATOM     15  C   LIG    1        3.209  -1.069  -0.583  0.00  0.00    +0.029 A 
BRANCH  13  16
ATOM     16  N   LIG    1        5.788   1.470  -1.426  0.00  0.00    -0.358 N 
ATOM     17  H   LIG    1        5.951   2.481  -1.250  0.00  0.00    +0.142 HD
ATOM     18  H   LIG    1        6.367   0.966  -2.123  0.00  0.00    +0.142 HD
ENDBRANCH  13  16
ENDBRANCH   7  10
ENDBRANCH   1   7
BRANCH   4  19
ATOM     19  N   LIG    1       -3.853   0.647   0.303  0.00  0.00    -0.334 N 
ATOM     20  H   LIG    1       -4.245   1.398   0.912  0.00  0.00    +0.147 HD
BRANCH  19  21
ATOM     21  C   LIG    1       -4.654   0.184  -0.802  0.00  0.00    +0.222 C 
BRANCH  21  22
ATOM     22  C   LIG    1       -5.925   0.921  -0.821  0.00  0.00    +0.322 C 
ATOM     23  O   LIG    1       -6.155   1.790   0.040  0.00  0.00    -0.249 OA
BRANCH  22  24
ATOM     24  O   LIG    1       -6.868   0.658  -1.789  0.00  0.00    -0.480 OA
ATOM     25  H   LIG    1       -7.597  -0.038  -1.714  0.00  0.00    +0.295 HD
ENDBRANCH  22  24
ENDBRANCH  21  22
ENDBRANCH  19  21
ENDBRANCH   4  19
TORSDOF 7
