REMARK  Name = molecules/FLGCRGJDQJIJAW-INIZCTEOSA-N.pdb
REMARK                            x       y       z     vdW  Elec       q    Type
REMARK                         _______ _______ _______ _____ _____    ______ ____
ROOT
ATOM      1  N   LIG    1        1.212   1.303   0.357  0.00  0.00    -0.313 N 
ATOM      2  C   LIG    1        2.175   0.368   0.825  0.00  0.00    +0.116 C 
ATOM      3  C   LIG    1        3.268   0.709   1.589  0.00  0.00    +0.021 C 
ATOM      4  S   LIG    1        3.556   2.384   2.052  0.00  0.00    -0.089 S 
ATOM      5  C   LIG    1        2.224   3.346   1.355  0.00  0.00    +0.034 A 
ATOM      6  C   LIG    1        2.269   4.697   1.604  0.00  0.00    +0.017 A 
ATOM      7  C   LIG    1        1.276   5.495   1.085  0.00  0.00    +0.001 A 
ATOM      8  C   LIG    1        0.273   4.909   0.334  0.00  0.00    +0.002 A 
ATOM      9  C   LIG    1        0.261   3.550   0.105  0.00  0.00    +0.024 A 
ATOM     10  C   LIG    1        4.149  -0.224   2.016  0.00  0.00    +0.015 C 
ATOM     11  C   LIG    1        4.011  -1.578   1.716  0.00  0.00    +0.027 C 
ATOM     12  C   LIG    1        2.933  -1.959   0.957  0.00  0.00    +0.086 C 
ATOM     13  C   LIG    1        2.045  -0.999   0.529  0.00  0.00    +0.033 C 
ATOM     14  C   LIG    1        1.253   2.710   0.618  0.00  0.00    +0.045 A 
ENDROOT
BRANCH  12  15
ATOM     15  S   LIG    1        2.702  -3.660   0.542  0.00  0.00    -0.006 S 
ATOM     16  O   LIG    1        3.224  -4.500   1.655  0.00  0.00    -0.170 OA
ATOM     17  O   LIG    1        1.245  -3.980   0.368  0.00  0.00    -0.170 OA
ATOM     18  C   LIG    1        3.520  -4.038  -0.989  0.00  0.00    +0.200 C 
ENDBRANCH  12  15
BRANCH   1  19
ATOM     19  C   LIG    1        0.086   0.807  -0.420  0.00  0.00    +0.108 C 
BRANCH  19  20
ATOM     20  C   LIG    1       -1.181   0.677   0.360  0.00  0.00    +0.038 C 
BRANCH  20  22
ATOM     21  C   LIG    1       -3.603   0.057   0.323  0.00  0.00    +0.019 C 
ATOM     22  C   LIG    1       -2.332   0.175  -0.504  0.00  0.00    +0.058 C 
ATOM     23  N   LIG    1       -2.034  -1.088  -1.117  0.00  0.00    -0.302 NA
ATOM     24  C   LIG    1       -2.963  -2.114  -0.748  0.00  0.00    +0.084 C 
ATOM     25  C   LIG    1       -4.403  -1.754  -1.087  0.00  0.00    +0.015 C 
ATOM     26  C   LIG    1       -2.004  -0.976  -2.550  0.00  0.00    +0.105 C 
ATOM     27  C   LIG    1       -4.715  -0.336  -0.646  0.00  0.00    +0.003 C 
ENDBRANCH  20  22
ENDBRANCH  19  20
ENDBRANCH   1  19
TORSDOF 4
