REMARK  Name = molecules/FLGJKPPXEKYCBY-AKCFYGDASA-N.pdb
REMARK                            x       y       z     vdW  Elec       q    Type
REMARK                         _______ _______ _______ _____ _____    ______ ____
ROOT
ATOM      1  C   LIG    1       -4.641  -0.013   0.110  0.00  0.00    +0.178 C 
ATOM      2  C   LIG    1       -3.202   0.322   0.363  0.00  0.00    +0.022 C 
ATOM      3  C   LIG    1       -2.540  -0.486   1.414  0.00  0.00    +0.012 C 
ATOM      4  C   LIG    1       -1.098  -0.006   1.498  0.00  0.00    +0.005 C 
ATOM      5  C   LIG    1       -0.419  -0.286   0.212  0.00  0.00    +0.000 C 
ATOM      6  C   LIG    1        0.984   0.232   0.101  0.00  0.00    +0.023 C 
ATOM      7  C   LIG    1        1.778   0.264   1.348  0.00  0.00    +0.016 C 
ATOM      8  C   LIG    1        2.725  -0.866   1.564  0.00  0.00    +0.074 C 
ATOM      9  C   LIG    1        3.548  -1.093   0.375  0.00  0.00    +0.098 C 
ATOM     10  C   LIG    1        3.003  -0.939  -0.826  0.00  0.00    +0.044 C 
ATOM     11  C   LIG    1        1.607  -0.548  -0.987  0.00  0.00    -0.045 C 
ATOM     12  C   LIG    1        0.882  -0.856  -2.033  0.00  0.00    -0.023 C 
ATOM     13  C   LIG    1       -0.529  -0.483  -2.218  0.00  0.00    +0.031 C 
ATOM     14  C   LIG    1       -1.141   0.194  -1.026  0.00  0.00    +0.000 C 
ATOM     15  C   LIG    1       -3.050   1.798   0.559  0.00  0.00    +0.016 C 
ATOM     16  C   LIG    1       -2.583  -0.119  -0.973  0.00  0.00    +0.004 C 
ATOM     17  C   LIG    1       -3.452   0.649  -1.909  0.00  0.00    +0.009 C 
ATOM     18  C   LIG    1       -4.839   0.414  -1.329  0.00  0.00    +0.062 C 
ENDROOT
BRANCH   1  19
ATOM     19  C   LIG    1       -4.918  -1.417   0.329  0.00  0.00    -0.058 C 
ATOM     20  C   LIG    1       -5.132  -2.579   0.524  0.00  0.00    +0.008 C 
ENDBRANCH   1  19
BRANCH   1  21
ATOM     21  O   LIG    1       -5.502   0.764   0.950  0.00  0.00    -0.445 OA
BRANCH  21  22
ATOM     22  C   LIG    1       -6.867   0.694   0.855  0.00  0.00    +0.305 C 
ATOM     23  C   LIG    1       -7.783   1.502   1.729  0.00  0.00    +0.136 C 
ATOM     24  O   LIG    1       -7.365  -0.083  -0.002  0.00  0.00    -0.251 OA
ENDBRANCH  21  22
ENDBRANCH   1  21
BRANCH   9  25
ATOM     25  O   LIG    1        4.885  -1.465   0.447  0.00  0.00    -0.493 OA
BRANCH  25  26
ATOM     26  C   LIG    1        5.895  -0.518   0.783  0.00  0.00    +0.173 C 
ATOM     27  C   LIG    1        7.234  -1.239   0.776  0.00  0.00    +0.044 C 
ATOM     28  C   LIG    1        8.230  -0.226   0.312  0.00  0.00    +0.004 C 
ATOM     29  C   LIG    1        7.497   0.881  -0.374  0.00  0.00    +0.004 C 
ATOM     30  C   LIG    1        6.014   0.538  -0.298  0.00  0.00    +0.044 C 
ENDBRANCH  25  26
ENDBRANCH   9  25
TORSDOF 5
