REMARK  Name = molecules/FLNXBVJLPJNOSI-FQEVSTJZSA-N.pdb
REMARK                            x       y       z     vdW  Elec       q    Type
REMARK                         _______ _______ _______ _____ _____    ______ ____
ROOT
ATOM      1  C   LIG    1       -1.368   0.374  -0.118  0.00  0.00    +0.178 C 
ENDROOT
BRANCH   1   2
ATOM      2  C   LIG    1       -2.269  -0.834  -0.006  0.00  0.00    -0.014 A 
ATOM      3  C   LIG    1       -2.406  -1.511   1.186  0.00  0.00    +0.008 A 
ATOM      4  C   LIG    1       -3.242  -2.609   1.234  0.00  0.00    +0.020 A 
ATOM      5  C   LIG    1       -3.945  -3.058   0.142  0.00  0.00    +0.041 A 
ATOM      6 CL   LIG    1       -4.981  -4.445   0.258  0.00  0.00    -0.084 Cl
ATOM      7  C   LIG    1       -3.810  -2.387  -1.046  0.00  0.00    +0.020 A 
ATOM      8  C   LIG    1       -2.971  -1.283  -1.095  0.00  0.00    +0.008 A 
ENDBRANCH   1   2
BRANCH   1   9
ATOM      9  C   LIG    1       -2.182   1.613  -0.171  0.00  0.00    -0.015 A 
ATOM     10  C   LIG    1       -3.534   1.642   0.159  0.00  0.00    +0.006 A 
ATOM     11  C   LIG    1       -4.256   2.814   0.097  0.00  0.00    +0.000 A 
ATOM     12  C   LIG    1       -3.654   3.998  -0.296  0.00  0.00    +0.000 A 
ATOM     13  C   LIG    1       -2.315   3.988  -0.627  0.00  0.00    +0.000 A 
ATOM     14  C   LIG    1       -1.609   2.800  -0.558  0.00  0.00    +0.006 A 
ENDBRANCH   1   9
BRANCH   1  15
ATOM     15  O   LIG    1       -0.607   0.284  -1.263  0.00  0.00    -0.366 OA
BRANCH  15  16
ATOM     16  C   LIG    1        0.763   0.216  -1.050  0.00  0.00    +0.176 C 
BRANCH  16  17
ATOM     17  C   LIG    1        1.181  -0.988  -0.253  0.00  0.00    +0.112 C 
BRANCH  17  18
ATOM     18  N   LIG    1        2.591  -1.065  -0.030  0.00  0.00    -0.300 NA
ATOM     19  C   LIG    1        3.101  -0.042   0.842  0.00  0.00    +0.084 C 
ATOM     20  C   LIG    1        4.191   0.744   0.109  0.00  0.00    +0.015 C 
ATOM     21  C   LIG    1        5.352  -0.234  -0.031  0.00  0.00    +0.002 C 
ATOM     22  C   LIG    1        4.837  -1.496  -0.667  0.00  0.00    +0.015 C 
ATOM     23  C   LIG    1        3.402  -1.367  -1.144  0.00  0.00    +0.084 C 
ENDBRANCH  17  18
ENDBRANCH  16  17
ENDBRANCH  15  16
ENDBRANCH   1  15
TORSDOF 6
