REMARK  Name = molecules/FLOSMHQXBMRNHR-UHFFFAOYSA-N.pdb
REMARK                            x       y       z     vdW  Elec       q    Type
REMARK                         _______ _______ _______ _____ _____    ______ ____
ROOT
ATOM      1  S   LIG    1       -0.590   1.436   1.254  0.00  0.00    -0.011 S 
ATOM      2  C   LIG    1       -1.873   0.360   0.920  0.00  0.00    +0.254 A 
ATOM      3  N   LIG    1       -1.228  -0.662   0.411  0.00  0.00    -0.142 NA
ATOM      4  N   LIG    1        0.038  -0.645   0.287  0.00  0.00    -0.244 N 
ATOM      5  C   LIG    1        0.768  -1.800  -0.289  0.00  0.00    +0.175 C 
ATOM      6  C   LIG    1        0.711   0.436   0.685  0.00  0.00    +0.185 A 
ENDROOT
BRANCH   6   7
ATOM      7  N   LIG    1        1.967   0.735   0.685  0.00  0.00    -0.155 NA
ATOM      8  C   LIG    1        3.042  -0.018   0.248  0.00  0.00    +0.235 C 
ATOM      9  O   LIG    1        3.420  -1.018   0.916  0.00  0.00    -0.274 OA
ATOM     10  C   LIG    1        3.828   0.255  -0.995  0.00  0.00    +0.111 C 
ENDBRANCH   6   7
BRANCH   2  11
ATOM     11  S   LIG    1       -3.606   0.584   1.198  0.00  0.00    +0.081 S 
ATOM     12  O   LIG    1       -3.723   1.490   2.391  0.00  0.00    -0.151 OA
ATOM     13  O   LIG    1       -4.252  -0.737   1.524  0.00  0.00    -0.151 OA
BRANCH  11  14
ATOM     14  N   LIG    1       -4.317   1.293  -0.183  0.00  0.00    -0.202 NA
ATOM     15  H   LIG    1       -5.262   1.650   0.091  0.00  0.00    +0.144 HD
ATOM     16  H   LIG    1       -3.756   2.150  -0.424  0.00  0.00    +0.144 HD
ENDBRANCH  11  14
ENDBRANCH   2  11
TORSDOF 3
