REMARK  Name = molecules/FLWFHHFTIRLFPV-KRWDZBQOSA-N.pdb
REMARK                            x       y       z     vdW  Elec       q    Type
REMARK                         _______ _______ _______ _____ _____    ______ ____
ROOT
ATOM      1  N   LIG    1       -0.818   0.548  -0.032  0.00  0.00    -0.190 N 
ATOM      2  C   LIG    1        0.590   0.542   0.240  0.00  0.00    +0.250 C 
ATOM      3  O   LIG    1        1.089   1.487   0.957  0.00  0.00    -0.273 OA
ENDROOT
BRANCH   1   4
ATOM      4  C   LIG    1       -1.626   1.600   0.520  0.00  0.00    +0.056 A 
ATOM      5  C   LIG    1       -1.433   2.061   1.794  0.00  0.00    +0.025 A 
ATOM      6  C   LIG    1       -2.236   3.074   2.264  0.00  0.00    +0.002 A 
ATOM      7  C   LIG    1       -3.232   3.633   1.476  0.00  0.00    +0.000 A 
ATOM      8  C   LIG    1       -3.426   3.171   0.200  0.00  0.00    +0.002 A 
ATOM      9  C   LIG    1       -2.626   2.147  -0.299  0.00  0.00    +0.025 A 
ENDBRANCH   1   4
BRANCH   1  10
ATOM     10  N   LIG    1       -1.341  -0.454  -0.831  0.00  0.00    -0.257 N 
ATOM     11  H   LIG    1       -0.898  -0.610  -1.785  0.00  0.00    +0.171 HD
BRANCH  10  12
ATOM     12  C   LIG    1       -2.436  -1.290  -0.483  0.00  0.00    +0.045 A 
ATOM     13  C   LIG    1       -3.110  -1.160   0.707  0.00  0.00    +0.024 A 
ATOM     14  C   LIG    1       -4.174  -2.023   0.953  0.00  0.00    +0.002 A 
ATOM     15  C   LIG    1       -4.566  -2.989   0.050  0.00  0.00    +0.000 A 
ATOM     16  C   LIG    1       -3.898  -3.128  -1.149  0.00  0.00    +0.002 A 
ATOM     17  C   LIG    1       -2.846  -2.273  -1.387  0.00  0.00    +0.024 A 
ENDBRANCH  10  12
ENDBRANCH   1  10
BRANCH   2  18
ATOM     18  C   LIG    1        1.529  -0.480  -0.245  0.00  0.00    +0.185 C 
BRANCH  18  19
ATOM     19  C   LIG    1        1.669  -0.534  -1.713  0.00  0.00    +0.317 C 
ATOM     20  O   LIG    1        1.531  -1.583  -2.388  0.00  0.00    -0.250 OA
BRANCH  19  21
ATOM     21  O   LIG    1        1.971   0.635  -2.390  0.00  0.00    -0.480 OA
ATOM     22  H   LIG    1        1.442   1.031  -3.135  0.00  0.00    +0.295 HD
ENDBRANCH  19  21
ENDBRANCH  18  19
BRANCH  18  23
ATOM     23  C   LIG    1        2.924  -0.141   0.310  0.00  0.00    +0.024 C 
BRANCH  23  24
ATOM     24  C   LIG    1        3.914  -1.176  -0.179  0.00  0.00    +0.001 C 
BRANCH  24  25
ATOM     25  C   LIG    1        5.291  -0.884   0.324  0.00  0.00    -0.003 C 
ATOM     26  C   LIG    1        5.795   0.472  -0.136  0.00  0.00    +0.004 C 
ENDBRANCH  24  25
ENDBRANCH  23  24
ENDBRANCH  18  23
ENDBRANCH   2  18
TORSDOF 9
