REMARK  Name = molecules/FMCGSUUBYTWNDP-ONGXEEELSA-N.pdb
REMARK                            x       y       z     vdW  Elec       q    Type
REMARK                         _______ _______ _______ _____ _____    ______ ____
ROOT
ATOM      1  C   LIG    1        0.035  -0.259   0.720  0.00  0.00    +0.161 C 
ENDROOT
BRANCH   1   2
ATOM      2  C   LIG    1        1.408   0.044   0.314  0.00  0.00    -0.018 A 
ATOM      3  C   LIG    1        2.259   0.580   1.259  0.00  0.00    +0.006 A 
ATOM      4  C   LIG    1        3.579   0.896   0.964  0.00  0.00    +0.000 A 
ATOM      5  C   LIG    1        4.072   0.677  -0.293  0.00  0.00    +0.000 A 
ATOM      6  C   LIG    1        3.235   0.144  -1.241  0.00  0.00    +0.000 A 
ATOM      7  C   LIG    1        1.905  -0.175  -0.946  0.00  0.00    +0.006 A 
ENDBRANCH   1   2
BRANCH   1   8
ATOM      8  O   LIG    1       -0.464   0.789   1.498  0.00  0.00    -0.386 OA
ATOM      9  H   LIG    1        0.092   1.580   1.338  0.00  0.00    +0.210 HD
ENDBRANCH   1   8
BRANCH   1  10
ATOM     10  C   LIG    1       -0.935  -0.458  -0.425  0.00  0.00    +0.086 C 
ATOM     11  C   LIG    1       -1.120   0.871  -1.162  0.00  0.00    +0.027 C 
BRANCH  10  12
ATOM     12  N   LIG    1       -2.194  -0.788   0.132  0.00  0.00    -0.303 NA
ATOM     13  C   LIG    1       -2.847   0.128   0.948  0.00  0.00    +0.105 C 
ATOM     14  C   LIG    1       -2.838  -1.944  -0.295  0.00  0.00    +0.105 C 
ENDBRANCH  10  12
ENDBRANCH   1  10
TORSDOF 4
