REMARK  Name = molecules/FMGSKLZLMKYGDP-USOAJAOKSA-N.pdb
REMARK                            x       y       z     vdW  Elec       q    Type
REMARK                         _______ _______ _______ _____ _____    ______ ____
ROOT
ATOM      1  C   LIG    1        2.102  -1.144  -0.750  0.00  0.00    +0.016 C 
ATOM      2  C   LIG    1        1.471   0.162  -0.286  0.00  0.00    -0.008 C 
ATOM      3  C   LIG    1        1.861   0.445   1.100  0.00  0.00    -0.065 C 
ATOM      4  C   LIG    1        0.976   0.781   2.009  0.00  0.00    -0.027 C 
ATOM      5  C   LIG    1       -0.484   0.921   1.788  0.00  0.00    +0.031 C 
ATOM      6  C   LIG    1       -0.875   0.069   0.632  0.00  0.00    +0.001 C 
ATOM      7  C   LIG    1       -2.264   0.333   0.136  0.00  0.00    +0.006 C 
ATOM      8  C   LIG    1       -3.324   0.453   1.146  0.00  0.00    +0.012 C 
ATOM      9  C   LIG    1       -4.588   0.150   0.325  0.00  0.00    +0.075 C 
ATOM     10  C   LIG    1       -4.106  -0.598  -0.868  0.00  0.00    +0.139 C 
ATOM     11  O   LIG    1       -4.787  -0.871  -1.825  0.00  0.00    -0.297 OA
ATOM     12  C   LIG    1       -2.695  -0.918  -0.641  0.00  0.00    +0.029 C 
ATOM     13  C   LIG    1       -2.589  -2.158   0.174  0.00  0.00    +0.019 C 
ATOM     14  C   LIG    1       -1.837  -0.923  -1.873  0.00  0.00    +0.015 C 
ATOM     15  C   LIG    1       -0.391  -0.798  -1.623  0.00  0.00    +0.005 C 
ATOM     16  C   LIG    1        3.284   0.355   1.474  0.00  0.00    +0.062 C 
ATOM     17  C   LIG    1        4.048   1.292   0.572  0.00  0.00    +0.119 C 
ATOM     18  C   LIG    1        3.656   1.250  -0.861  0.00  0.00    +0.032 C 
ATOM     19  C   LIG    1        0.014   0.225  -0.584  0.00  0.00    +0.003 C 
ATOM     20  C   LIG    1        2.173   1.242  -1.127  0.00  0.00    +0.014 C 
ENDROOT
BRANCH  17  21
ATOM     21  O   LIG    1        5.396   0.936   0.665  0.00  0.00    -0.391 OA
ATOM     22  H   LIG    1        5.470   0.000   0.345  0.00  0.00    +0.210 HD
ENDBRANCH  17  21
TORSDOF 1
