REMARK  Name = molecules/FNKQXYHWGSIFBK-RPDRRWSUSA-N.pdb
REMARK                            x       y       z     vdW  Elec       q    Type
REMARK                         _______ _______ _______ _____ _____    ______ ____
ROOT
ATOM      1  C   LIG    1       -0.904  -0.138   0.352  0.00  0.00    +0.119 C 
ATOM      2  C   LIG    1       -0.299  -0.391   1.718  0.00  0.00    +0.127 C 
ATOM      3  N   LIG    1        0.948   0.328   1.763  0.00  0.00    -0.326 N 
ATOM      4  H   LIG    1        1.199   0.907   2.579  0.00  0.00    +0.148 HD
ATOM      5  C   LIG    1        1.832   0.227   0.662  0.00  0.00    +0.149 A 
ATOM      6  N   LIG    1        3.122   0.611   0.740  0.00  0.00    -0.199 NA
ATOM      7  C   LIG    1        3.926   0.500  -0.326  0.00  0.00    +0.195 A 
ATOM      8  N   LIG    1        3.480   0.001  -1.512  0.00  0.00    -0.294 N 
ATOM      9  C   LIG    1        2.201  -0.391  -1.625  0.00  0.00    +0.276 A 
ATOM     10  O   LIG    1        1.727  -0.861  -2.695  0.00  0.00    -0.266 OA
ATOM     11  H   LIG    1        4.136  -0.062  -2.294  0.00  0.00    +0.172 HD
ATOM     12  C   LIG    1        1.355  -0.287  -0.546  0.00  0.00    +0.133 A 
ATOM     13  N   LIG    1       -0.009  -0.690  -0.618  0.00  0.00    -0.330 N 
ATOM     14  H   LIG    1       -0.263  -1.361  -1.373  0.00  0.00    +0.147 HD
ENDROOT
BRANCH   7  15
ATOM     15  N   LIG    1        5.266   0.917  -0.187  0.00  0.00    -0.329 N 
ATOM     16  H   LIG    1        5.838   0.558   0.594  0.00  0.00    +0.145 HD
ATOM     17  H   LIG    1        5.675   1.581  -0.861  0.00  0.00    +0.145 HD
ENDBRANCH   7  15
BRANCH   1  18
ATOM     18  C   LIG    1       -2.286  -0.739   0.303  0.00  0.00    +0.164 C 
BRANCH  18  20
ATOM     19  C   LIG    1       -3.139   1.035  -1.186  0.00  0.00    +0.040 C 
ATOM     20  C   LIG    1       -2.974  -0.459  -1.016  0.00  0.00    +0.142 C 
BRANCH  20  21
ATOM     21  O   LIG    1       -4.266  -0.991  -0.911  0.00  0.00    -0.389 OA
ATOM     22  H   LIG    1       -4.292  -1.906  -1.265  0.00  0.00    +0.210 HD
ENDBRANCH  20  21
ENDBRANCH  18  20
BRANCH  18  23
ATOM     23  O   LIG    1       -3.033  -0.105   1.296  0.00  0.00    -0.387 OA
ATOM     24  H   LIG    1       -2.724   0.835   1.326  0.00  0.00    +0.210 HD
ENDBRANCH  18  23
ENDBRANCH   1  18
TORSDOF 5
