REMARK  Name = molecules/FNPXMHRZILFCKX-KAJVQRHHSA-N.pdb
REMARK                            x       y       z     vdW  Elec       q    Type
REMARK                         _______ _______ _______ _____ _____    ______ ____
ROOT
ATOM      1  C   LIG    1       -1.383  -0.415   1.037  0.00  0.00    +0.183 C 
ATOM      2  C   LIG    1       -0.886  -1.239   2.288  0.00  0.00    +0.057 C 
ATOM      3  C   LIG    1        0.461  -1.783   1.875  0.00  0.00    +0.009 C 
ATOM      4  C   LIG    1        0.941  -0.669   1.039  0.00  0.00    +0.003 C 
ATOM      5  C   LIG    1        2.233  -0.884   0.328  0.00  0.00    -0.000 C 
ATOM      6  C   LIG    1        3.283  -1.290   1.327  0.00  0.00    +0.008 C 
ATOM      7  C   LIG    1        4.673  -1.260   0.705  0.00  0.00    +0.032 C 
ATOM      8  C   LIG    1        4.878   0.144   0.176  0.00  0.00    -0.056 C 
ATOM      9  C   LIG    1        5.860   0.863   0.656  0.00  0.00    +0.051 C 
ATOM     10  C   LIG    1        6.084   2.232   0.192  0.00  0.00    +0.179 C 
ATOM     11  O   LIG    1        7.018   2.900   0.655  0.00  0.00    -0.288 OA
ATOM     12  C   LIG    1        5.152   2.711  -0.816  0.00  0.00    +0.047 C 
ATOM     13  C   LIG    1        4.176   1.954  -1.273  0.00  0.00    -0.012 C 
ATOM     14  C   LIG    1        3.918   0.590  -0.844  0.00  0.00    +0.013 C 
ATOM     15  C   LIG    1        4.022  -0.337  -2.054  0.00  0.00    +0.020 C 
ATOM     16  C   LIG    1        2.559   0.517  -0.214  0.00  0.00    +0.035 C 
ATOM     17  C   LIG    1        1.470   0.983  -1.100  0.00  0.00    +0.120 C 
ATOM     18  C   LIG    1        0.084   0.897  -0.569  0.00  0.00    +0.043 C 
ATOM     19  C   LIG    1       -0.237  -0.411   0.108  0.00  0.00    +0.020 C 
ATOM     20  C   LIG    1       -0.326  -1.478  -0.963  0.00  0.00    +0.016 C 
ENDROOT
BRANCH   1  21
ATOM     21  C   LIG    1       -2.584  -1.190   0.641  0.00  0.00    +0.214 C 
ATOM     22  O   LIG    1       -2.579  -2.152  -0.114  0.00  0.00    -0.289 OA
BRANCH  21  23
ATOM     23  C   LIG    1       -3.908  -0.819   1.183  0.00  0.00    +0.310 C 
BRANCH  23  24
ATOM     24  O   LIG    1       -4.939  -1.677   0.700  0.00  0.00    -0.457 OA
BRANCH  24  25
ATOM     25  C   LIG    1       -5.251  -1.825  -0.633  0.00  0.00    +0.307 C 
ATOM     26  O   LIG    1       -4.607  -1.179  -1.480  0.00  0.00    -0.251 OA
BRANCH  25  27
ATOM     27  C   LIG    1       -6.353  -2.761  -0.977  0.00  0.00    +0.117 C 
ATOM     28  C   LIG    1       -5.802  -4.105  -1.436  0.00  0.00    +0.015 C 
ENDBRANCH  25  27
ENDBRANCH  24  25
ENDBRANCH  23  24
ENDBRANCH  21  23
ENDBRANCH   1  21
BRANCH  17  29
ATOM     29  O   LIG    1        1.523   0.443  -2.386  0.00  0.00    -0.391 OA
ATOM     30  H   LIG    1        1.269   1.117  -3.075  0.00  0.00    +0.210 HD
ENDBRANCH  17  29
BRANCH   1  31
ATOM     31  O   LIG    1       -1.743   0.854   1.530  0.00  0.00    -0.419 OA
BRANCH  31  32
ATOM     32  C   LIG    1       -2.402   1.853   0.857  0.00  0.00    +0.511 C 
ATOM     33  O   LIG    1       -2.757   1.717  -0.324  0.00  0.00    -0.203 OA
BRANCH  32  34
ATOM     34  O   LIG    1       -2.715   3.081   1.449  0.00  0.00    -0.434 OA
BRANCH  34  35
ATOM     35  C   LIG    1       -3.394   4.085   0.722  0.00  0.00    +0.232 C 
ATOM     36  C   LIG    1       -2.627   4.526  -0.505  0.00  0.00    +0.048 C 
ENDBRANCH  34  35
ENDBRANCH  32  34
ENDBRANCH  31  32
ENDBRANCH   1  31
TORSDOF 10
