REMARK  Name = molecules/FNQQBFNIYODEMB-UHFFFAOYSA-N.pdb
REMARK                            x       y       z     vdW  Elec       q    Type
REMARK                         _______ _______ _______ _____ _____    ______ ____
ROOT
ATOM      1  O   LIG    1       -1.317  -0.961  -2.878  0.00  0.00    -0.169 OA
ATOM      2  S   LIG    1       -1.737   0.082  -1.873  0.00  0.00    -0.003 S 
ATOM      3  C   LIG    1       -0.573   0.135  -0.574  0.00  0.00    +0.093 A 
ATOM      4  C   LIG    1       -1.047   0.465   0.671  0.00  0.00    -0.022 A 
ATOM      5  C   LIG    1       -0.128   0.508   1.694  0.00  0.00    +0.010 A 
ATOM      6  C   LIG    1        1.220   0.228   1.463  0.00  0.00    -0.024 A 
ATOM      7  C   LIG    1        2.220   0.270   2.548  0.00  0.00    +0.046 C 
ATOM      8  C   LIG    1        1.646  -0.101   0.181  0.00  0.00    +0.110 A 
ATOM      9  C   LIG    1       -2.441   0.753   0.907  0.00  0.00    +0.038 C 
ATOM     10  C   LIG    1       -3.426  -0.166   0.277  0.00  0.00    +0.028 C 
ATOM     11  C   LIG    1        0.733  -0.145  -0.842  0.00  0.00    +0.056 A 
ATOM     12  C   LIG    1       -3.263  -0.415  -1.168  0.00  0.00    +0.172 C 
ATOM     13  O   LIG    1       -1.822   1.399  -2.581  0.00  0.00    -0.169 OA
ENDROOT
BRANCH   8  14
ATOM     14  S   LIG    1        3.347  -0.456  -0.118  0.00  0.00    +0.056 S 
ATOM     15  O   LIG    1        3.717  -1.619   0.750  0.00  0.00    -0.153 OA
ATOM     16  O   LIG    1        4.116   0.783   0.212  0.00  0.00    -0.153 OA
BRANCH  14  17
ATOM     17  N   LIG    1        3.527  -0.819  -1.793  0.00  0.00    -0.204 NA
ATOM     18  H   LIG    1        4.202  -1.592  -1.969  0.00  0.00    +0.144 HD
ATOM     19  H   LIG    1        3.710   0.036  -2.360  0.00  0.00    +0.144 HD
ENDBRANCH  14  17
ENDBRANCH   8  14
TORSDOF 2
