REMARK  Name = molecules/FOCVUCIESVLUNU-UHFFFAOYSA-N.pdb
REMARK                            x       y       z     vdW  Elec       q    Type
REMARK                         _______ _______ _______ _____ _____    ______ ____
ROOT
ATOM      1  S   LIG    1        0.506  -0.112   1.636  0.00  0.00    -0.017 S 
ATOM      2  P   LIG    1        0.237   0.096  -0.068  0.00  0.00    +0.128 P 
ENDROOT
BRANCH   2   3
ATOM      3  N   LIG    1       -0.169   1.763  -0.331  0.00  0.00    -0.251 NA
ATOM      4  C   LIG    1       -1.008   2.460   0.599  0.00  0.00    +0.107 C 
ATOM      5  C   LIG    1       -1.473   2.121  -0.812  0.00  0.00    +0.107 C 
ENDBRANCH   2   3
BRANCH   2   6
ATOM      6  N   LIG    1       -1.004  -1.000  -0.566  0.00  0.00    -0.251 NA
ATOM      7  C   LIG    1       -2.155  -1.239   0.257  0.00  0.00    +0.107 C 
ATOM      8  C   LIG    1       -1.069  -2.225   0.242  0.00  0.00    +0.107 C 
ENDBRANCH   2   6
BRANCH   2   9
ATOM      9  N   LIG    1        1.712  -0.247  -0.932  0.00  0.00    -0.251 NA
ATOM     10  C   LIG    1        2.915   0.135  -0.206  0.00  0.00    +0.107 C 
ATOM     11  C   LIG    1        2.585  -1.287  -0.500  0.00  0.00    +0.107 C 
ENDBRANCH   2   9
TORSDOF 3
