REMARK  Name = molecules/FODQIVGFADUBKE-MRVPVSSYSA-N.pdb
REMARK                            x       y       z     vdW  Elec       q    Type
REMARK                         _______ _______ _______ _____ _____    ______ ____
ROOT
ATOM      1  C   LIG    1       -2.235  -0.531   0.185  0.00  0.00    +0.066 C 
ATOM      2  C   LIG    1       -3.194   0.480   0.751  0.00  0.00    +0.025 C 
ENDROOT
BRANCH   1   3
ATOM      3  N   LIG    1       -2.720  -1.083  -1.081  0.00  0.00    -0.256 NA
ATOM      4  H   LIG    1       -2.648  -0.374  -1.830  0.00  0.00    +0.141 HD
BRANCH   3   5
ATOM      5  N   LIG    1       -3.950  -1.695  -0.962  0.00  0.00    -0.270 NA
ATOM      6  H   LIG    1       -4.546  -1.315  -0.214  0.00  0.00    +0.137 HD
ATOM      7  H   LIG    1       -3.894  -2.734  -0.962  0.00  0.00    +0.137 HD
ENDBRANCH   3   5
ENDBRANCH   1   3
BRANCH   1   8
ATOM      8  C   LIG    1       -0.886   0.109  -0.078  0.00  0.00    +0.020 C 
BRANCH   8   9
ATOM      9  C   LIG    1        0.055  -0.908  -0.640  0.00  0.00    +0.002 C 
BRANCH   9  10
ATOM     10  C   LIG    1        1.403  -0.296  -0.910  0.00  0.00    +0.000 C 
BRANCH  10  11
ATOM     11  C   LIG    1        2.035   0.265   0.359  0.00  0.00    -0.000 C 
BRANCH  11  13
ATOM     12  C   LIG    1        4.114   1.438   1.111  0.00  0.00    +0.004 C 
ATOM     13  C   LIG    1        3.378   0.844  -0.062  0.00  0.00    -0.003 C 
ENDBRANCH  11  13
ENDBRANCH  10  11
ENDBRANCH   9  10
ENDBRANCH   8   9
ENDBRANCH   1   8
TORSDOF 7
