REMARK  Name = molecules/FOGXJPFPZOHSQS-AYVLZSQQSA-N.pdb
REMARK                            x       y       z     vdW  Elec       q    Type
REMARK                         _______ _______ _______ _____ _____    ______ ____
ROOT
ATOM      1  C   LIG    1       -1.375  -0.101   1.254  0.00  0.00    +0.180 C 
ATOM      2  C   LIG    1       -0.802   0.921   2.302  0.00  0.00    +0.057 C 
ATOM      3  C   LIG    1        0.515   0.185   2.631  0.00  0.00    +0.009 C 
ATOM      4  C   LIG    1        0.950   0.069   1.235  0.00  0.00    +0.003 C 
ATOM      5  C   LIG    1        2.223  -0.502   0.849  0.00  0.00    -0.001 C 
ATOM      6  C   LIG    1        3.371  -0.141   1.766  0.00  0.00    +0.008 C 
ATOM      7  C   LIG    1        4.526  -1.015   1.279  0.00  0.00    +0.032 C 
ATOM      8  C   LIG    1        4.857  -0.446  -0.081  0.00  0.00    -0.060 C 
ATOM      9  C   LIG    1        6.124  -0.207  -0.325  0.00  0.00    +0.046 C 
ATOM     10  C   LIG    1        6.546   0.341  -1.600  0.00  0.00    +0.156 C 
ATOM     11  O   LIG    1        7.683   0.145  -2.068  0.00  0.00    -0.293 OA
ATOM     12  C   LIG    1        5.578   1.153  -2.352  0.00  0.00    +0.080 C 
ATOM     13  C   LIG    1        4.194   1.109  -1.862  0.00  0.00    +0.019 C 
ATOM     14  C   LIG    1        3.838  -0.168  -1.087  0.00  0.00    -0.005 C 
ATOM     15  C   LIG    1        3.948  -1.268  -2.155  0.00  0.00    +0.016 C 
ATOM     16  C   LIG    1        2.469   0.009  -0.581  0.00  0.00    +0.031 C 
ATOM     17  C   LIG    1        1.354  -0.520  -1.408  0.00  0.00    +0.119 C 
ATOM     18  C   LIG    1       -0.019  -0.369  -0.877  0.00  0.00    +0.043 C 
ATOM     19  C   LIG    1       -0.206  -0.713   0.586  0.00  0.00    +0.020 C 
ATOM     20  C   LIG    1       -0.071  -2.182   0.835  0.00  0.00    +0.016 C 
ENDROOT
BRANCH   1  21
ATOM     21  C   LIG    1       -2.201  -0.953   2.119  0.00  0.00    +0.214 C 
ATOM     22  O   LIG    1       -1.687  -1.896   2.675  0.00  0.00    -0.289 OA
BRANCH  21  23
ATOM     23  C   LIG    1       -3.628  -0.701   2.339  0.00  0.00    +0.310 C 
BRANCH  23  24
ATOM     24  O   LIG    1       -4.094   0.563   1.907  0.00  0.00    -0.457 OA
BRANCH  24  25
ATOM     25  C   LIG    1       -5.404   0.962   2.034  0.00  0.00    +0.307 C 
ATOM     26  O   LIG    1       -6.207   0.131   2.554  0.00  0.00    -0.251 OA
BRANCH  25  27
ATOM     27  C   LIG    1       -5.808   2.305   1.573  0.00  0.00    +0.117 C 
ATOM     28  C   LIG    1       -4.583   3.126   1.298  0.00  0.00    +0.015 C 
ENDBRANCH  25  27
ENDBRANCH  24  25
ENDBRANCH  23  24
ENDBRANCH  21  23
ENDBRANCH   1  21
BRANCH  17  29
ATOM     29  O   LIG    1        1.520  -1.827  -1.858  0.00  0.00    -0.391 OA
ATOM     30  H   LIG    1        0.912  -1.969  -2.607  0.00  0.00    +0.210 HD
ENDBRANCH  17  29
BRANCH   1  31
ATOM     31  O   LIG    1       -2.212   0.653   0.382  0.00  0.00    -0.450 OA
BRANCH  31  32
ATOM     32  C   LIG    1       -3.037  -0.059  -0.482  0.00  0.00    +0.308 C 
ATOM     33  O   LIG    1       -3.093  -1.321  -0.521  0.00  0.00    -0.251 OA
BRANCH  32  34
ATOM     34  C   LIG    1       -3.923   0.699  -1.436  0.00  0.00    +0.120 C 
BRANCH  34  35
ATOM     35  C   LIG    1       -4.682  -0.260  -2.329  0.00  0.00    +0.008 C 
ATOM     36  C   LIG    1       -3.745  -1.117  -3.149  0.00  0.00    +0.004 C 
ENDBRANCH  34  35
ENDBRANCH  32  34
ENDBRANCH  31  32
ENDBRANCH   1  31
TORSDOF 10
