REMARK  Name = molecules/FOHHNHSLJDZUGQ-RUZDIDTESA-N.pdb
REMARK                            x       y       z     vdW  Elec       q    Type
REMARK                         _______ _______ _______ _____ _____    ______ ____
ROOT
ATOM      1  C   LIG    1        2.236  -0.850  -0.467  0.00  0.00    -0.011 A 
ATOM      2  C   LIG    1        2.627  -1.583   0.670  0.00  0.00    +0.016 A 
ATOM      3  C   LIG    1        3.851  -1.506   1.257  0.00  0.00    +0.001 A 
ATOM      4  C   LIG    1        4.157  -2.316   2.366  0.00  0.00    +0.050 A 
ATOM      5 CL   LIG    1        2.965  -3.375   3.042  0.00  0.00    -0.083 Cl
ATOM      6  C   LIG    1        5.418  -2.260   2.922  0.00  0.00    +0.040 A 
ATOM      7  C   LIG    1        6.375  -1.426   2.411  0.00  0.00    +0.043 A 
ATOM      8 CL   LIG    1        7.997  -1.347   3.096  0.00  0.00    -0.083 Cl
ATOM      9  C   LIG    1        6.057  -0.632   1.315  0.00  0.00    +0.029 A 
ATOM     10  C   LIG    1        4.816  -0.669   0.744  0.00  0.00    -0.007 A 
ATOM     11  C   LIG    1        4.491   0.089  -0.384  0.00  0.00    -0.009 A 
ATOM     12  C   LIG    1        5.426   0.954  -0.893  0.00  0.00    +0.021 A 
ATOM     13  C   LIG    1        5.067   1.732  -1.998  0.00  0.00    +0.055 A 
ATOM     14  C   LIG    1        3.831   1.649  -2.567  0.00  0.00    +0.013 A 
ATOM     15  C   LIG    1        2.887   0.762  -2.042  0.00  0.00    +0.009 A 
ATOM     16  C   LIG    1        3.221  -0.009  -0.965  0.00  0.00    -0.012 A 
ENDROOT
BRANCH  13  17
ATOM     17  C   LIG    1        6.053   2.677  -2.576  0.00  0.00    +0.417 C 
ATOM     18  F   LIG    1        6.464   3.533  -1.583  0.00  0.00    -0.166 F 
ATOM     19  F   LIG    1        7.119   1.936  -3.057  0.00  0.00    -0.166 F 
ATOM     20  F   LIG    1        5.486   3.429  -3.569  0.00  0.00    -0.166 F 
ENDBRANCH  13  17
BRANCH   1  21
ATOM     21  C   LIG    1        0.987  -1.184  -1.134  0.00  0.00    +0.146 C 
BRANCH  21  22
ATOM     22  O   LIG    1        0.754  -0.947  -2.438  0.00  0.00    -0.387 OA
ATOM     23  H   LIG    1        1.277  -1.506  -3.034  0.00  0.00    +0.210 HD
ENDBRANCH  21  22
BRANCH  21  24
ATOM     24  C   LIG    1       -0.254  -1.419  -0.267  0.00  0.00    +0.051 C 
BRANCH  24  25
ATOM     25  C   LIG    1       -1.134  -0.250  -0.439  0.00  0.00    +0.087 C 
BRANCH  25  26
ATOM     26  N   LIG    1       -2.416  -0.128   0.202  0.00  0.00    -0.302 NA
BRANCH  26  27
ATOM     27  C   LIG    1       -3.057  -1.394   0.123  0.00  0.00    +0.084 C 
BRANCH  27  28
ATOM     28  C   LIG    1       -4.457  -1.527   0.601  0.00  0.00    +0.015 C 
BRANCH  28  29
ATOM     29  C   LIG    1       -4.674  -1.135   2.031  0.00  0.00    -0.002 C 
ATOM     30  C   LIG    1       -6.133  -1.322   2.362  0.00  0.00    +0.004 C 
ENDBRANCH  28  29
ENDBRANCH  27  28
ENDBRANCH  26  27
BRANCH  26  31
ATOM     31  C   LIG    1       -3.052   0.939  -0.493  0.00  0.00    +0.084 C 
BRANCH  31  32
ATOM     32  C   LIG    1       -4.285   1.583  -0.024  0.00  0.00    +0.015 C 
BRANCH  32  33
ATOM     33  C   LIG    1       -4.571   2.677  -1.108  0.00  0.00    -0.002 C 
ATOM     34  C   LIG    1       -5.795   3.450  -0.809  0.00  0.00    +0.004 C 
ENDBRANCH  32  33
ENDBRANCH  31  32
ENDBRANCH  26  31
ENDBRANCH  25  26
ENDBRANCH  24  25
ENDBRANCH  21  24
ENDBRANCH   1  21
TORSDOF 12
