REMARK  Name = molecules/FPPNZSSZRUTDAP-BBGACYKPSA-N.pdb
REMARK                            x       y       z     vdW  Elec       q    Type
REMARK                         _______ _______ _______ _____ _____    ______ ____
ROOT
ATOM      1  N   LIG    1        0.507  -1.158  -1.082  0.00  0.00    -0.301 N 
ATOM      2  H   LIG    1        0.393  -0.126  -0.991  0.00  0.00    +0.150 HD
ATOM      3  C   LIG    1        1.791  -1.728  -1.111  0.00  0.00    +0.232 C 
ATOM      4  O   LIG    1        1.815  -3.004  -1.230  0.00  0.00    -0.275 OA
ENDROOT
BRANCH   1  11
ATOM      5  CA  LIG    1       -2.640   0.742  -0.604  0.00  0.00    +0.201 C 
ATOM      6  C   LIG    1       -2.654   0.701   0.871  0.00  0.00    +0.042 C 
ATOM      7  C   LIG    1       -2.322   2.017   1.528  0.00  0.00    +0.025 C 
ATOM      8  C   LIG    1       -3.967   0.132   1.399  0.00  0.00    +0.025 C 
ATOM      9  S   LIG    1       -1.375  -0.546   1.217  0.00  0.00    -0.127 S 
ATOM     10  C   LIG    1       -1.821  -1.508  -0.268  0.00  0.00    +0.165 C 
ATOM     11  CA  LIG    1       -0.721  -1.908  -1.172  0.00  0.00    +0.190 C 
ATOM     12  C   LIG    1       -1.641  -1.273  -2.187  0.00  0.00    +0.240 C 
ATOM     13  O   LIG    1       -1.813  -1.509  -3.412  0.00  0.00    -0.273 OA
ATOM     14  N   LIG    1       -2.111  -0.424  -1.180  0.00  0.00    -0.271 N 
BRANCH   5  15
ATOM     15  C   LIG    1       -3.988   1.016  -1.189  0.00  0.00    +0.327 C 
ATOM     16  O   LIG    1       -4.425   0.220  -2.052  0.00  0.00    -0.249 OA
BRANCH  15  17
ATOM     17  OXT LIG    1       -4.746   2.110  -0.803  0.00  0.00    -0.479 OA
ATOM     18  HXT LIG    1       -5.708   1.957  -0.545  0.00  0.00    +0.295 HD
ENDBRANCH  15  17
ENDBRANCH   5  15
ENDBRANCH   1  11
BRANCH   3  19
ATOM     19  C   LIG    1        3.076  -1.044  -1.025  0.00  0.00    +0.213 C 
BRANCH  19  20
ATOM     20  C   LIG    1        3.319  -0.299   0.221  0.00  0.00    -0.025 A 
ATOM     21  C   LIG    1        4.216  -0.830   1.137  0.00  0.00    +0.005 A 
ATOM     22  C   LIG    1        4.532  -0.224   2.333  0.00  0.00    +0.000 A 
ATOM     23  C   LIG    1        3.935   0.968   2.648  0.00  0.00    +0.000 A 
ATOM     24  C   LIG    1        3.048   1.516   1.766  0.00  0.00    +0.000 A 
ATOM     25  C   LIG    1        2.737   0.895   0.562  0.00  0.00    +0.005 A 
ENDBRANCH  19  20
BRANCH  19  26
ATOM     26  C   LIG    1        3.324  -0.104  -2.146  0.00  0.00    +0.321 C 
ATOM     27  O   LIG    1        3.675   1.094  -1.980  0.00  0.00    -0.250 OA
BRANCH  26  28
ATOM     28  O   LIG    1        3.171  -0.534  -3.452  0.00  0.00    -0.480 OA
ATOM     29  H   LIG    1        2.565  -1.326  -3.667  0.00  0.00    +0.295 HD
ENDBRANCH  26  28
ENDBRANCH  19  26
ENDBRANCH   3  19
TORSDOF 7
