REMARK  Name = molecules/FPZLLRFZJZRHSY-HJYUBDRYSA-N.pdb
REMARK                            x       y       z     vdW  Elec       q    Type
REMARK                         _______ _______ _______ _____ _____    ______ ____
ROOT
ATOM      1  C   LIG    1       -3.936  -1.077   0.621  0.00  0.00    +0.190 C 
ATOM      2  C   LIG    1       -2.502  -1.448   0.656  0.00  0.00    +0.141 C 
ATOM      3  C   LIG    1       -1.567  -0.566   0.390  0.00  0.00    +0.044 C 
ATOM      4  C   LIG    1       -0.169  -0.991   0.445  0.00  0.00    +0.197 C 
ATOM      5  O   LIG    1        0.111  -2.161   0.825  0.00  0.00    -0.287 OA
ATOM      6  C   LIG    1        0.881  -0.027   0.049  0.00  0.00    +0.070 A 
ATOM      7  C   LIG    1        2.197  -0.456   0.103  0.00  0.00    +0.149 A 
ATOM      8  C   LIG    1        3.233   0.433  -0.274  0.00  0.00    +0.078 A 
ATOM      9  C   LIG    1        2.842   1.679  -0.673  0.00  0.00    +0.050 A 
ATOM     10  C   LIG    1        1.503   2.091  -0.720  0.00  0.00    +0.035 A 
ATOM     11  C   LIG    1        0.501   1.208  -0.348  0.00  0.00    -0.011 A 
ATOM     12  C   LIG    1       -0.872   1.673  -0.418  0.00  0.00    +0.046 C 
ATOM     13  C   LIG    1       -1.961   0.809   0.052  0.00  0.00    +0.031 C 
ATOM     14  C   LIG    1       -3.083   0.651  -0.984  0.00  0.00    +0.018 C 
ATOM     15  C   LIG    1       -4.705  -2.321   0.350  0.00  0.00    +0.211 C 
ATOM     16  O   LIG    1       -4.326  -3.354   0.978  0.00  0.00    -0.288 OA
ATOM     17  C   LIG    1       -5.812  -2.378  -0.560  0.00  0.00    +0.121 C 
ATOM     18  C   LIG    1       -6.115  -1.334  -1.268  0.00  0.00    +0.127 C 
ATOM     19  C   LIG    1       -5.387  -0.063  -1.203  0.00  0.00    +0.129 C 
ATOM     20  C   LIG    1       -4.295   0.074  -0.221  0.00  0.00    +0.061 C 
ENDROOT
BRANCH  17  21
ATOM     21  C   LIG    1       -6.577  -3.636  -0.664  0.00  0.00    +0.248 C 
ATOM     22  N   LIG    1       -6.225  -4.748   0.115  0.00  0.00    -0.325 N 
ATOM     23  H   LIG    1       -6.532  -4.800   1.107  0.00  0.00    +0.145 HD
ATOM     24  H   LIG    1       -5.664  -5.517  -0.283  0.00  0.00    +0.145 HD
ATOM     25  O   LIG    1       -7.533  -3.682  -1.456  0.00  0.00    -0.270 OA
ENDBRANCH  17  21
BRANCH   8  26
ATOM     26  N   LIG    1        4.571  -0.037  -0.207  0.00  0.00    -0.281 N 
ATOM     27  H   LIG    1        4.672  -1.059   0.083  0.00  0.00    +0.155 HD
ATOM     28  C   LIG    1        5.722   0.702  -0.532  0.00  0.00    +0.231 C 
ATOM     29  O   LIG    1        5.585   1.902  -0.949  0.00  0.00    -0.274 OA
BRANCH  28  30
ATOM     30  C   LIG    1        7.116   0.192  -0.439  0.00  0.00    +0.178 C 
BRANCH  30  31
ATOM     31  N   LIG    1        7.289  -1.055   0.155  0.00  0.00    -0.303 NA
ATOM     32  H   LIG    1        6.638  -1.746  -0.263  0.00  0.00    +0.123 HD
BRANCH  31  33
ATOM     33  C   LIG    1        7.310  -1.206   1.554  0.00  0.00    +0.011 C 
ATOM     34  C   LIG    1        6.143  -0.832   2.375  0.00  0.00    +0.027 C 
ATOM     35  C   LIG    1        8.544  -0.550   2.185  0.00  0.00    +0.027 C 
ATOM     36  C   LIG    1        7.540  -2.724   1.807  0.00  0.00    +0.027 C 
ENDBRANCH  31  33
ENDBRANCH  30  31
ENDBRANCH  28  30
ENDBRANCH   8  26
BRANCH  10  37
ATOM     37  N   LIG    1        1.277   3.420  -1.153  0.00  0.00    -0.336 N 
ATOM     38  C   LIG    1        0.734   4.436  -0.292  0.00  0.00    +0.129 C 
ATOM     39  C   LIG    1        1.604   3.772  -2.518  0.00  0.00    +0.129 C 
ENDBRANCH  10  37
BRANCH  19  40
ATOM     40  N   LIG    1       -6.406   0.964  -0.997  0.00  0.00    -0.299 NA
ATOM     41  C   LIG    1       -7.038   0.862   0.277  0.00  0.00    +0.105 C 
ATOM     42  C   LIG    1       -5.905   2.288  -1.284  0.00  0.00    +0.105 C 
ENDBRANCH  19  40
BRANCH   1  43
ATOM     43  O   LIG    1       -4.250  -0.788   1.986  0.00  0.00    -0.373 OA
ATOM     44  H   LIG    1       -3.921  -1.521   2.564  0.00  0.00    +0.211 HD
ENDBRANCH   1  43
BRANCH   2  45
ATOM     45  O   LIG    1       -2.160  -2.785   0.985  0.00  0.00    -0.507 OA
ATOM     46  H   LIG    1       -1.851  -3.330   0.193  0.00  0.00    +0.292 HD
ENDBRANCH   2  45
BRANCH   7  47
ATOM     47  O   LIG    1        2.592  -1.697   0.501  0.00  0.00    -0.504 OA
ATOM     48  H   LIG    1        2.211  -2.518   0.808  0.00  0.00    +0.292 HD
ENDBRANCH   7  47
BRANCH  18  49
ATOM     49  O   LIG    1       -7.222  -1.460  -2.149  0.00  0.00    -0.509 OA
ATOM     50  H   LIG    1       -8.063  -0.940  -2.038  0.00  0.00    +0.292 HD
ENDBRANCH  18  49
TORSDOF 11
