REMARK  Name = molecules/FQUNFJULCYSSOP-UHFFFAOYSA-N.pdb
REMARK                            x       y       z     vdW  Elec       q    Type
REMARK                         _______ _______ _______ _____ _____    ______ ____
ROOT
ATOM      1  C   LIG    1       -0.597   1.539   1.716  0.00  0.00    +0.077 C 
ENDROOT
BRANCH   1   7
ATOM      2  C   LIG    1        1.683   2.447   2.002  0.00  0.00    +0.147 A 
ATOM      3  C   LIG    1        3.056   2.443   1.726  0.00  0.00    +0.128 A 
ATOM      4  C   LIG    1        3.586   1.506   0.847  0.00  0.00    +0.037 A 
ATOM      5  C   LIG    1        2.741   0.586   0.255  0.00  0.00    -0.039 A 
ATOM      6  C   LIG    1        1.401   0.616   0.546  0.00  0.00    +0.011 A 
ATOM      7  C   LIG    1        0.839   1.531   1.414  0.00  0.00    +0.001 A 
BRANCH   3   8
ATOM      8  N   LIG    1        3.944   3.381   2.321  0.00  0.00    -0.146 N 
ATOM      9  N   LIG    1        3.898   3.845   3.550  0.00  0.00    -0.147 NA
ATOM     10  C   LIG    1        4.911   4.723   3.753  0.00  0.00    +0.113 A 
ATOM     11  C   LIG    1        5.351   5.495   4.803  0.00  0.00    +0.032 A 
ATOM     12  C   LIG    1        6.448   6.321   4.716  0.00  0.00    +0.002 A 
ATOM     13  C   LIG    1        7.148   6.384   3.515  0.00  0.00    +0.002 A 
ATOM     14  C   LIG    1        6.709   5.614   2.467  0.00  0.00    +0.032 A 
ATOM     15  C   LIG    1        5.609   4.785   2.554  0.00  0.00    +0.113 A 
ATOM     16  N   LIG    1        4.975   3.948   1.722  0.00  0.00    -0.147 NA
ENDBRANCH   3   8
BRANCH   5  17
ATOM     17  C   LIG    1        3.368  -0.399  -0.678  0.00  0.00    -0.009 C 
ATOM     18  C   LIG    1        4.469  -1.079   0.052  0.00  0.00    +0.016 C 
ATOM     19  C   LIG    1        4.011   0.447  -1.780  0.00  0.00    +0.016 C 
BRANCH  17  20
ATOM     20  C   LIG    1        2.295  -1.280  -1.191  0.00  0.00    +0.017 C 
BRANCH  20  21
ATOM     21  C   LIG    1        2.640  -2.355  -2.145  0.00  0.00    -0.037 C 
ATOM     22  C   LIG    1        3.608  -3.388  -1.679  0.00  0.00    +0.010 C 
ATOM     23  C   LIG    1        1.319  -3.113  -2.406  0.00  0.00    +0.010 C 
ATOM     24  C   LIG    1        3.066  -1.863  -3.514  0.00  0.00    +0.010 C 
ENDBRANCH  20  21
ENDBRANCH  17  20
ENDBRANCH   5  17
BRANCH   2  25
ATOM     25  O   LIG    1        1.206   3.402   2.887  0.00  0.00    -0.504 OA
ATOM     26  H   LIG    1        0.218   3.430   3.107  0.00  0.00    +0.292 HD
ENDBRANCH   2  25
ENDBRANCH   1   7
BRANCH   1  27
ATOM     27  C   LIG    1       -1.380   0.593   0.913  0.00  0.00    +0.001 A 
ATOM     28  C   LIG    1       -1.826  -0.596   1.430  0.00  0.00    +0.011 A 
ATOM     29  C   LIG    1       -2.568  -1.502   0.671  0.00  0.00    -0.039 A 
ATOM     30  C   LIG    1       -2.834  -1.145  -0.629  0.00  0.00    +0.037 A 
ATOM     31  C   LIG    1       -2.414   0.029  -1.199  0.00  0.00    +0.128 A 
ATOM     32  C   LIG    1       -1.675   0.896  -0.393  0.00  0.00    +0.147 A 
BRANCH  31  33
ATOM     33  N   LIG    1       -2.709   0.382  -2.565  0.00  0.00    -0.146 N 
ATOM     34  N   LIG    1       -3.898   0.524  -3.120  0.00  0.00    -0.147 NA
ATOM     35  C   LIG    1       -3.801   0.864  -4.418  0.00  0.00    +0.113 A 
ATOM     36  C   LIG    1       -2.423   0.930  -4.660  0.00  0.00    +0.113 A 
ATOM     37  C   LIG    1       -1.983   1.261  -5.920  0.00  0.00    +0.032 A 
ATOM     38  C   LIG    1       -2.889   1.516  -6.903  0.00  0.00    +0.002 A 
ATOM     39  C   LIG    1       -4.255   1.454  -6.675  0.00  0.00    +0.002 A 
ATOM     40  C   LIG    1       -4.711   1.125  -5.421  0.00  0.00    +0.032 A 
ATOM     41  N   LIG    1       -1.826   0.625  -3.490  0.00  0.00    -0.147 NA
ENDBRANCH  31  33
BRANCH  29  42
ATOM     42  C   LIG    1       -3.032  -2.791   1.263  0.00  0.00    -0.009 C 
ATOM     43  C   LIG    1       -1.734  -3.439   1.797  0.00  0.00    +0.016 C 
ATOM     44  C   LIG    1       -3.502  -3.751   0.197  0.00  0.00    +0.016 C 
BRANCH  42  45
ATOM     45  C   LIG    1       -3.926  -2.669   2.421  0.00  0.00    +0.017 C 
BRANCH  45  46
ATOM     46  C   LIG    1       -5.218  -1.979   2.313  0.00  0.00    -0.037 C 
ATOM     47  C   LIG    1       -5.818  -1.990   3.736  0.00  0.00    +0.010 C 
ATOM     48  C   LIG    1       -5.192  -0.538   1.911  0.00  0.00    +0.010 C 
ATOM     49  C   LIG    1       -6.249  -2.765   1.486  0.00  0.00    +0.010 C 
ENDBRANCH  45  46
ENDBRANCH  42  45
ENDBRANCH  29  42
BRANCH  32  50
ATOM     50  O   LIG    1       -1.262   2.075  -0.993  0.00  0.00    -0.504 OA
ATOM     51  H   LIG    1       -0.727   2.721  -0.436  0.00  0.00    +0.292 HD
ENDBRANCH  32  50
ENDBRANCH   1  27
TORSDOF 12
