REMARK  Name = molecules/FRBBPWXCRBHYJQ-FQEVSTJZSA-N.pdb
REMARK                            x       y       z     vdW  Elec       q    Type
REMARK                         _______ _______ _______ _____ _____    ______ ____
ROOT
ATOM      1  C   LIG    1       -0.859   0.360  -0.290  0.00  0.00    +0.092 C 
ENDROOT
BRANCH   1   2
ATOM      2  C   LIG    1       -1.689  -0.191   0.829  0.00  0.00    +0.025 C 
ATOM      3  C   LIG    1       -1.586  -1.637   1.109  0.00  0.00    +0.007 C 
ATOM      4  C   LIG    1       -2.630  -2.540   0.526  0.00  0.00    +0.000 C 
ATOM      5  C   LIG    1       -4.021  -2.012   0.577  0.00  0.00    +0.000 C 
ATOM      6  C   LIG    1       -3.957  -0.706  -0.232  0.00  0.00    +0.000 C 
ATOM      7  C   LIG    1       -3.141   0.216   0.575  0.00  0.00    +0.007 C 
ENDBRANCH   1   2
BRANCH   1   8
ATOM      8  C   LIG    1       -1.179   1.839  -0.344  0.00  0.00    -0.016 A 
ATOM      9  C   LIG    1       -0.988   2.583   0.794  0.00  0.00    +0.006 A 
ATOM     10  C   LIG    1       -1.276   3.932   0.786  0.00  0.00    +0.000 A 
ATOM     11  C   LIG    1       -1.746   4.526  -0.343  0.00  0.00    +0.000 A 
ATOM     12  C   LIG    1       -1.933   3.772  -1.481  0.00  0.00    +0.000 A 
ATOM     13  C   LIG    1       -1.649   2.417  -1.486  0.00  0.00    +0.006 A 
ENDBRANCH   1   8
BRANCH   1  14
ATOM     14  O   LIG    1       -1.391  -0.170  -1.517  0.00  0.00    -0.384 OA
ATOM     15  H   LIG    1       -0.663  -0.123  -2.153  0.00  0.00    +0.211 HD
ENDBRANCH   1  14
BRANCH   1  16
ATOM     16  C   LIG    1        0.596   0.246  -0.289  0.00  0.00    +0.022 C 
BRANCH  16  17
ATOM     17  C   LIG    1        1.312  -1.036  -0.379  0.00  0.00    -0.072 C 
BRANCH  17  18
ATOM     18  N   LIG    1        2.784  -0.794  -0.508  0.00  0.00    +0.378 N 
ATOM     19  C   LIG    1        3.127   0.104   0.583  0.00  0.00    -0.076 C 
ATOM     20  C   LIG    1        4.549  -0.306   0.939  0.00  0.00    -0.020 C 
ATOM     21  C   LIG    1        4.467  -1.801   0.840  0.00  0.00    -0.020 C 
ATOM     22  C   LIG    1        3.415  -2.042  -0.214  0.00  0.00    -0.076 C 
ATOM     23  C   LIG    1        3.135  -0.310  -1.802  0.00  0.00    -0.092 C 
ENDBRANCH  17  18
ENDBRANCH  16  17
ENDBRANCH   1  16
TORSDOF 6
