REMARK  Name = molecules/FRPZMMHWLSIFAZ-UHFFFAOYSA-N.pdb
REMARK                            x       y       z     vdW  Elec       q    Type
REMARK                         _______ _______ _______ _____ _____    ______ ____
ROOT
ATOM      1  C   LIG    1        0.806   0.607   1.170  0.00  0.00    +0.000 C 
ENDROOT
BRANCH   1   2
ATOM      2  C   LIG    1        2.054  -0.075   1.624  0.00  0.00    +0.001 C 
BRANCH   2   3
ATOM      3  C   LIG    1        2.894  -0.590   0.486  0.00  0.00    +0.011 C 
BRANCH   3   4
ATOM      4  C   LIG    1        3.299   0.541  -0.396  0.00  0.00    +0.120 C 
BRANCH   4   5
ATOM      5  C   LIG    1        4.144   0.108  -1.539  0.00  0.00    +0.305 C 
ATOM      6  O   LIG    1        4.524   1.023  -2.329  0.00  0.00    -0.251 OA
BRANCH   5   7
ATOM      7  O   LIG    1        4.530  -1.173  -1.792  0.00  0.00    -0.481 OA
ATOM      8  H   LIG    1        5.452  -1.563  -1.663  0.00  0.00    +0.295 HD
ENDBRANCH   5   7
ENDBRANCH   4   5
ENDBRANCH   3   4
ENDBRANCH   2   3
ENDBRANCH   1   2
BRANCH   1   9
ATOM      9  C   LIG    1       -0.032  -0.364   0.376  0.00  0.00    +0.000 C 
BRANCH   9  10
ATOM     10  C   LIG    1       -1.305   0.382  -0.060  0.00  0.00    +0.000 C 
BRANCH  10  11
ATOM     11  C   LIG    1       -2.133  -0.589  -0.850  0.00  0.00    +0.004 C 
BRANCH  11  12
ATOM     12  C   LIG    1       -3.396   0.095  -1.309  0.00  0.00    +0.026 C 
BRANCH  12  13
ATOM     13  C   LIG    1       -4.160   0.549  -0.129  0.00  0.00    -0.034 C 
ATOM     14  C   LIG    1       -5.386   0.054   0.039  0.00  0.00    +0.004 C 
ENDBRANCH  12  13
ENDBRANCH  11  12
ENDBRANCH  10  11
ENDBRANCH   9  10
ENDBRANCH   1   9
TORSDOF 10
