REMARK  Name = molecules/FSVJFNAIGNNGKK-KRWDZBQOSA-N.pdb
REMARK                            x       y       z     vdW  Elec       q    Type
REMARK                         _______ _______ _______ _____ _____    ______ ____
ROOT
ATOM      1  O   LIG    1       -1.257  -2.193  -2.032  0.00  0.00    -0.274 OA
ATOM      2  C   LIG    1       -1.018  -1.621  -0.942  0.00  0.00    +0.233 C 
ATOM      3  N   LIG    1       -2.094  -1.236  -0.100  0.00  0.00    -0.291 N 
ATOM      4  C   LIG    1       -2.005  -0.102   0.755  0.00  0.00    +0.124 C 
ATOM      5  C   LIG    1       -3.226   0.719   0.590  0.00  0.00    -0.022 A 
ATOM      6  C   LIG    1       -3.254   1.973   1.145  0.00  0.00    +0.006 A 
ATOM      7  C   LIG    1       -4.390   2.765   1.004  0.00  0.00    +0.000 A 
ATOM      8  C   LIG    1       -5.478   2.281   0.307  0.00  0.00    +0.000 A 
ATOM      9  C   LIG    1       -5.440   1.023  -0.244  0.00  0.00    +0.004 A 
ATOM     10  C   LIG    1       -4.298   0.222  -0.105  0.00  0.00    -0.041 A 
ATOM     11  C   LIG    1       -4.369  -1.114  -0.739  0.00  0.00    +0.054 C 
ATOM     12  C   LIG    1       -0.781   0.734   0.547  0.00  0.00    +0.135 C 
ATOM     13  N   LIG    1        0.353   0.034   0.049  0.00  0.00    -0.290 N 
ATOM     14  C   LIG    1        1.615   0.721   0.058  0.00  0.00    +0.219 C 
ATOM     15  O   LIG    1        1.667   1.885   0.486  0.00  0.00    -0.275 OA
ATOM     16  C   LIG    1       -3.338  -2.004  -0.089  0.00  0.00    +0.113 C 
ATOM     17  C   LIG    1        0.351  -1.314  -0.466  0.00  0.00    +0.203 C 
ENDROOT
BRANCH  14  18
ATOM     18  C   LIG    1        2.863   0.086  -0.427  0.00  0.00    +0.075 C 
ATOM     19  C   LIG    1        3.279  -1.104   0.347  0.00  0.00    +0.013 C 
ATOM     20  C   LIG    1        4.688  -1.137   0.814  0.00  0.00    +0.001 C 
ATOM     21  C   LIG    1        5.699  -0.462  -0.032  0.00  0.00    +0.000 C 
ATOM     22  C   LIG    1        5.149   0.460  -1.081  0.00  0.00    +0.001 C 
ATOM     23  C   LIG    1        3.919   1.150  -0.537  0.00  0.00    +0.013 C 
ENDBRANCH  14  18
TORSDOF 1
