REMARK  Name = molecules/FTCYIGBVOHNHCD-UHFFFAOYSA-N.pdb
REMARK                            x       y       z     vdW  Elec       q    Type
REMARK                         _______ _______ _______ _____ _____    ______ ____
ROOT
ATOM      1  C   LIG    1        0.843  -0.313   0.406  0.00  0.00    +0.215 A 
ATOM      2  N   LIG    1        1.853  -1.083   0.838  0.00  0.00    -0.223 NA
ATOM      3  C   LIG    1        3.144  -0.836   0.535  0.00  0.00    +0.116 A 
ATOM      4  C   LIG    1        3.444   0.256  -0.252  0.00  0.00    +0.039 A 
ATOM      5  C   LIG    1        2.410   1.067  -0.710  0.00  0.00    +0.116 A 
ATOM      6  N   LIG    1        1.162   0.748  -0.363  0.00  0.00    -0.223 NA
ENDROOT
BRANCH   1   7
ATOM      7  N   LIG    1       -0.521  -0.569   0.721  0.00  0.00    -0.311 N 
ATOM      8  H   LIG    1       -0.699  -1.405   1.320  0.00  0.00    +0.149 HD
BRANCH   7  10
ATOM      9  C   LIG    1       -2.913  -0.312   0.785  0.00  0.00    +0.027 C 
ATOM     10  C   LIG    1       -1.605   0.242   0.268  0.00  0.00    +0.067 C 
ATOM     11  C   LIG    1       -1.710   0.324  -1.232  0.00  0.00    +0.027 C 
ENDBRANCH   7  10
ENDBRANCH   1   7
TORSDOF 2
