REMARK  Name = molecules/FTLDJPRFCGDUFH-UHFFFAOYSA-N.pdb
REMARK                            x       y       z     vdW  Elec       q    Type
REMARK                         _______ _______ _______ _____ _____    ______ ____
ROOT
ATOM      1  N   LIG    1       -0.085  -1.230   1.760  0.00  0.00    -0.283 NA
ENDROOT
BRANCH   1   2
ATOM      2  C   LIG    1        0.685  -0.063   1.556  0.00  0.00    +0.181 C 
BRANCH   2   5
ATOM      3  N   LIG    1        2.850   0.915   0.781  0.00  0.00    -0.298 N 
ATOM      4  C   LIG    1        2.398   2.223   1.166  0.00  0.00    +0.132 C 
ATOM      5  C   LIG    1        2.024  -0.215   0.986  0.00  0.00    +0.230 C 
ATOM      6  O   LIG    1        2.471  -1.331   0.668  0.00  0.00    -0.274 OA
BRANCH   3   7
ATOM      7  C   LIG    1        4.183   0.799   0.202  0.00  0.00    +0.035 C 
ATOM      8  C   LIG    1        5.011  -0.022   1.162  0.00  0.00    +0.032 C 
ATOM      9  C   LIG    1        4.759   2.196   0.071  0.00  0.00    +0.032 C 
BRANCH   7  10
ATOM     10  C   LIG    1        4.191   0.186  -1.163  0.00  0.00    +0.060 C 
BRANCH  10  11
ATOM     11  C   LIG    1        5.615   0.130  -1.639  0.00  0.00    -0.045 A 
ATOM     12  C   LIG    1        6.412  -0.963  -1.369  0.00  0.00    +0.004 A 
ATOM     13  C   LIG    1        7.736  -1.044  -1.800  0.00  0.00    +0.000 A 
ATOM     14  C   LIG    1        8.294  -0.012  -2.522  0.00  0.00    +0.000 A 
ATOM     15  C   LIG    1        7.508   1.087  -2.797  0.00  0.00    +0.000 A 
ATOM     16  C   LIG    1        6.180   1.160  -2.361  0.00  0.00    +0.004 A 
ENDBRANCH  10  11
ENDBRANCH   7  10
ENDBRANCH   3   7
ENDBRANCH   2   5
ENDBRANCH   1   2
BRANCH   1  17
ATOM     17  C   LIG    1       -1.370  -1.085   2.269  0.00  0.00    +0.181 C 
BRANCH  17  18
ATOM     18  C   LIG    1       -2.483  -0.580   1.498  0.00  0.00    +0.230 C 
ATOM     19  O   LIG    1       -3.577  -0.434   2.215  0.00  0.00    -0.274 OA
ATOM     20  N   LIG    1       -2.652  -0.218   0.163  0.00  0.00    -0.298 N 
ATOM     21  C   LIG    1       -1.592  -0.438  -0.798  0.00  0.00    +0.132 C 
BRANCH  20  22
ATOM     22  C   LIG    1       -3.886   0.335  -0.373  0.00  0.00    +0.035 C 
ATOM     23  C   LIG    1       -4.122   1.621   0.435  0.00  0.00    +0.032 C 
ATOM     24  C   LIG    1       -3.642   0.787  -1.794  0.00  0.00    +0.032 C 
BRANCH  22  25
ATOM     25  C   LIG    1       -5.068  -0.561  -0.256  0.00  0.00    +0.060 C 
BRANCH  25  26
ATOM     26  C   LIG    1       -6.314   0.043  -0.824  0.00  0.00    -0.045 A 
ATOM     27  C   LIG    1       -7.178   0.802  -0.082  0.00  0.00    +0.004 A 
ATOM     28  C   LIG    1       -8.338   1.356  -0.626  0.00  0.00    +0.000 A 
ATOM     29  C   LIG    1       -8.653   1.152  -1.954  0.00  0.00    +0.000 A 
ATOM     30  C   LIG    1       -7.790   0.395  -2.695  0.00  0.00    +0.000 A 
ATOM     31  C   LIG    1       -6.639  -0.159  -2.163  0.00  0.00    +0.004 A 
ENDBRANCH  25  26
ENDBRANCH  22  25
ENDBRANCH  20  22
ENDBRANCH  17  18
ENDBRANCH   1  17
BRANCH   1  32
ATOM     32  C   LIG    1        0.504  -2.493   1.607  0.00  0.00    +0.113 C 
BRANCH  32  33
ATOM     33  C   LIG    1       -0.430  -3.652   1.982  0.00  0.00    +0.171 C 
BRANCH  33  34
ATOM     34  O   LIG    1        0.359  -4.808   1.742  0.00  0.00    -0.394 OA
ATOM     35  H   LIG    1       -0.042  -5.595   2.199  0.00  0.00    +0.209 HD
ENDBRANCH  33  34
ENDBRANCH  32  33
ENDBRANCH   1  32
TORSDOF 13
