REMARK  Name = molecules/FUWFSXZKBMCSKF-ZASNTINBSA-N.pdb
REMARK                            x       y       z     vdW  Elec       q    Type
REMARK                         _______ _______ _______ _____ _____    ______ ____
ROOT
ATOM      1  C   LIG    1        0.209   0.193  -0.617  0.00  0.00    +0.282 C 
ATOM      2  C   LIG    1       -1.193  -0.370  -0.597  0.00  0.00    +0.255 C 
ATOM      3  C   LIG    1       -1.852   0.483  -1.673  0.00  0.00    +0.204 C 
ATOM      4  O   LIG    1       -1.391   1.744  -1.331  0.00  0.00    -0.332 OA
ATOM      5  C   LIG    1       -0.059   1.628  -1.030  0.00  0.00    +0.245 C 
ENDROOT
BRANCH   5   6
ATOM      6  O   LIG    1        0.234   2.424   0.082  0.00  0.00    -0.359 OA
ATOM      7  H   LIG    1        1.043   2.098   0.541  0.00  0.00    +0.213 HD
ENDBRANCH   5   6
BRANCH   1   8
ATOM      8  O   LIG    1        0.827   0.081   0.627  0.00  0.00    -0.448 OA
BRANCH   8   9
ATOM      9  C   LIG    1        2.033  -0.520   0.862  0.00  0.00    +0.341 C 
ATOM     10  O   LIG    1        2.650  -1.018  -0.110  0.00  0.00    -0.245 OA
BRANCH   9  11
ATOM     11  C   LIG    1        2.550  -0.558   2.223  0.00  0.00    +0.077 A 
ATOM     12  C   LIG    1        1.850  -0.002   3.271  0.00  0.00    +0.018 A 
ATOM     13  C   LIG    1        2.382  -0.063   4.543  0.00  0.00    +0.020 A 
ATOM     14  C   LIG    1        3.596  -0.670   4.771  0.00  0.00    +0.111 A 
ATOM     15  N   LIG    1        4.260  -1.206   3.723  0.00  0.00    -0.262 NA
ATOM     16  C   LIG    1        3.769  -1.160   2.489  0.00  0.00    +0.125 A 
ENDBRANCH   9  11
ENDBRANCH   8   9
ENDBRANCH   1   8
BRANCH   2  17
ATOM     17  O   LIG    1       -1.258  -1.735  -0.873  0.00  0.00    -0.451 OA
BRANCH  17  18
ATOM     18  C   LIG    1       -1.815  -2.691  -0.076  0.00  0.00    +0.341 C 
ATOM     19  O   LIG    1       -2.325  -2.345   1.012  0.00  0.00    -0.245 OA
BRANCH  18  20
ATOM     20  C   LIG    1       -1.804  -4.083  -0.504  0.00  0.00    +0.077 A 
ATOM     21  C   LIG    1       -2.356  -5.094   0.268  0.00  0.00    +0.125 A 
ATOM     22  N   LIG    1       -2.338  -6.372  -0.143  0.00  0.00    -0.262 NA
ATOM     23  C   LIG    1       -1.786  -6.730  -1.317  0.00  0.00    +0.111 A 
ATOM     24  C   LIG    1       -1.227  -5.755  -2.112  0.00  0.00    +0.020 A 
ATOM     25  C   LIG    1       -1.235  -4.433  -1.710  0.00  0.00    +0.018 A 
ENDBRANCH  18  20
ENDBRANCH  17  18
ENDBRANCH   2  17
BRANCH   3  26
ATOM     26  C   LIG    1       -3.331   0.331  -1.677  0.00  0.00    +0.268 C 
BRANCH  26  27
ATOM     27  O   LIG    1       -3.998   0.554  -0.493  0.00  0.00    -0.458 OA
BRANCH  27  28
ATOM     28  C   LIG    1       -4.065   1.706   0.232  0.00  0.00    +0.341 C 
ATOM     29  O   LIG    1       -3.469   2.718  -0.188  0.00  0.00    -0.245 OA
BRANCH  28  30
ATOM     30  C   LIG    1       -4.817   1.798   1.493  0.00  0.00    +0.077 A 
ATOM     31  C   LIG    1       -4.841   2.989   2.167  0.00  0.00    +0.018 A 
ATOM     32  C   LIG    1       -5.537   3.127   3.361  0.00  0.00    +0.020 A 
ATOM     33  C   LIG    1       -6.202   2.019   3.843  0.00  0.00    +0.111 A 
ATOM     34  N   LIG    1       -6.161   0.862   3.157  0.00  0.00    -0.262 NA
ATOM     35  C   LIG    1       -5.490   0.718   2.001  0.00  0.00    +0.125 A 
ENDBRANCH  28  30
ENDBRANCH  27  28
ENDBRANCH  26  27
ENDBRANCH   3  26
BRANCH   5  36
ATOM     36  C   LIG    1        0.754   2.038  -2.214  0.00  0.00    +0.301 C 
BRANCH  36  37
ATOM     37  O   LIG    1        2.160   1.921  -1.956  0.00  0.00    -0.456 OA
BRANCH  37  38
ATOM     38  C   LIG    1        3.105   2.246  -2.905  0.00  0.00    +0.341 C 
ATOM     39  O   LIG    1        2.690   2.653  -4.015  0.00  0.00    -0.245 OA
BRANCH  38  40
ATOM     40  C   LIG    1        4.537   2.141  -2.685  0.00  0.00    +0.077 A 
ATOM     41  C   LIG    1        5.079   1.701  -1.494  0.00  0.00    +0.018 A 
ATOM     42  C   LIG    1        6.447   1.639  -1.388  0.00  0.00    +0.020 A 
ATOM     43  C   LIG    1        7.266   2.001  -2.432  0.00  0.00    +0.111 A 
ATOM     44  N   LIG    1        6.710   2.423  -3.572  0.00  0.00    -0.262 NA
ATOM     45  C   LIG    1        5.391   2.493  -3.703  0.00  0.00    +0.125 A 
ENDBRANCH  38  40
ENDBRANCH  37  38
ENDBRANCH  36  37
ENDBRANCH   5  36
TORSDOF 15
