REMARK  Name = molecules/FVIGODVHAVLZOO-UHFFFAOYSA-N.pdb
REMARK                            x       y       z     vdW  Elec       q    Type
REMARK                         _______ _______ _______ _____ _____    ______ ____
ROOT
ATOM      1  S   LIG    1        0.229  -1.540  -1.405  0.00  0.00    -0.003 S 
ENDROOT
BRANCH   1   2
ATOM      2  C   LIG    1        1.332  -0.238  -1.871  0.00  0.00    +0.211 C 
ATOM      3  S   LIG    1        1.546   0.101  -3.436  0.00  0.00    -0.003 S 
BRANCH   2   4
ATOM      4  O   LIG    1        2.003   0.481  -0.915  0.00  0.00    -0.480 OA
BRANCH   4   6
ATOM      5  C   LIG    1        3.930   0.998   0.467  0.00  0.00    +0.048 C 
ATOM      6  C   LIG    1        3.326   0.134  -0.585  0.00  0.00    +0.227 C 
ENDBRANCH   4   6
ENDBRANCH   2   4
ENDBRANCH   1   2
BRANCH   1   7
ATOM      7  S   LIG    1        0.134  -1.774   0.710  0.00  0.00    -0.003 S 
BRANCH   7   8
ATOM      8  C   LIG    1       -1.153  -0.755   1.411  0.00  0.00    +0.211 C 
ATOM      9  S   LIG    1       -1.359  -0.817   3.029  0.00  0.00    -0.003 S 
BRANCH   8  10
ATOM     10  O   LIG    1       -1.962   0.063   0.673  0.00  0.00    -0.480 OA
BRANCH  10  11
ATOM     11  C   LIG    1       -3.358  -0.182   0.686  0.00  0.00    +0.227 C 
ATOM     12  C   LIG    1       -4.116   0.806  -0.176  0.00  0.00    +0.048 C 
ENDBRANCH  10  11
ENDBRANCH   8  10
ENDBRANCH   7   8
ENDBRANCH   1   7
TORSDOF 7
