REMARK  Name = molecules/FVRDYQYEVDDKCR-DBRKOABJSA-N.pdb
REMARK                            x       y       z     vdW  Elec       q    Type
REMARK                         _______ _______ _______ _____ _____    ______ ____
ROOT
ATOM      1  C   LIG    1       -1.203  -0.900   0.872  0.00  0.00    +0.181 C 
ATOM      2  C   LIG    1       -2.404  -0.010   0.671  0.00  0.00    +0.177 C 
ATOM      3  C   LIG    1       -2.269   0.531  -0.712  0.00  0.00    +0.176 C 
ATOM      4  O   LIG    1       -1.049   0.110  -1.225  0.00  0.00    -0.359 OA
ATOM      5  C   LIG    1       -0.679  -1.034  -0.543  0.00  0.00    +0.205 C 
ENDROOT
BRANCH   5   6
ATOM      6  C   LIG    1        0.799  -1.165  -0.435  0.00  0.00    +0.110 A 
ATOM      7  N   LIG    1        1.747  -0.326  -0.130  0.00  0.00    -0.237 NA
ATOM      8  C   LIG    1        2.987  -0.708  -0.108  0.00  0.00    +0.133 A 
ATOM      9  C   LIG    1        3.247  -2.022  -0.419  0.00  0.00    +0.080 A 
ATOM     10  S   LIG    1        1.659  -2.613  -0.722  0.00  0.00    -0.077 S 
BRANCH   8  11
ATOM     11  C   LIG    1        4.095   0.220   0.235  0.00  0.00    +0.260 C 
ATOM     12  N   LIG    1        3.869   1.585   0.562  0.00  0.00    -0.324 N 
ATOM     13  H   LIG    1        4.447   2.062   1.293  0.00  0.00    +0.145 HD
ATOM     14  H   LIG    1        3.135   2.164   0.103  0.00  0.00    +0.145 HD
ATOM     15  O   LIG    1        5.291  -0.157   0.254  0.00  0.00    -0.269 OA
ENDBRANCH   8  11
ENDBRANCH   5   6
BRANCH   1  16
ATOM     16  O   LIG    1       -1.517  -2.119   1.444  0.00  0.00    -0.386 OA
ATOM     17  H   LIG    1       -1.915  -2.695   0.731  0.00  0.00    +0.210 HD
ENDBRANCH   1  16
BRANCH   2  18
ATOM     18  O   LIG    1       -3.545  -0.789   0.853  0.00  0.00    -0.386 OA
ATOM     19  H   LIG    1       -3.423  -1.256   1.725  0.00  0.00    +0.210 HD
ENDBRANCH   2  18
BRANCH   3  20
ATOM     20  C   LIG    1       -2.222   2.048  -0.621  0.00  0.00    +0.190 C 
BRANCH  20  21
ATOM     21  O   LIG    1       -2.016   2.579  -1.890  0.00  0.00    -0.392 OA
ATOM     22  H   LIG    1       -1.618   3.487  -1.858  0.00  0.00    +0.210 HD
ENDBRANCH  20  21
ENDBRANCH   3  20
TORSDOF 6
