REMARK  Name = molecules/FVRWRGBTEHAPDI-OAHLLOKOSA-N.pdb
REMARK                            x       y       z     vdW  Elec       q    Type
REMARK                         _______ _______ _______ _____ _____    ______ ____
ROOT
ATOM      1  C   LIG    1       -0.582   1.911   0.123  0.00  0.00    +0.125 C 
ATOM      2  C   LIG    1       -0.547   2.325  -1.350  0.00  0.00    +0.024 C 
ENDROOT
BRANCH   1   3
ATOM      3  C   LIG    1        0.630   1.091   0.360  0.00  0.00    -0.034 A 
ATOM      4  C   LIG    1        1.645   1.473   1.200  0.00  0.00    +0.005 A 
ATOM      5  C   LIG    1        2.726   0.643   1.352  0.00  0.00    +0.004 A 
ATOM      6  C   LIG    1        2.834  -0.576   0.685  0.00  0.00    -0.047 A 
ATOM      7  C   LIG    1        1.808  -0.952  -0.159  0.00  0.00    +0.004 A 
ATOM      8  C   LIG    1        0.714  -0.128  -0.322  0.00  0.00    +0.005 A 
BRANCH   6   9
ATOM      9  C   LIG    1        4.029  -1.440   0.884  0.00  0.00    +0.038 C 
BRANCH   9  10
ATOM     10  C   LIG    1        5.080  -1.054  -0.158  0.00  0.00    -0.013 C 
ATOM     11  C   LIG    1        6.316  -1.883  -0.020  0.00  0.00    +0.007 C 
ATOM     12  C   LIG    1        5.399   0.425  -0.068  0.00  0.00    +0.007 C 
ENDBRANCH   9  10
ENDBRANCH   6   9
ENDBRANCH   1   3
BRANCH   1  13
ATOM     13  C   LIG    1       -1.768   1.113   0.438  0.00  0.00    +0.320 C 
ATOM     14  O   LIG    1       -1.616  -0.071   0.836  0.00  0.00    -0.250 OA
BRANCH  13  15
ATOM     15  O   LIG    1       -3.076   1.626   0.309  0.00  0.00    -0.422 OA
BRANCH  15  16
ATOM     16  C   LIG    1       -4.109   0.764   0.640  0.00  0.00    +0.173 A 
ATOM     17  C   LIG    1       -4.610   0.691   1.921  0.00  0.00    +0.050 A 
ATOM     18  C   LIG    1       -5.647  -0.173   2.256  0.00  0.00    +0.004 A 
ATOM     19  C   LIG    1       -6.182  -0.974   1.272  0.00  0.00    +0.004 A 
ATOM     20  C   LIG    1       -5.706  -0.928  -0.022  0.00  0.00    +0.049 A 
ATOM     21  C   LIG    1       -4.660  -0.047  -0.328  0.00  0.00    +0.162 A 
BRANCH  21  22
ATOM     22  O   LIG    1       -4.138   0.046  -1.611  0.00  0.00    -0.491 OA
ATOM     23  C   LIG    1       -4.697  -0.783  -2.610  0.00  0.00    +0.277 C 
ENDBRANCH  21  22
ENDBRANCH  15  16
ENDBRANCH  13  15
ENDBRANCH   1  13
TORSDOF 7
