REMARK  Name = molecules/FVTWTVQXNAJTQP-KRKINAOUSA-N.pdb
REMARK                            x       y       z     vdW  Elec       q    Type
REMARK                         _______ _______ _______ _____ _____    ______ ____
ROOT
ATOM      1  C   LIG    1       -1.678  -0.340   0.155  0.00  0.00    +0.003 C 
ATOM      2  C   LIG    1       -1.113   0.246   1.471  0.00  0.00    -0.008 C 
ATOM      3  C   LIG    1        0.390   0.071   1.487  0.00  0.00    -0.074 C 
ATOM      4  N   LIG    1        0.820   0.207   0.096  0.00  0.00    +0.382 N 
ATOM      5  C   LIG    1        0.017   1.309  -0.414  0.00  0.00    -0.074 C 
ATOM      6  C   LIG    1        0.538  -1.054  -0.529  0.00  0.00    -0.074 C 
ATOM      7  C   LIG    1       -0.825  -1.567  -0.087  0.00  0.00    -0.008 C 
ATOM      8  C   LIG    1       -1.316   0.671  -0.874  0.00  0.00    -0.008 C 
ENDROOT
BRANCH   1   9
ATOM      9  C   LIG    1       -3.089  -0.625   0.425  0.00  0.00    +0.121 C 
BRANCH   9  10
ATOM     10  C   LIG    1       -3.832   0.555   0.923  0.00  0.00    -0.011 A 
ATOM     11  C   LIG    1       -4.019   0.850   2.256  0.00  0.00    +0.007 A 
ATOM     12  C   LIG    1       -4.721   1.946   2.723  0.00  0.00    +0.000 A 
ATOM     13  C   LIG    1       -5.259   2.779   1.790  0.00  0.00    +0.000 A 
ATOM     14  C   LIG    1       -5.112   2.543   0.443  0.00  0.00    +0.000 A 
ATOM     15  C   LIG    1       -4.409   1.447   0.010  0.00  0.00    +0.007 A 
ENDBRANCH   9  10
BRANCH   9  16
ATOM     16  C   LIG    1       -3.869  -1.381  -0.571  0.00  0.00    -0.011 A 
ATOM     17  C   LIG    1       -5.066  -1.949  -0.106  0.00  0.00    +0.007 A 
ATOM     18  C   LIG    1       -5.893  -2.674  -0.912  0.00  0.00    +0.000 A 
ATOM     19  C   LIG    1       -5.588  -2.879  -2.218  0.00  0.00    +0.000 A 
ATOM     20  C   LIG    1       -4.421  -2.336  -2.711  0.00  0.00    +0.000 A 
ATOM     21  C   LIG    1       -3.590  -1.599  -1.874  0.00  0.00    +0.007 A 
ENDBRANCH   9  16
BRANCH   9  22
ATOM     22  O   LIG    1       -3.053  -1.541   1.537  0.00  0.00    -0.379 OA
ATOM     23  H   LIG    1       -2.719  -2.395   1.113  0.00  0.00    +0.211 HD
ENDBRANCH   9  22
ENDBRANCH   1   9
BRANCH   4  24
ATOM     24  C   LIG    1        2.237   0.530   0.130  0.00  0.00    -0.047 C 
BRANCH  24  25
ATOM     25  C   LIG    1        2.975   0.002  -1.049  0.00  0.00    +0.142 C 
BRANCH  25  26
ATOM     26  O   LIG    1        4.307   0.343  -0.980  0.00  0.00    -0.377 OA
BRANCH  26  27
ATOM     27  C   LIG    1        4.983  -0.139   0.121  0.00  0.00    +0.195 C 
BRANCH  27  28
ATOM     28  C   LIG    1        6.401   0.323  -0.027  0.00  0.00    -0.022 A 
ATOM     29  C   LIG    1        6.712   1.580   0.429  0.00  0.00    +0.006 A 
ATOM     30  C   LIG    1        8.023   1.997   0.288  0.00  0.00    +0.000 A 
ATOM     31  C   LIG    1        8.985   1.207  -0.279  0.00  0.00    +0.000 A 
ATOM     32  C   LIG    1        8.641  -0.051  -0.728  0.00  0.00    +0.000 A 
ATOM     33  C   LIG    1        7.335  -0.505  -0.603  0.00  0.00    +0.006 A 
ENDBRANCH  27  28
ENDBRANCH  26  27
ENDBRANCH  25  26
ENDBRANCH  24  25
ENDBRANCH   4  24
TORSDOF 9
