REMARK  Name = molecules/FVYUQFQCEOZYHZ-CYBMUJFWSA-N.pdb
REMARK                            x       y       z     vdW  Elec       q    Type
REMARK                         _______ _______ _______ _____ _____    ______ ____
ROOT
ATOM      1  C   LIG    1       -3.991   0.305  -0.109  0.00  0.00    +0.055 A 
ATOM      2  C   LIG    1       -4.353  -1.020   0.093  0.00  0.00    +0.012 A 
ATOM      3  C   LIG    1       -3.387  -1.964   0.363  0.00  0.00    +0.001 A 
ATOM      4  C   LIG    1       -2.038  -1.617   0.439  0.00  0.00    +0.006 A 
ATOM      5  C   LIG    1       -1.664  -0.308   0.241  0.00  0.00    -0.017 A 
ATOM      6  C   LIG    1       -2.663   0.624  -0.031  0.00  0.00    +0.018 A 
ENDROOT
BRANCH   5   7
ATOM      7  C   LIG    1       -0.290   0.217   0.322  0.00  0.00    +0.162 C 
ATOM      8  C   LIG    1        0.802  -0.790   0.205  0.00  0.00    +0.121 C 
ATOM      9  N   LIG    1        2.026  -0.082   0.623  0.00  0.00    -0.295 NA
ATOM     10  C   LIG    1        1.825   1.356   0.648  0.00  0.00    +0.113 C 
ATOM     11  C   LIG    1        1.053   1.873  -0.537  0.00  0.00    +0.176 C 
ATOM     12  O   LIG    1       -0.112   1.131  -0.723  0.00  0.00    -0.369 OA
BRANCH   9  13
ATOM     13  C   LIG    1        3.134  -0.443  -0.210  0.00  0.00    +0.051 C 
ATOM     14  C   LIG    1        4.342   0.380   0.226  0.00  0.00    +0.024 C 
ATOM     15  C   LIG    1        3.440  -1.906  -0.095  0.00  0.00    +0.024 C 
ENDBRANCH   9  13
ENDBRANCH   5   7
BRANCH   1  16
ATOM     16  C   LIG    1       -5.032   1.320  -0.400  0.00  0.00    +0.417 C 
ATOM     17  F   LIG    1       -5.797   1.450   0.746  0.00  0.00    -0.166 F 
ATOM     18  F   LIG    1       -4.410   2.554  -0.621  0.00  0.00    -0.166 F 
ATOM     19  F   LIG    1       -5.761   1.040  -1.511  0.00  0.00    -0.166 F 
ENDBRANCH   1  16
TORSDOF 3
