REMARK  Name = molecules/FWFVLWGEFDIZMJ-FOMYWIRZSA-N.pdb
REMARK                            x       y       z     vdW  Elec       q    Type
REMARK                         _______ _______ _______ _____ _____    ______ ____
ROOT
ATOM      1  C   LIG    1       -1.296   0.798   1.737  0.00  0.00    +0.015 C 
ATOM      2  C   LIG    1       -0.940  -0.413   0.969  0.00  0.00    +0.009 C 
ATOM      3  C   LIG    1        0.238  -1.153   1.556  0.00  0.00    +0.133 C 
ATOM      4  C   LIG    1       -0.317  -1.454   2.941  0.00  0.00    +0.043 C 
ATOM      5  C   LIG    1       -1.818  -1.705   2.687  0.00  0.00    +0.008 C 
ATOM      6  C   LIG    1       -2.006  -1.507   1.212  0.00  0.00    +0.002 C 
ATOM      7  C   LIG    1       -3.300  -0.951   0.784  0.00  0.00    -0.001 C 
ATOM      8  C   LIG    1       -4.338  -2.087   0.904  0.00  0.00    +0.008 C 
ATOM      9  C   LIG    1       -5.708  -1.494   0.761  0.00  0.00    +0.032 C 
ATOM     10  C   LIG    1       -5.767  -0.401  -0.223  0.00  0.00    -0.060 C 
ATOM     11  C   LIG    1       -6.981  -0.007  -0.595  0.00  0.00    +0.046 C 
ATOM     12  C   LIG    1       -7.097   1.073  -1.566  0.00  0.00    +0.156 C 
ATOM     13  O   LIG    1       -8.077   1.851  -1.560  0.00  0.00    -0.293 OA
ATOM     14  C   LIG    1       -6.055   1.296  -2.606  0.00  0.00    +0.080 C 
ATOM     15  C   LIG    1       -4.897   0.372  -2.329  0.00  0.00    +0.019 C 
ATOM     16  C   LIG    1       -4.614   0.288  -0.824  0.00  0.00    -0.005 C 
ATOM     17  C   LIG    1       -4.523   1.660  -0.214  0.00  0.00    +0.016 C 
ATOM     18  C   LIG    1       -3.345  -0.523  -0.649  0.00  0.00    +0.031 C 
ATOM     19  C   LIG    1       -2.134   0.158  -1.156  0.00  0.00    +0.119 C 
ATOM     20  C   LIG    1       -0.849  -0.256  -0.503  0.00  0.00    +0.041 C 
ENDROOT
BRANCH   3  21
ATOM     21  C   LIG    1        1.469  -0.394   1.514  0.00  0.00    +0.202 C 
ATOM     22  O   LIG    1        1.607   0.680   2.058  0.00  0.00    -0.291 OA
BRANCH  21  23
ATOM     23  C   LIG    1        2.707  -0.876   0.781  0.00  0.00    +0.309 C 
BRANCH  23  24
ATOM     24  O   LIG    1        3.766   0.055   0.915  0.00  0.00    -0.456 OA
BRANCH  24  25
ATOM     25  C   LIG    1        4.994  -0.210   0.321  0.00  0.00    +0.322 C 
ATOM     26  O   LIG    1        5.088  -1.287  -0.312  0.00  0.00    -0.249 OA
BRANCH  25  27
ATOM     27  C   LIG    1        6.140   0.694   0.406  0.00  0.00    +0.205 C 
BRANCH  27  28
ATOM     28  N   LIG    1        7.282   0.320  -0.367  0.00  0.00    -0.293 NA
BRANCH  28  29
ATOM     29  C   LIG    1        8.403   1.235  -0.114  0.00  0.00    +0.081 C 
ATOM     30  C   LIG    1        8.865   1.001   1.286  0.00  0.00    +0.020 C 
ENDBRANCH  28  29
BRANCH  28  31
ATOM     31  C   LIG    1        7.063   0.207  -1.785  0.00  0.00    +0.081 C 
ATOM     32  C   LIG    1        6.780   1.531  -2.465  0.00  0.00    +0.020 C 
ENDBRANCH  28  31
ENDBRANCH  27  28
ENDBRANCH  25  27
ENDBRANCH  24  25
ENDBRANCH  23  24
ENDBRANCH  21  23
ENDBRANCH   3  21
BRANCH   3  33
ATOM     33  O   LIG    1        0.348  -2.386   0.879  0.00  0.00    -0.380 OA
ATOM     34  H   LIG    1        0.892  -2.236   0.072  0.00  0.00    +0.211 HD
ENDBRANCH   3  33
BRANCH  19  35
ATOM     35  O   LIG    1       -2.189   1.550  -1.137  0.00  0.00    -0.391 OA
ATOM     36  H   LIG    1       -1.792   1.983  -1.922  0.00  0.00    +0.210 HD
ENDBRANCH  19  35
TORSDOF 10
