REMARK  Name = molecules/FWJKNZONDWOGMI-UHFFFAOYSA-N.pdb
REMARK                            x       y       z     vdW  Elec       q    Type
REMARK                         _______ _______ _______ _____ _____    ______ ____
ROOT
ATOM      1  C   LIG    1       -0.478  -0.174  -0.089  0.00  0.00    +0.123 C 
ATOM      2  C   LIG    1       -0.081  -0.589   1.257  0.00  0.00    +0.235 C 
ATOM      3  O   LIG    1       -0.924  -0.903   2.126  0.00  0.00    -0.274 OA
ATOM      4  N   LIG    1        1.300  -0.662   1.669  0.00  0.00    -0.239 N 
ATOM      5  H   LIG    1        1.578  -1.119   2.568  0.00  0.00    +0.159 HD
ATOM      6  C   LIG    1        2.298  -0.108   0.848  0.00  0.00    +0.315 C 
ATOM      7  O   LIG    1        3.510  -0.166   1.197  0.00  0.00    -0.252 OA
ATOM      8  N   LIG    1        1.959   0.521  -0.380  0.00  0.00    -0.228 N 
ATOM      9  C   LIG    1        3.018   1.089  -1.215  0.00  0.00    +0.143 C 
ATOM     10  C   LIG    1        0.598   0.583  -0.768  0.00  0.00    +0.238 C 
ATOM     11  O   LIG    1        0.318   1.328  -1.744  0.00  0.00    -0.274 OA
ENDROOT
BRANCH   1  12
ATOM     12  C   LIG    1       -1.735   0.692   0.062  0.00  0.00    +0.022 C 
ATOM     13  C   LIG    1       -1.444   1.897   0.924  0.00  0.00    +0.005 C 
ENDBRANCH   1  12
BRANCH   1  14
ATOM     14  C   LIG    1       -0.892  -1.340  -0.965  0.00  0.00    +0.022 C 
ATOM     15  C   LIG    1       -1.999  -2.148  -0.370  0.00  0.00    +0.005 C 
ENDBRANCH   1  14
TORSDOF 2
