REMARK  Name = molecules/FWWDFDMCZLOXQI-UHFFFAOYSA-N.pdb
REMARK                            x       y       z     vdW  Elec       q    Type
REMARK                         _______ _______ _______ _____ _____    ______ ____
ROOT
ATOM      1  N   LIG    1        0.562   0.837  -0.592  0.00  0.00    -0.236 NA
ATOM      2  H   LIG    1        0.859   1.745  -0.163  0.00  0.00    +0.145 HD
ENDROOT
BRANCH   1   3
ATOM      3  N   LIG    1       -0.804   0.775  -0.580  0.00  0.00    -0.250 N 
ATOM      4  C   LIG    1       -1.608  -0.223   0.034  0.00  0.00    +0.232 C 
ATOM      5  O   LIG    1       -1.025  -1.159   0.636  0.00  0.00    -0.274 OA
ATOM      6  H   LIG    1       -1.321   1.542  -1.075  0.00  0.00    +0.169 HD
BRANCH   4   7
ATOM      7  C   LIG    1       -3.074  -0.215  -0.001  0.00  0.00    +0.040 C 
ATOM      8  C   LIG    1       -3.585  -1.467   0.671  0.00  0.00    +0.020 C 
ATOM      9  C   LIG    1       -3.672   0.994   0.669  0.00  0.00    +0.020 C 
ATOM     10  C   LIG    1       -3.605  -0.236  -1.431  0.00  0.00    +0.020 C 
ENDBRANCH   4   7
ENDBRANCH   1   3
BRANCH   1  11
ATOM     11  C   LIG    1        1.270  -0.208   0.061  0.00  0.00    +0.137 C 
BRANCH  11  12
ATOM     12  C   LIG    1        2.752  -0.024  -0.019  0.00  0.00    -0.032 A 
ATOM     13  C   LIG    1        3.545  -0.923   0.661  0.00  0.00    +0.005 A 
ATOM     14  C   LIG    1        4.927  -0.820   0.638  0.00  0.00    +0.000 A 
ATOM     15  C   LIG    1        5.505   0.207  -0.081  0.00  0.00    +0.000 A 
ATOM     16  C   LIG    1        4.712   1.114  -0.767  0.00  0.00    +0.000 A 
ATOM     17  C   LIG    1        3.332   0.987  -0.727  0.00  0.00    +0.005 A 
ENDBRANCH  11  12
ENDBRANCH   1  11
TORSDOF 4
