REMARK  Name = molecules/FWYSMLBETOMXAG-QHCPKHFHSA-N.pdb
REMARK                            x       y       z     vdW  Elec       q    Type
REMARK                         _______ _______ _______ _____ _____    ______ ____
ROOT
ATOM      1  C   LIG    1       -3.054  -1.744   1.897  0.00  0.00    +0.033 A 
ATOM      2  C   LIG    1       -4.040  -2.373   2.594  0.00  0.00    +0.010 A 
ATOM      3  C   LIG    1       -3.729  -3.317   3.551  0.00  0.00    +0.003 A 
ATOM      4  C   LIG    1       -2.432  -3.649   3.831  0.00  0.00    +0.042 A 
ATOM      5  C   LIG    1       -1.451  -3.003   3.117  0.00  0.00    +0.166 A 
ATOM      6  F   LIG    1       -0.152  -3.338   3.397  0.00  0.00    -0.202 F 
ATOM      7  C   LIG    1       -1.714  -2.053   2.150  0.00  0.00    +0.183 A 
ATOM      8  N   LIG    1       -0.712  -1.403   1.412  0.00  0.00    -0.073 NA
ATOM      9  C   LIG    1       -0.904  -0.506   0.474  0.00  0.00    +0.380 C 
ATOM     10  N   LIG    1       -2.250  -0.185   0.199  0.00  0.00    -0.181 N 
ATOM     11  C   LIG    1       -3.404  -0.725   0.902  0.00  0.00    +0.189 C 
ENDROOT
BRANCH  10  12
ATOM     12  C   LIG    1       -2.559   0.738  -0.837  0.00  0.00    +0.137 A 
ATOM     13  C   LIG    1       -2.767   2.066  -0.454  0.00  0.00    +0.156 A 
ATOM     14  C   LIG    1       -3.095   2.945  -1.459  0.00  0.00    +0.049 A 
ATOM     15  C   LIG    1       -3.212   2.525  -2.779  0.00  0.00    +0.016 A 
ATOM     16  C   LIG    1       -3.007   1.212  -3.147  0.00  0.00    +0.058 A 
ATOM     17  C   LIG    1       -2.676   0.326  -2.146  0.00  0.00    +0.056 A 
BRANCH  16  18
ATOM     18  C   LIG    1       -3.145   0.779  -4.569  0.00  0.00    +0.418 C 
ATOM     19  F   LIG    1       -4.414   0.188  -4.655  0.00  0.00    -0.166 F 
ATOM     20  F   LIG    1       -2.244  -0.184  -4.895  0.00  0.00    -0.166 F 
ATOM     21  F   LIG    1       -3.123   1.872  -5.406  0.00  0.00    -0.166 F 
ENDBRANCH  16  18
BRANCH  13  22
ATOM     22  O   LIG    1       -2.640   2.423   0.877  0.00  0.00    -0.492 OA
ATOM     23  C   LIG    1       -2.812   3.687   1.423  0.00  0.00    +0.277 C 
ENDBRANCH  13  22
ENDBRANCH  10  12
BRANCH   9  24
ATOM     24  N   LIG    1        0.216   0.067  -0.181  0.00  0.00    -0.221 N 
ATOM     25  C   LIG    1        0.629   1.445  -0.136  0.00  0.00    +0.206 C 
ATOM     26  C   LIG    1        2.061   1.582   0.279  0.00  0.00    +0.140 C 
ATOM     27  N   LIG    1        2.886   0.417   0.102  0.00  0.00    -0.324 N 
ATOM     28  C   LIG    1        2.350  -0.899  -0.079  0.00  0.00    +0.140 C 
ATOM     29  C   LIG    1        1.108  -0.786  -0.985  0.00  0.00    +0.206 C 
BRANCH  27  30
ATOM     30  C   LIG    1        4.323   0.616   0.130  0.00  0.00    +0.033 A 
ATOM     31  C   LIG    1        4.785   1.822   0.619  0.00  0.00    +0.023 A 
ATOM     32  C   LIG    1        6.133   2.044   0.695  0.00  0.00    +0.005 A 
ATOM     33  C   LIG    1        7.013   1.058   0.282  0.00  0.00    +0.046 A 
ATOM     34  C   LIG    1        6.546  -0.134  -0.201  0.00  0.00    +0.122 A 
ATOM     35  C   LIG    1        5.165  -0.376  -0.285  0.00  0.00    +0.068 A 
BRANCH  34  36
ATOM     36  O   LIG    1        7.400  -1.128  -0.617  0.00  0.00    -0.495 OA
ATOM     37  C   LIG    1        8.805  -0.948  -0.548  0.00  0.00    +0.277 C 
ENDBRANCH  34  36
ENDBRANCH  27  30
ENDBRANCH   9  24
BRANCH  11  38
ATOM     38  C   LIG    1       -4.491  -1.217   0.003  0.00  0.00    +0.164 C 
BRANCH  38  39
ATOM     39  C   LIG    1       -4.143  -2.439  -0.752  0.00  0.00    +0.308 C 
ATOM     40  O   LIG    1       -5.001  -2.917  -1.519  0.00  0.00    -0.251 OA
BRANCH  39  41
ATOM     41  O   LIG    1       -2.901  -3.005  -0.587  0.00  0.00    -0.481 OA
ATOM     42  H   LIG    1       -2.854  -3.852  -0.017  0.00  0.00    +0.295 HD
ENDBRANCH  39  41
ENDBRANCH  38  39
ENDBRANCH  11  38
TORSDOF 9
