REMARK  Name = molecules/FXNYSZHYMGWWEZ-UHFFFAOYSA-N.pdb
REMARK                            x       y       z     vdW  Elec       q    Type
REMARK                         _______ _______ _______ _____ _____    ______ ____
ROOT
ATOM      1  N   LIG    1       -0.182   0.091  -0.521  0.00  0.00    -0.278 N 
ATOM      2  C   LIG    1       -1.101  -0.776  -0.025  0.00  0.00    +0.333 A 
ATOM      3  N   LIG    1       -2.245  -0.409   0.535  0.00  0.00    -0.264 N 
ATOM      4  C   LIG    1       -3.178  -1.423   1.044  0.00  0.00    +0.157 C 
ATOM      5  C   LIG    1       -2.571   0.892   0.647  0.00  0.00    +0.258 A 
ATOM      6  O   LIG    1       -3.648   1.275   1.173  0.00  0.00    -0.267 OA
ATOM      7  C   LIG    1       -1.660   1.822   0.153  0.00  0.00    +0.112 A 
ATOM      8  O   LIG    1       -0.845  -2.017  -0.105  0.00  0.00    -0.246 OA
ATOM      9  C   LIG    1       -0.476   1.407  -0.426  0.00  0.00    +0.105 A 
ENDROOT
BRANCH   9  10
ATOM     10  N   LIG    1        0.436   2.381  -0.922  0.00  0.00    -0.344 N 
ATOM     11  H   LIG    1        0.618   3.235  -0.350  0.00  0.00    +0.144 HD
ATOM     12  H   LIG    1        0.933   2.288  -1.827  0.00  0.00    +0.144 HD
ENDBRANCH   9  10
BRANCH   1  13
ATOM     13  C   LIG    1        1.052  -0.375  -1.122  0.00  0.00    +0.158 C 
BRANCH  13  14
ATOM     14  C   LIG    1        2.141  -0.504  -0.123  0.00  0.00    -0.060 C 
ATOM     15  C   LIG    1        1.917  -0.207   1.142  0.00  0.00    +0.009 C 
ATOM     16  C   LIG    1        3.467  -0.969  -0.577  0.00  0.00    +0.040 C 
ENDBRANCH  13  14
ENDBRANCH   1  13
TORSDOF 3
