REMARK  Name = molecules/FYDWDCIFZSGNBU-UHFFFAOYSA-N.pdb
REMARK                            x       y       z     vdW  Elec       q    Type
REMARK                         _______ _______ _______ _____ _____    ______ ____
ROOT
ATOM      1  C   LIG    1        0.385   1.692  -1.646  0.00  0.00    +0.103 C 
ENDROOT
BRANCH   1   5
ATOM      2  C   LIG    1       -3.422   1.459  -0.186  0.00  0.00    +0.181 C 
ATOM      3  C   LIG    1       -2.457   0.341   0.015  0.00  0.00    +0.060 C 
ATOM      4  C   LIG    1       -1.488   0.192  -1.139  0.00  0.00    +0.088 C 
ATOM      5  N   LIG    1       -0.962   1.376  -1.629  0.00  0.00    -0.301 NA
ATOM      6  C   LIG    1       -1.896   2.442  -1.834  0.00  0.00    +0.088 C 
ATOM      7  C   LIG    1       -3.317   1.984  -1.593  0.00  0.00    +0.060 C 
BRANCH   2   8
ATOM      8  O   LIG    1       -4.756   0.915  -0.103  0.00  0.00    -0.447 OA
BRANCH   8  10
ATOM      9  N   LIG    1       -6.982   0.872   0.928  0.00  0.00    -0.251 N 
ATOM     10  C   LIG    1       -5.676   1.403   0.845  0.00  0.00    +0.405 C 
ATOM     11  O   LIG    1       -5.263   2.298   1.571  0.00  0.00    -0.226 OA
ATOM     12  H   LIG    1       -7.194   0.075   0.225  0.00  0.00    +0.158 HD
BRANCH   9  18
ATOM     13  C   LIG    1       -9.256   0.733   1.703  0.00  0.00    +0.003 A 
ATOM     14  C   LIG    1      -10.262   1.065   2.622  0.00  0.00    +0.010 A 
ATOM     15  C   LIG    1      -10.020   1.922   3.667  0.00  0.00    +0.001 A 
ATOM     16  C   LIG    1       -8.768   2.453   3.798  0.00  0.00    +0.002 A 
ATOM     17  C   LIG    1       -7.777   2.108   2.870  0.00  0.00    +0.024 A 
ATOM     18  C   LIG    1       -7.982   1.262   1.825  0.00  0.00    +0.044 A 
BRANCH  13  22
ATOM     19  C   LIG    1      -10.165  -1.944  -1.473  0.00  0.00    +0.000 A 
ATOM     20  C   LIG    1      -10.378  -2.287  -0.152  0.00  0.00    +0.001 A 
ATOM     21  C   LIG    1      -10.078  -1.404   0.862  0.00  0.00    +0.008 A 
ATOM     22  C   LIG    1       -9.550  -0.137   0.585  0.00  0.00    -0.016 A 
ATOM     23  C   LIG    1       -9.346   0.186  -0.721  0.00  0.00    +0.008 A 
ATOM     24  C   LIG    1       -9.647  -0.703  -1.753  0.00  0.00    +0.001 A 
ENDBRANCH  13  22
ENDBRANCH   9  18
ENDBRANCH   8  10
ENDBRANCH   2   8
ENDBRANCH   1   5
BRANCH   1  25
ATOM     25  C   LIG    1        1.193   0.925  -2.638  0.00  0.00    +0.123 C 
BRANCH  25  26
ATOM     26  N   LIG    1        1.202  -0.461  -2.458  0.00  0.00    -0.299 N 
ATOM     27  C   LIG    1        1.999  -1.263  -1.672  0.00  0.00    +0.246 C 
ATOM     28  O   LIG    1        1.715  -2.556  -1.748  0.00  0.00    -0.270 OA
ATOM     29  C   LIG    1        0.220  -1.211  -3.325  0.00  0.00    +0.132 C 
BRANCH  27  30
ATOM     30  C   LIG    1        3.077  -0.927  -0.795  0.00  0.00    +0.037 A 
ATOM     31  C   LIG    1        3.754  -2.010  -0.182  0.00  0.00    +0.013 A 
ATOM     32  C   LIG    1        4.819  -1.811   0.656  0.00  0.00    +0.005 A 
ATOM     33  C   LIG    1        5.272  -0.533   0.935  0.00  0.00    -0.033 A 
ATOM     34  C   LIG    1        4.648   0.544   0.365  0.00  0.00    +0.005 A 
ATOM     35  C   LIG    1        3.554   0.321  -0.496  0.00  0.00    +0.013 A 
BRANCH  33  36
ATOM     36  C   LIG    1        6.445  -0.320   1.849  0.00  0.00    +0.119 C 
BRANCH  36  37
ATOM     37  N   LIG    1        7.596  -0.949   1.224  0.00  0.00    -0.298 NA
ATOM     38  C   LIG    1        8.765  -0.890   2.047  0.00  0.00    +0.085 C 
ATOM     39  C   LIG    1        9.691   0.215   1.613  0.00  0.00    +0.028 C 
ATOM     40  C   LIG    1       10.195  -0.017   0.226  0.00  0.00    +0.077 C 
ATOM     41  C   LIG    1        9.186  -0.870  -0.542  0.00  0.00    +0.028 C 
ATOM     42  C   LIG    1        7.819  -0.361  -0.090  0.00  0.00    +0.085 C 
BRANCH  40  43
ATOM     43  C   LIG    1       11.483  -0.739   0.213  0.00  0.00    +0.214 C 
ATOM     44  N   LIG    1       11.642  -2.037   0.768  0.00  0.00    -0.329 N 
ATOM     45  H   LIG    1       12.226  -2.207   1.637  0.00  0.00    +0.145 HD
ATOM     46  H   LIG    1       11.194  -2.880   0.350  0.00  0.00    +0.145 HD
ATOM     47  O   LIG    1       12.475  -0.146  -0.327  0.00  0.00    -0.276 OA
ENDBRANCH  40  43
ENDBRANCH  36  37
ENDBRANCH  33  36
ENDBRANCH  27  30
ENDBRANCH  25  26
ENDBRANCH   1  25
TORSDOF 11
