REMARK  Name = molecules/FYPMFJGVHOHGLL-UHFFFAOYSA-N.pdb
REMARK                            x       y       z     vdW  Elec       q    Type
REMARK                         _______ _______ _______ _____ _____    ______ ____
ROOT
ATOM      1  C   LIG    1       -0.162  -2.035   1.944  0.00  0.00    +0.066 C 
ATOM      2  C   LIG    1        0.994  -2.259   2.895  0.00  0.00    +0.035 C 
ATOM      3  C   LIG    1       -1.249  -3.000   2.253  0.00  0.00    +0.035 C 
ENDROOT
BRANCH   1   4
ATOM      4  S   LIG    1       -0.656  -0.314   2.081  0.00  0.00    -0.108 S 
BRANCH   4   7
ATOM      5  C   LIG    1       -3.791  -0.454  -0.522  0.00  0.00    +0.001 A 
ATOM      6  C   LIG    1       -2.718  -0.791   0.246  0.00  0.00    +0.022 A 
ATOM      7  C   LIG    1       -2.057   0.095   1.067  0.00  0.00    +0.010 A 
ATOM      8  C   LIG    1       -2.539   1.384   1.083  0.00  0.00    +0.022 A 
ATOM      9  C   LIG    1       -3.618   1.812   0.340  0.00  0.00    +0.001 A 
ATOM     10  C   LIG    1       -4.242   0.869  -0.469  0.00  0.00    +0.124 A 
BRANCH   5  11
ATOM     11  C   LIG    1       -4.500  -1.424  -1.408  0.00  0.00    -0.009 C 
ATOM     12  C   LIG    1       -5.942  -1.465  -0.942  0.00  0.00    +0.015 C 
ATOM     13  C   LIG    1       -3.858  -2.781  -1.336  0.00  0.00    +0.015 C 
ATOM     14  C   LIG    1       -4.457  -0.981  -2.854  0.00  0.00    +0.015 C 
ENDBRANCH   5  11
BRANCH   9  15
ATOM     15  C   LIG    1       -4.132   3.218   0.386  0.00  0.00    -0.009 C 
ATOM     16  C   LIG    1       -3.256   3.978   1.357  0.00  0.00    +0.015 C 
ATOM     17  C   LIG    1       -5.551   3.309   0.866  0.00  0.00    +0.015 C 
ATOM     18  C   LIG    1       -3.945   3.885  -0.963  0.00  0.00    +0.015 C 
ENDBRANCH   9  15
BRANCH  10  19
ATOM     19  O   LIG    1       -5.329   1.224  -1.245  0.00  0.00    -0.506 OA
ATOM     20  H   LIG    1       -5.745   2.116  -1.311  0.00  0.00    +0.292 HD
ENDBRANCH  10  19
ENDBRANCH   4   7
ENDBRANCH   1   4
BRANCH   1  21
ATOM     21  S   LIG    1        0.469  -2.421   0.273  0.00  0.00    -0.108 S 
BRANCH  21  22
ATOM     22  C   LIG    1        1.996  -1.547  -0.045  0.00  0.00    +0.010 A 
ATOM     23  C   LIG    1        3.222  -2.099   0.263  0.00  0.00    +0.022 A 
ATOM     24  C   LIG    1        4.385  -1.417   0.013  0.00  0.00    +0.001 A 
ATOM     25  C   LIG    1        4.301  -0.147  -0.561  0.00  0.00    +0.124 A 
ATOM     26  C   LIG    1        3.111   0.429  -0.879  0.00  0.00    +0.001 A 
ATOM     27  C   LIG    1        1.972  -0.289  -0.612  0.00  0.00    +0.022 A 
BRANCH  24  28
ATOM     28  C   LIG    1        5.670  -2.022   0.348  0.00  0.00    -0.009 C 
ATOM     29  C   LIG    1        6.511  -1.175   1.272  0.00  0.00    +0.015 C 
ATOM     30  C   LIG    1        5.475  -3.369   0.963  0.00  0.00    +0.015 C 
ATOM     31  C   LIG    1        6.460  -2.130  -0.960  0.00  0.00    +0.015 C 
ENDBRANCH  24  28
BRANCH  26  32
ATOM     32  C   LIG    1        3.015   1.758  -1.496  0.00  0.00    -0.009 C 
ATOM     33  C   LIG    1        3.616   2.848  -0.679  0.00  0.00    +0.015 C 
ATOM     34  C   LIG    1        1.553   2.120  -1.782  0.00  0.00    +0.015 C 
ATOM     35  C   LIG    1        3.696   1.720  -2.846  0.00  0.00    +0.015 C 
ENDBRANCH  26  32
BRANCH  25  36
ATOM     36  O   LIG    1        5.484   0.482  -0.784  0.00  0.00    -0.506 OA
ATOM     37  H   LIG    1        5.531   1.397  -1.182  0.00  0.00    +0.292 HD
ENDBRANCH  25  36
ENDBRANCH  21  22
ENDBRANCH   1  21
TORSDOF 10
