REMARK  Name = molecules/FYXWDSGGZAMYFZ-UHFFFAOYSA-N.pdb
REMARK                            x       y       z     vdW  Elec       q    Type
REMARK                         _______ _______ _______ _____ _____    ______ ____
ROOT
ATOM      1  C   LIG    1        1.496   0.586  -0.137  0.00  0.00    +0.003 C 
ATOM      2  C   LIG    1        0.256   1.148  -0.224  0.00  0.00    +0.000 C 
ENDROOT
BRANCH   1  12
ATOM      3  N   LIG    1        4.430  -0.216  -0.124  0.00  0.00    -0.335 N 
ATOM      4  C   LIG    1        5.832  -0.216   0.032  0.00  0.00    +0.057 A 
ATOM      5  C   LIG    1        6.675  -1.258   0.497  0.00  0.00    +0.027 A 
ATOM      6  C   LIG    1        8.004  -1.114   0.700  0.00  0.00    +0.002 A 
ATOM      7  C   LIG    1        8.593   0.103   0.449  0.00  0.00    +0.001 A 
ATOM      8  C   LIG    1        7.859   1.158  -0.001  0.00  0.00    +0.017 A 
ATOM      9  C   LIG    1        6.486   0.956  -0.198  0.00  0.00    +0.038 A 
ATOM     10  S   LIG    1        5.265   2.071  -0.888  0.00  0.00    -0.070 S 
ATOM     11  C   LIG    1        3.849   1.000  -0.487  0.00  0.00    +0.081 A 
ATOM     12  C   LIG    1        2.604   1.395  -0.514  0.00  0.00    +0.033 C 
BRANCH   3  13
ATOM     13  C   LIG    1        3.613  -1.434   0.046  0.00  0.00    +0.119 C 
ATOM     14  C   LIG    1        3.072  -1.873  -1.288  0.00  0.00    +0.027 C 
ENDBRANCH   3  13
ENDBRANCH   1  12
BRANCH   2  15
ATOM     15  C   LIG    1       -0.918   0.375   0.148  0.00  0.00    +0.003 C 
ATOM     16  C   LIG    1       -2.079   0.955   0.058  0.00  0.00    +0.033 C 
BRANCH  16  17
ATOM     17  C   LIG    1       -3.321   0.227   0.421  0.00  0.00    +0.081 A 
ATOM     18  S   LIG    1       -3.436  -1.392   0.929  0.00  0.00    -0.070 S 
ATOM     19  C   LIG    1       -5.135  -1.458   1.143  0.00  0.00    +0.038 A 
ATOM     20  C   LIG    1       -6.033  -2.459   1.554  0.00  0.00    +0.017 A 
ATOM     21  C   LIG    1       -7.390  -2.203   1.633  0.00  0.00    +0.001 A 
ATOM     22  C   LIG    1       -7.772  -0.921   1.285  0.00  0.00    +0.002 A 
ATOM     23  C   LIG    1       -6.912   0.063   0.883  0.00  0.00    +0.027 A 
ATOM     24  C   LIG    1       -5.519  -0.193   0.800  0.00  0.00    +0.057 A 
ATOM     25  N   LIG    1       -4.579   0.652   0.434  0.00  0.00    -0.335 N 
BRANCH  25  26
ATOM     26  C   LIG    1       -4.843   2.069   0.041  0.00  0.00    +0.119 C 
ATOM     27  C   LIG    1       -5.117   2.208  -1.415  0.00  0.00    +0.027 C 
ENDBRANCH  25  26
ENDBRANCH  16  17
ENDBRANCH   2  15
TORSDOF 5
