REMARK  Name = molecules/FZCHYNWYXKICIO-FZNHGJLXSA-N.pdb
REMARK                            x       y       z     vdW  Elec       q    Type
REMARK                         _______ _______ _______ _____ _____    ______ ____
ROOT
ATOM      1  C   LIG    1        1.660  -0.062   1.794  0.00  0.00    +0.179 C 
ATOM      2  C   LIG    1        0.917  -0.357   3.143  0.00  0.00    +0.057 C 
ATOM      3  C   LIG    1       -0.213   0.679   2.998  0.00  0.00    +0.009 C 
ATOM      4  C   LIG    1       -0.672   0.265   1.673  0.00  0.00    +0.003 C 
ATOM      5  C   LIG    1       -1.728   0.985   0.963  0.00  0.00    -0.001 C 
ATOM      6  C   LIG    1       -2.955   1.127   1.868  0.00  0.00    +0.008 C 
ATOM      7  C   LIG    1       -3.890   2.037   1.101  0.00  0.00    +0.032 C 
ATOM      8  C   LIG    1       -4.256   1.317  -0.151  0.00  0.00    -0.060 C 
ATOM      9  C   LIG    1       -5.507   1.433  -0.550  0.00  0.00    +0.046 C 
ATOM     10  C   LIG    1       -5.914   0.760  -1.764  0.00  0.00    +0.156 C 
ATOM     11  C   LIG    1       -5.330  -0.563  -2.061  0.00  0.00    +0.080 C 
ATOM     12  C   LIG    1       -3.994  -0.774  -1.465  0.00  0.00    +0.019 C 
ATOM     13  O   LIG    1       -6.749   1.307  -2.539  0.00  0.00    -0.293 OA
ATOM     14  C   LIG    1       -3.315   0.506  -0.956  0.00  0.00    -0.005 C 
ATOM     15  C   LIG    1       -2.962   1.311  -2.175  0.00  0.00    +0.016 C 
ATOM     16  C   LIG    1       -2.137   0.032  -0.175  0.00  0.00    +0.031 C 
ATOM     17  C   LIG    1       -0.992  -0.432  -0.977  0.00  0.00    +0.119 C 
ATOM     18  C   LIG    1        0.299  -0.659  -0.260  0.00  0.00    +0.043 C 
ATOM     19  C   LIG    1        0.609   0.344   0.822  0.00  0.00    +0.020 C 
ATOM     20  C   LIG    1        0.763   1.738   0.295  0.00  0.00    +0.016 C 
ENDROOT
BRANCH  17  21
ATOM     21  O   LIG    1       -0.702   0.317  -2.119  0.00  0.00    -0.391 OA
ATOM     22  H   LIG    1       -0.293  -0.206  -2.838  0.00  0.00    +0.210 HD
ENDBRANCH  17  21
BRANCH   1  23
ATOM     23  C   LIG    1        2.619   0.975   2.202  0.00  0.00    +0.202 C 
ATOM     24  O   LIG    1        2.239   2.128   2.286  0.00  0.00    -0.291 OA
BRANCH  23  25
ATOM     25  C   LIG    1        4.023   0.718   2.526  0.00  0.00    +0.234 C 
BRANCH  25  26
ATOM     26  O   LIG    1        4.402  -0.597   2.666  0.00  0.00    -0.387 OA
ATOM     27  H   LIG    1        5.370  -0.661   2.574  0.00  0.00    +0.210 HD
ENDBRANCH  25  26
ENDBRANCH  23  25
ENDBRANCH   1  23
BRANCH   1  28
ATOM     28  O   LIG    1        2.374  -1.229   1.438  0.00  0.00    -0.450 OA
BRANCH  28  29
ATOM     29  C   LIG    1        3.305  -1.183   0.377  0.00  0.00    +0.308 C 
ATOM     30  O   LIG    1        3.524  -0.125  -0.255  0.00  0.00    -0.251 OA
BRANCH  29  31
ATOM     31  C   LIG    1        4.055  -2.395  -0.018  0.00  0.00    +0.120 C 
BRANCH  31  32
ATOM     32  C   LIG    1        4.877  -2.117  -1.238  0.00  0.00    +0.011 C 
BRANCH  32  33
ATOM     33  C   LIG    1        4.121  -1.758  -2.466  0.00  0.00    -0.003 C 
ATOM     34  C   LIG    1        5.028  -1.492  -3.652  0.00  0.00    +0.004 C 
ENDBRANCH  32  33
ENDBRANCH  31  32
ENDBRANCH  29  31
ENDBRANCH  28  29
ENDBRANCH   1  28
TORSDOF 9
