REMARK  Name = molecules/FZECHKJQHUVANE-MCYUEQNJSA-N.pdb
REMARK                            x       y       z     vdW  Elec       q    Type
REMARK                         _______ _______ _______ _____ _____    ______ ____
ROOT
ATOM      1  CA  LIG    1       -3.788   0.475   0.118  0.00  0.00    +0.201 C 
ATOM      2  C   LIG    1       -3.555  -1.017   0.024  0.00  0.00    +0.042 C 
ATOM      3  C   LIG    1       -3.275  -1.606   1.365  0.00  0.00    +0.025 C 
ATOM      4  C   LIG    1       -4.731  -1.725  -0.616  0.00  0.00    +0.025 C 
ATOM      5  S   LIG    1       -2.128  -1.092  -1.099  0.00  0.00    -0.127 S 
ATOM      6  C   LIG    1       -1.963   0.713  -1.367  0.00  0.00    +0.165 C 
ATOM      7  CA  LIG    1       -0.635   1.275  -0.953  0.00  0.00    +0.190 C 
ATOM      8  C   LIG    1       -1.442   2.017   0.046  0.00  0.00    +0.240 C 
ATOM      9  O   LIG    1       -1.131   3.045   0.735  0.00  0.00    -0.273 OA
ATOM     10  N   LIG    1       -2.549   1.154  -0.120  0.00  0.00    -0.271 N 
ENDROOT
BRANCH   7  11
ATOM     11  N   LIG    1        0.332   0.373  -0.447  0.00  0.00    -0.300 N 
ATOM     12  H   LIG    1        0.086  -0.322   0.279  0.00  0.00    +0.150 HD
ATOM     13  C   LIG    1        1.665   0.401  -0.928  0.00  0.00    +0.243 C 
ATOM     14  O   LIG    1        1.977   1.256  -1.827  0.00  0.00    -0.273 OA
BRANCH  13  15
ATOM     15  CA  LIG    1        2.690  -0.531  -0.415  0.00  0.00    +0.220 C 
BRANCH  15  16
ATOM     16  C   LIG    1        3.855   0.116   0.210  0.00  0.00    -0.014 A 
ATOM     17  C   LIG    1        4.820  -0.674   0.781  0.00  0.00    +0.006 A 
ATOM     18  C   LIG    1        5.927  -0.108   1.387  0.00  0.00    +0.000 A 
ATOM     19  C   LIG    1        6.066   1.264   1.420  0.00  0.00    +0.000 A 
ATOM     20  C   LIG    1        5.088   2.012   0.843  0.00  0.00    +0.000 A 
ATOM     21  C   LIG    1        3.971   1.473   0.231  0.00  0.00    +0.006 A 
ENDBRANCH  15  16
BRANCH  15  22
ATOM     22  N   LIG    1        2.101  -1.518   0.453  0.00  0.00    -0.282 NA
ATOM     23  C   LIG    1        2.400  -2.749   0.375  0.00  0.00    +0.135 C 
ENDBRANCH  15  22
ENDBRANCH  13  15
ENDBRANCH   7  11
BRANCH   1  24
ATOM     24  C   LIG    1       -4.803   0.954  -0.820  0.00  0.00    +0.327 C 
ATOM     25  OXT LIG    1       -5.995   0.530  -0.863  0.00  0.00    -0.249 OA
BRANCH  24  26
ATOM     26  O   LIG    1       -4.472   1.938  -1.734  0.00  0.00    -0.479 OA
ATOM     27  H   LIG    1       -3.944   2.767  -1.488  0.00  0.00    +0.295 HD
ENDBRANCH  24  26
ENDBRANCH   1  24
TORSDOF 6
