REMARK  Name = molecules/FZEXGDDBXLBRTD-AYIMTCTASA-N.pdb
REMARK                            x       y       z     vdW  Elec       q    Type
REMARK                         _______ _______ _______ _____ _____    ______ ____
ROOT
ATOM      1  C   LIG    1       -1.008   1.400  -2.194  0.00  0.00    +0.008 C 
ATOM      2  C   LIG    1       -1.230  -0.098  -2.177  0.00  0.00    -0.022 C 
ATOM      3  C   LIG    1       -0.520  -0.546  -0.879  0.00  0.00    +0.021 C 
ATOM      4  C   LIG    1        0.855  -0.139  -0.780  0.00  0.00    -0.066 C 
ATOM      5  C   LIG    1        1.803  -0.916  -0.187  0.00  0.00    -0.000 C 
ATOM      6  C   LIG    1        1.318   1.179  -1.231  0.00  0.00    +0.031 C 
ATOM      7  C   LIG    1       -0.804  -2.031  -1.000  0.00  0.00    +0.009 C 
ATOM      8  C   LIG    1       -2.274  -2.041  -1.482  0.00  0.00    +0.005 C 
ATOM      9  C   LIG    1       -2.571  -0.560  -1.799  0.00  0.00    -0.002 C 
ATOM     10  C   LIG    1       -0.522  -0.803  -3.276  0.00  0.00    +0.012 C 
ATOM     11  C   LIG    1        0.471   1.677  -2.373  0.00  0.00    +0.005 C 
ENDROOT
BRANCH   5  12
ATOM     12  C   LIG    1        3.157  -0.405  -0.031  0.00  0.00    +0.004 C 
ATOM     13  C   LIG    1        4.170  -1.087   0.469  0.00  0.00    -0.040 C 
ATOM     14  C   LIG    1        3.955  -2.506   0.814  0.00  0.00    -0.020 C 
ATOM     15  C   LIG    1        4.628  -2.949   2.101  0.00  0.00    +0.175 C 
ATOM     16  C   LIG    1        4.960  -1.582   2.824  0.00  0.00    +0.180 C 
ATOM     17  C   LIG    1        6.034  -0.924   1.983  0.00  0.00    +0.150 C 
ATOM     18  C   LIG    1        3.278  -3.252   0.006  0.00  0.00    +0.015 C 
ATOM     19  C   LIG    1        5.545  -0.500   0.621  0.00  0.00    +0.069 C 
BRANCH  17  20
ATOM     20  O   LIG    1        6.708   0.014   2.695  0.00  0.00    -0.389 OA
ATOM     21  H   LIG    1        7.462  -0.386   3.181  0.00  0.00    +0.210 HD
ENDBRANCH  17  20
BRANCH  15  22
ATOM     22  O   LIG    1        5.776  -3.621   1.772  0.00  0.00    -0.385 OA
ATOM     23  H   LIG    1        5.876  -4.525   2.160  0.00  0.00    +0.210 HD
ENDBRANCH  15  22
BRANCH  16  24
ATOM     24  O   LIG    1        3.842  -0.911   2.983  0.00  0.00    -0.371 OA
BRANCH  24  25
ATOM     25  C   LIG    1        3.231  -0.516   4.081  0.00  0.00    +0.162 C 
BRANCH  25  26
ATOM     26  C   LIG    1        3.998   0.480   4.892  0.00  0.00    +0.056 C 
BRANCH  26  27
ATOM     27  C   LIG    1        4.113   1.761   4.060  0.00  0.00    +0.158 C 
BRANCH  27  28
ATOM     28  O   LIG    1        4.789   2.748   4.737  0.00  0.00    -0.395 OA
ATOM     29  H   LIG    1        4.500   3.668   4.518  0.00  0.00    +0.209 HD
ENDBRANCH  27  28
ENDBRANCH  26  27
ENDBRANCH  25  26
ENDBRANCH  24  25
ENDBRANCH  16  24
ENDBRANCH   5  12
BRANCH   9  30
ATOM     30  C   LIG    1       -3.746  -0.396  -2.623  0.00  0.00    -0.010 C 
ATOM     31  C   LIG    1       -3.615  -1.103  -3.983  0.00  0.00    +0.008 C 
BRANCH  30  32
ATOM     32  C   LIG    1       -4.236   0.987  -2.880  0.00  0.00    +0.003 C 
BRANCH  32  33
ATOM     33  C   LIG    1       -4.597   1.736  -1.621  0.00  0.00    +0.003 C 
BRANCH  33  34
ATOM     34  C   LIG    1       -5.728   1.044  -0.891  0.00  0.00    +0.034 C 
BRANCH  34  35
ATOM     35  C   LIG    1       -6.085   1.821   0.363  0.00  0.00    +0.061 C 
ATOM     36  C   LIG    1       -4.891   2.010   1.271  0.00  0.00    +0.041 C 
ATOM     37  C   LIG    1       -6.510   3.226  -0.090  0.00  0.00    +0.041 C 
BRANCH  35  38
ATOM     38  O   LIG    1       -7.154   1.264   1.026  0.00  0.00    -0.389 OA
ATOM     39  H   LIG    1       -7.697   2.002   1.450  0.00  0.00    +0.210 HD
ENDBRANCH  35  38
ENDBRANCH  34  35
ENDBRANCH  33  34
ENDBRANCH  32  33
ENDBRANCH  30  32
ENDBRANCH   9  30
TORSDOF 14
