REMARK  Name = molecules/FZGVEKPRDOIXJY-HSZRJFAPSA-N.pdb
REMARK                            x       y       z     vdW  Elec       q    Type
REMARK                         _______ _______ _______ _____ _____    ______ ____
ROOT
ATOM      1  C   LIG    1        0.180  -0.457   0.384  0.00  0.00    +0.174 A 
ATOM      2  C   LIG    1       -0.288  -1.745   0.375  0.00  0.00    +0.174 A 
ATOM      3  C   LIG    1        0.565  -2.793   0.122  0.00  0.00    +0.050 A 
ATOM      4  C   LIG    1        1.891  -2.524  -0.119  0.00  0.00    +0.010 A 
ATOM      5  C   LIG    1        2.407  -1.245  -0.120  0.00  0.00    -0.014 A 
ATOM      6  C   LIG    1        1.538  -0.216   0.134  0.00  0.00    +0.056 A 
ENDROOT
BRANCH   1   7
ATOM      7  O   LIG    1       -0.684   0.618   0.640  0.00  0.00    -0.419 OA
BRANCH   7   8
ATOM      8  C   LIG    1       -1.317   1.305  -0.370  0.00  0.00    +0.345 C 
ATOM      9  O   LIG    1       -1.087   0.926  -1.549  0.00  0.00    -0.245 OA
BRANCH   8  10
ATOM     10  C   LIG    1       -2.224   2.429  -0.171  0.00  0.00    +0.059 A 
ATOM     11  C   LIG    1       -2.549   2.924   1.073  0.00  0.00    +0.015 A 
ATOM     12  C   LIG    1       -3.420   4.001   1.217  0.00  0.00    +0.004 A 
ATOM     13  C   LIG    1       -3.994   4.618   0.128  0.00  0.00    -0.050 A 
ATOM     14  C   LIG    1       -4.924   5.769   0.281  0.00  0.00    +0.044 C 
ATOM     15  C   LIG    1       -3.675   4.128  -1.124  0.00  0.00    +0.004 A 
ATOM     16  C   LIG    1       -2.817   3.068  -1.253  0.00  0.00    +0.015 A 
ENDBRANCH   8  10
ENDBRANCH   7   8
ENDBRANCH   1   7
BRANCH   2  17
ATOM     17  O   LIG    1       -1.645  -2.039   0.621  0.00  0.00    -0.419 OA
BRANCH  17  18
ATOM     18  C   LIG    1       -2.599  -2.126  -0.351  0.00  0.00    +0.345 C 
ATOM     19  O   LIG    1       -2.271  -1.934  -1.549  0.00  0.00    -0.245 OA
BRANCH  18  20
ATOM     20  C   LIG    1       -4.009  -2.434  -0.086  0.00  0.00    +0.059 A 
ATOM     21  C   LIG    1       -4.375  -2.646   1.223  0.00  0.00    +0.015 A 
ATOM     22  C   LIG    1       -5.681  -2.938   1.539  0.00  0.00    +0.004 A 
ATOM     23  C   LIG    1       -6.647  -3.025   0.555  0.00  0.00    -0.050 A 
ATOM     24  C   LIG    1       -8.031  -3.341   0.950  0.00  0.00    +0.044 C 
ATOM     25  C   LIG    1       -6.253  -2.809  -0.748  0.00  0.00    +0.004 A 
ATOM     26  C   LIG    1       -4.944  -2.515  -1.075  0.00  0.00    +0.015 A 
ENDBRANCH  18  20
ENDBRANCH  17  18
ENDBRANCH   2  17
BRANCH   5  27
ATOM     27  C   LIG    1        3.871  -1.065  -0.403  0.00  0.00    +0.158 C 
BRANCH  27  28
ATOM     28  O   LIG    1        4.607  -1.956   0.337  0.00  0.00    -0.386 OA
ATOM     29  H   LIG    1        4.269  -1.917   1.274  0.00  0.00    +0.210 HD
ENDBRANCH  27  28
BRANCH  27  30
ATOM     30  C   LIG    1        4.303   0.345  -0.406  0.00  0.00    +0.117 C 
BRANCH  30  31
ATOM     31  N   LIG    1        5.562   0.658  -0.911  0.00  0.00    -0.309 NA
ATOM     32  H   LIG    1        5.610   0.553  -1.941  0.00  0.00    +0.123 HD
BRANCH  31  33
ATOM     33  C   LIG    1        6.768   0.311  -0.311  0.00  0.00    +0.011 C 
ATOM     34  C   LIG    1        6.932   0.880   1.093  0.00  0.00    +0.027 C 
ATOM     35  C   LIG    1        7.244  -1.099  -0.360  0.00  0.00    +0.027 C 
ATOM     36  C   LIG    1        7.876   1.106  -1.111  0.00  0.00    +0.027 C 
ENDBRANCH  31  33
ENDBRANCH  30  31
ENDBRANCH  27  30
ENDBRANCH   5  27
TORSDOF 11
