REMARK  Name = molecules/FZNCGRZWXLXZSZ-CIQUZCHMSA-N.pdb
REMARK                            x       y       z     vdW  Elec       q    Type
REMARK                         _______ _______ _______ _____ _____    ______ ____
ROOT
ATOM      1  C   UNK A  0        0.148  -0.258   0.293  0.00  0.00    +0.088 C 
ATOM      2  C   UNK A  0       -0.487   1.041   0.595  0.00  0.00    +0.061 C 
ATOM      3  C   UNK A  0       -1.994   1.031   0.596  0.00  0.00    +0.119 C 
ATOM      4  C   UNK A  0       -2.448   0.492  -0.715  0.00  0.00    +0.179 C 
ATOM      5  C   UNK A  0       -1.830  -0.766  -1.179  0.00  0.00    +0.176 C 
ATOM      6  C   UNK A  0       -0.714  -1.298  -0.356  0.00  0.00    +0.162 C 
ENDROOT
BRANCH   1   7
ATOM      7  N   SER A  1        1.347  -0.181  -0.485  0.00  0.00    -0.304 NA
ATOM      8  H   SER A  1        1.601  -1.067  -0.931  0.00  0.00    +0.123 HD
BRANCH   7   9
ATOM      9  CA  SER A  1        2.451   0.503   0.067  0.00  0.00    +0.105 C 
BRANCH   9  10
ATOM     10  CB  SER A  1        3.004  -0.115   1.339  0.00  0.00    +0.176 C 
BRANCH  10  11
ATOM     11  OG  SER A  1        3.438  -1.417   1.137  0.00  0.00    -0.393 OA
ATOM     12  H   SER A  1        2.836  -1.964   0.611  0.00  0.00    +0.209 HD
ENDBRANCH  10  11
ENDBRANCH   9  10
BRANCH   9  13
ATOM     13  C   SER A  1        3.571   0.448  -0.986  0.00  0.00    +0.176 C 
BRANCH  13  14
ATOM     14  O   SER A  1        3.903  -0.873  -1.265  0.00  0.00    -0.393 OA
ATOM     15  H   SER A  1        3.917  -1.082  -2.231  0.00  0.00    +0.209 HD
ENDBRANCH  13  14
ENDBRANCH   9  13
ENDBRANCH   7   9
ENDBRANCH   1   7
BRANCH   3  16
ATOM     16  O   UNK A  0       -2.346   2.420   0.581  0.00  0.00    -0.384 OA
ATOM     17  H   UNK A  0       -2.081   2.842   1.425  0.00  0.00    +0.210 HD
ENDBRANCH   3  16
BRANCH   5  18
ATOM     18  O   UNK A  0       -2.836  -1.754  -1.221  0.00  0.00    -0.387 OA
ATOM     19  H   UNK A  0       -2.659  -2.392  -1.965  0.00  0.00    +0.210 HD
ENDBRANCH   5  18
BRANCH   4  20
ATOM     20  O   UNK A  0       -2.177   1.498  -1.676  0.00  0.00    -0.386 OA
ATOM     21  H   UNK A  0       -1.781   1.107  -2.477  0.00  0.00    +0.210 HD
ENDBRANCH   4  20
BRANCH   6  22
ATOM     22  O   UNK A  0        0.049  -2.135  -1.217  0.00  0.00    -0.388 OA
ATOM     23  H   UNK A  0        0.425  -2.904  -0.723  0.00  0.00    +0.210 HD
ENDBRANCH   6  22
BRANCH   3  24
ATOM     24  C   UNK A  0       -2.621   0.395   1.804  0.00  0.00    +0.193 C 
BRANCH  24  25
ATOM     25  O   UNK A  0       -4.016   0.582   1.658  0.00  0.00    -0.392 OA
ATOM     26  H   UNK A  0       -4.140   1.518   1.302  0.00  0.00    +0.210 HD
ENDBRANCH  24  25
ENDBRANCH   3  24
TORSDOF 12
