REMARK  Name = molecules/GAHOBHHMYUYJDT-UHFFFAOYSA-N.pdb
REMARK                            x       y       z     vdW  Elec       q    Type
REMARK                         _______ _______ _______ _____ _____    ______ ____
ROOT
ATOM      1  C   LIG    1        0.015   1.573  -1.236  0.00  0.00    +0.085 C 
ENDROOT
BRANCH   1   2
ATOM      2  C   LIG    1       -0.953   0.688  -0.540  0.00  0.00    +0.043 C 
ATOM      3  C   LIG    1       -0.621  -0.237   0.336  0.00  0.00    +0.114 C 
ATOM      4  C   LIG    1       -1.577  -1.131   1.043  0.00  0.00    +0.080 C 
ATOM      5  C   LIG    1       -1.362  -1.026   2.547  0.00  0.00    +0.027 C 
ATOM      6  C   LIG    1       -2.979  -0.926   0.702  0.00  0.00    +0.121 C 
ATOM      7  C   LIG    1       -3.363  -0.014  -0.169  0.00  0.00    +0.102 C 
ATOM      8  C   LIG    1       -1.204  -2.567   0.660  0.00  0.00    +0.027 C 
ATOM      9  C   LIG    1       -2.398   0.833  -0.831  0.00  0.00    +0.199 C 
ATOM     10  O   LIG    1       -2.734   1.726  -1.679  0.00  0.00    -0.287 OA
BRANCH   6  11
ATOM     11  O   LIG    1       -3.909  -1.755   1.352  0.00  0.00    -0.509 OA
ATOM     12  H   LIG    1       -3.769  -2.747   1.447  0.00  0.00    +0.292 HD
ENDBRANCH   6  11
BRANCH   7  13
ATOM     13  C   LIG    1       -4.776   0.144  -0.469  0.00  0.00    +0.170 C 
ATOM     14  O   LIG    1       -5.144   1.030  -1.315  0.00  0.00    -0.292 OA
BRANCH  13  15
ATOM     15  C   LIG    1       -5.838  -0.657   0.143  0.00  0.00    +0.079 C 
BRANCH  15  16
ATOM     16  C   LIG    1       -7.215  -0.272  -0.373  0.00  0.00    +0.004 C 
ATOM     17  C   LIG    1       -7.511   1.192  -0.070  0.00  0.00    +0.004 C 
ENDBRANCH  15  16
ENDBRANCH  13  15
ENDBRANCH   7  13
BRANCH   3  18
ATOM     18  O   LIG    1        0.736  -0.393   0.625  0.00  0.00    -0.510 OA
ATOM     19  H   LIG    1        1.015  -0.632   1.568  0.00  0.00    +0.292 HD
ENDBRANCH   3  18
ENDBRANCH   1   2
BRANCH   1  20
ATOM     20  C   LIG    1        1.407   1.430  -0.837  0.00  0.00    +0.041 A 
ATOM     21  C   LIG    1        1.822   2.041   0.348  0.00  0.00    +0.131 A 
ATOM     22  C   LIG    1        3.123   1.948   0.783  0.00  0.00    +0.092 A 
ATOM     23  C   LIG    1        4.054   1.232   0.034  0.00  0.00    +0.134 A 
ATOM     24  C   LIG    1        3.694   0.612  -1.142  0.00  0.00    +0.101 A 
ATOM     25  C   LIG    1        2.349   0.731  -1.555  0.00  0.00    +0.138 A 
BRANCH  21  26
ATOM     26  O   LIG    1        0.870   2.743   1.065  0.00  0.00    -0.495 OA
ATOM     27  C   LIG    1        1.269   3.368   2.267  0.00  0.00    +0.277 C 
ENDBRANCH  21  26
BRANCH  23  28
ATOM     28  O   LIG    1        5.349   1.157   0.497  0.00  0.00    -0.506 OA
ATOM     29  H   LIG    1        5.637   1.603   1.356  0.00  0.00    +0.292 HD
ENDBRANCH  23  28
BRANCH  24  30
ATOM     30  C   LIG    1        4.605  -0.149  -1.965  0.00  0.00    +0.170 C 
ATOM     31  O   LIG    1        4.159  -0.685  -3.024  0.00  0.00    -0.292 OA
BRANCH  30  32
ATOM     32  C   LIG    1        6.020  -0.353  -1.673  0.00  0.00    +0.079 C 
BRANCH  32  33
ATOM     33  C   LIG    1        6.311  -1.581  -0.826  0.00  0.00    +0.004 C 
ATOM     34  C   LIG    1        5.834  -2.819  -1.538  0.00  0.00    +0.004 C 
ENDBRANCH  32  33
ENDBRANCH  30  32
ENDBRANCH  24  30
BRANCH  25  35
ATOM     35  O   LIG    1        1.997   0.114  -2.720  0.00  0.00    -0.506 OA
ATOM     36  H   LIG    1        1.110   0.092  -3.152  0.00  0.00    +0.292 HD
ENDBRANCH  25  35
ENDBRANCH   1  20
TORSDOF 13
