REMARK  Name = molecules/GBBJCSTXCAQSSJ-XQXXSGGOSA-N.pdb
REMARK                            x       y       z     vdW  Elec       q    Type
REMARK                         _______ _______ _______ _____ _____    ______ ____
ROOT
ATOM      1  F   LIG    1       -0.095  -0.969  -1.683  0.00  0.00    -0.238 F 
ATOM      2  C   LIG    1       -0.934  -1.127  -0.596  0.00  0.00    +0.246 C 
ATOM      3  C   LIG    1       -0.532  -0.212   0.545  0.00  0.00    +0.260 C 
ATOM      4  O   LIG    1       -1.334   0.941   0.381  0.00  0.00    -0.345 OA
ATOM      5  C   LIG    1       -2.584   0.336   0.215  0.00  0.00    +0.178 C 
ATOM      6  C   LIG    1       -2.333  -0.623  -0.902  0.00  0.00    +0.184 C 
ENDROOT
BRANCH   3   7
ATOM      7  N   LIG    1        0.862   0.088   0.568  0.00  0.00    -0.271 N 
ATOM      8  C   LIG    1        1.292   1.292   1.020  0.00  0.00    +0.331 A 
ATOM      9  O   LIG    1        0.488   2.168   1.429  0.00  0.00    -0.246 OA
ATOM     10  N   LIG    1        2.600   1.587   1.047  0.00  0.00    -0.275 N 
ATOM     11  H   LIG    1        2.917   2.526   1.401  0.00  0.00    +0.173 HD
ATOM     12  C   LIG    1        3.546   0.722   0.632  0.00  0.00    +0.257 A 
ATOM     13  O   LIG    1        4.777   0.999   0.657  0.00  0.00    -0.267 OA
ATOM     14  C   LIG    1        3.146  -0.519   0.163  0.00  0.00    +0.030 A 
ATOM     15  C   LIG    1        4.161  -1.507  -0.306  0.00  0.00    +0.051 C 
ATOM     16  C   LIG    1        1.799  -0.783   0.151  0.00  0.00    +0.102 A 
ENDBRANCH   3   7
BRANCH   6  17
ATOM     17  O   LIG    1       -3.278  -1.640  -0.822  0.00  0.00    -0.386 OA
ATOM     18  H   LIG    1       -3.136  -2.362  -1.480  0.00  0.00    +0.210 HD
ENDBRANCH   6  17
BRANCH   5  19
ATOM     19  C   LIG    1       -3.662   1.341  -0.094  0.00  0.00    +0.190 C 
BRANCH  19  20
ATOM     20  O   LIG    1       -3.423   2.053  -1.249  0.00  0.00    -0.392 OA
ATOM     21  H   LIG    1       -3.527   3.036  -1.124  0.00  0.00    +0.210 HD
ENDBRANCH  19  20
ENDBRANCH   5  19
TORSDOF 4
