REMARK  Name = molecules/GBBSUAFBMRNDJC-INIZCTEOSA-N.pdb
REMARK                            x       y       z     vdW  Elec       q    Type
REMARK                         _______ _______ _______ _____ _____    ______ ____
ROOT
ATOM      1  C   LIG    1       -1.724  -1.071  -0.047  0.00  0.00    +0.328 C 
ATOM      2  C   LIG    1       -2.008  -2.273   0.760  0.00  0.00    +0.131 A 
ATOM      3  C   LIG    1       -3.131  -2.099   1.541  0.00  0.00    +0.153 A 
ATOM      4  N   LIG    1       -3.556  -3.095   2.358  0.00  0.00    -0.247 NA
ATOM      5  C   LIG    1       -2.912  -4.272   2.438  0.00  0.00    +0.131 A 
ATOM      6  C   LIG    1       -1.791  -4.434   1.652  0.00  0.00    +0.131 A 
ATOM      7  C   LIG    1       -3.596  -0.755   1.238  0.00  0.00    +0.275 C 
ATOM      8  O   LIG    1       -4.611  -0.234   1.764  0.00  0.00    -0.268 OA
ATOM      9  N   LIG    1       -1.372  -3.446   0.844  0.00  0.00    -0.251 NA
ATOM     10  N   LIG    1       -2.765  -0.114   0.279  0.00  0.00    -0.208 N 
ENDROOT
BRANCH  10  11
ATOM     11  C   LIG    1       -2.922   1.206  -0.257  0.00  0.00    +0.131 A 
ATOM     12  N   LIG    1       -2.937   2.311   0.506  0.00  0.00    -0.238 NA
ATOM     13  C   LIG    1       -3.085   3.549   0.010  0.00  0.00    +0.132 A 
ATOM     14  C   LIG    1       -3.234   3.771  -1.358  0.00  0.00    +0.059 A 
ATOM     15 CL   LIG    1       -3.427   5.374  -2.020  0.00  0.00    -0.082 Cl
ATOM     16  C   LIG    1       -3.221   2.647  -2.156  0.00  0.00    +0.025 A 
ATOM     17  C   LIG    1       -3.068   1.384  -1.624  0.00  0.00    +0.045 A 
ENDBRANCH  10  11
BRANCH   1  18
ATOM     18  O   LIG    1       -0.435  -0.544   0.224  0.00  0.00    -0.422 OA
BRANCH  18  19
ATOM     19  C   LIG    1        0.518  -0.445  -0.768  0.00  0.00    +0.405 C 
ATOM     20  N   LIG    1        1.792   0.076  -0.498  0.00  0.00    -0.265 N 
ATOM     21  C   LIG    1        2.130   0.517   0.823  0.00  0.00    +0.126 C 
ATOM     22  C   LIG    1        3.535   0.188   1.202  0.00  0.00    +0.103 C 
ATOM     23  N   LIG    1        4.472   0.089   0.146  0.00  0.00    -0.302 NA
ATOM     24  C   LIG    1        5.165   1.305  -0.140  0.00  0.00    +0.105 C 
ATOM     25  C   LIG    1        4.019  -0.533  -1.061  0.00  0.00    +0.103 C 
ATOM     26  C   LIG    1        2.772   0.173  -1.543  0.00  0.00    +0.126 C 
ATOM     27  O   LIG    1        0.188  -0.846  -1.932  0.00  0.00    -0.226 OA
ENDBRANCH  18  19
ENDBRANCH   1  18
TORSDOF 3
