REMARK  Name = molecules/GBPZSCQLDXUGNO-NSHDSACASA-N.pdb
REMARK                            x       y       z     vdW  Elec       q    Type
REMARK                         _______ _______ _______ _____ _____    ______ ____
ROOT
ATOM      1  C   LIG    1        0.144  -0.468  -0.520  0.00  0.00    +0.228 C 
ATOM      2  O   LIG    1        0.344   0.798  -0.354  0.00  0.00    -0.275 OA
ATOM      3  N   LIG    1        1.251  -1.238  -0.903  0.00  0.00    -0.239 N 
ATOM      4  H   LIG    1        1.245  -2.241  -1.062  0.00  0.00    +0.159 HD
ATOM      5  C   LIG    1        2.562  -0.602  -1.091  0.00  0.00    +0.312 C 
ATOM      6  N   LIG    1        2.619   0.790  -0.895  0.00  0.00    -0.240 N 
ATOM      7  H   LIG    1        2.656   1.689  -0.768  0.00  0.00    +0.159 HD
ATOM      8  C   LIG    1        4.311   0.944  -1.189  0.00  0.00    +0.217 C 
ATOM      9  C   LIG    1        4.737   2.291  -1.110  0.00  0.00    +0.109 C 
ATOM     10  O   LIG    1        4.857  -0.057  -1.406  0.00  0.00    -0.276 OA
ATOM     11  O   LIG    1        3.470  -1.396  -1.403  0.00  0.00    -0.252 OA
ENDROOT
BRANCH   1  12
ATOM     12  C   LIG    1       -1.219  -0.942  -0.282  0.00  0.00    +0.105 C 
BRANCH  12  13
ATOM     13  C   LIG    1       -2.057   0.166   0.323  0.00  0.00    -0.036 A 
ATOM     14  C   LIG    1       -2.476   0.096   1.635  0.00  0.00    +0.004 A 
ATOM     15  C   LIG    1       -3.246   1.085   2.223  0.00  0.00    +0.000 A 
ATOM     16  C   LIG    1       -3.571   2.157   1.401  0.00  0.00    +0.000 A 
ATOM     17  C   LIG    1       -3.182   2.279   0.094  0.00  0.00    +0.000 A 
ATOM     18  C   LIG    1       -2.413   1.257  -0.437  0.00  0.00    +0.004 A 
ENDBRANCH  12  13
BRANCH  12  19
ATOM     19  C   LIG    1       -1.374  -2.178   0.533  0.00  0.00    +0.014 C 
ATOM     20  C   LIG    1       -0.790  -3.434  -0.013  0.00  0.00    +0.005 C 
ENDBRANCH  12  19
ENDBRANCH   1  12
TORSDOF 3
