REMARK  Name = molecules/GBXSMTUPTTWBMN-XIRDDKMYSA-N.pdb
REMARK                            x       y       z     vdW  Elec       q    Type
REMARK                         _______ _______ _______ _____ _____    ______ ____
ROOT
ATOM      1  N   ALA A  1       -0.003   0.961  -0.182  0.00  0.00    -0.294 NA
ATOM      2  H   ALA A  1        0.009   1.777  -0.814  0.00  0.00    +0.123 HD
ENDROOT
BRANCH   1   3
ATOM      3  CA  ALA A  1       -1.304   0.772   0.344  0.00  0.00    +0.138 C 
ATOM      4  CB  ALA A  1       -1.726   2.108   0.971  0.00  0.00    +0.034 C 
BRANCH   3   5
ATOM      5  C   ALA A  1       -2.301   0.433  -0.702  0.00  0.00    +0.233 C 
ATOM      6  N   PRO A  2       -3.663   0.155  -0.339  0.00  0.00    -0.287 N 
ATOM      7  CD  PRO A  2       -4.254   0.151   0.981  0.00  0.00    +0.109 C 
ATOM      8  CG  PRO A  2       -4.963  -1.205   0.953  0.00  0.00    +0.021 C 
ATOM      9  CB  PRO A  2       -5.451  -1.285  -0.493  0.00  0.00    +0.035 C 
ATOM     10  CA  PRO A  2       -4.730  -0.189  -1.247  0.00  0.00    +0.184 C 
ATOM     11  O   ALA A  1       -1.966   0.385  -1.913  0.00  0.00    -0.274 OA
BRANCH  10  12
ATOM     12  C   PRO A  2       -5.683   0.926  -1.454  0.00  0.00    +0.325 C 
ATOM     13  O   PRO A  2       -6.686   0.782  -2.199  0.00  0.00    -0.249 OA
BRANCH  12  14
ATOM     14  OXT PRO A  2       -5.538   2.162  -0.859  0.00  0.00    -0.479 OA
ATOM     15  HXT PRO A  2       -5.684   3.046  -1.297  0.00  0.00    +0.295 HD
ENDBRANCH  12  14
ENDBRANCH  10  12
ENDBRANCH   3   5
ENDBRANCH   1   3
BRANCH   1  16
ATOM     16  C   UNK A  0        0.631  -0.143  -0.806  0.00  0.00    +0.164 C 
BRANCH  16  17
ATOM     17  C   UNK A  0        0.805  -1.327   0.066  0.00  0.00    +0.324 C 
ATOM     18  O   UNK A  0        0.448  -1.399   1.266  0.00  0.00    -0.249 OA
BRANCH  17  19
ATOM     19  O   UNK A  0        1.410  -2.438  -0.502  0.00  0.00    -0.464 OA
BRANCH  19  20
ATOM     20  C   UNK A  0        1.661  -3.643   0.149  0.00  0.00    +0.229 C 
ATOM     21  C   UNK A  0        2.560  -3.512   1.355  0.00  0.00    +0.048 C 
ENDBRANCH  19  20
ENDBRANCH  17  19
ENDBRANCH  16  17
BRANCH  16  22
ATOM     22  C   UNK A  0        2.063   0.312  -1.148  0.00  0.00    +0.035 C 
BRANCH  22  23
ATOM     23  C   UNK A  0        2.711   0.681   0.149  0.00  0.00    +0.037 C 
BRANCH  23  24
ATOM     24  C   UNK A  0        4.104   1.139   0.014  0.00  0.00    -0.047 A 
ATOM     25  C   UNK A  0        5.101   0.189   0.084  0.00  0.00    +0.003 A 
ATOM     26  C   UNK A  0        6.437   0.487  -0.029  0.00  0.00    +0.000 A 
ATOM     27  C   UNK A  0        6.800   1.812  -0.222  0.00  0.00    +0.000 A 
ATOM     28  C   UNK A  0        5.804   2.752  -0.291  0.00  0.00    +0.000 A 
ATOM     29  C   UNK A  0        4.464   2.450  -0.178  0.00  0.00    +0.003 A 
ENDBRANCH  23  24
ENDBRANCH  22  23
ENDBRANCH  16  22
ENDBRANCH   1  16
TORSDOF 11
