REMARK  Name = molecules/GCFPPDBNEBHYGT-UHFFFAOYSA-N.pdb
REMARK                            x       y       z     vdW  Elec       q    Type
REMARK                         _______ _______ _______ _____ _____    ______ ____
ROOT
ATOM      1  C   LIG    1        1.308   0.366  -0.289  0.00  0.00    +0.000 A 
ATOM      2  C   LIG    1        0.463  -0.717  -0.168  0.00  0.00    +0.000 A 
ATOM      3  C   LIG    1       -0.889  -0.563   0.046  0.00  0.00    +0.000 A 
ATOM      4  C   LIG    1       -1.462   0.690   0.149  0.00  0.00    +0.000 A 
ATOM      5  C   LIG    1       -0.618   1.775   0.028  0.00  0.00    +0.000 A 
ATOM      6  C   LIG    1        0.736   1.614  -0.186  0.00  0.00    +0.000 A 
ENDROOT
BRANCH   1   7
ATOM      7 AS   LIG    1        3.222   0.131  -0.592  0.00  0.00    +0.000 As
ATOM      8 CL   LIG    1        4.224   0.384   1.380  0.00  0.00    +0.000 Cl
ATOM      9 CL   LIG    1        3.514  -1.941  -1.334  0.00  0.00    +0.000 Cl
ENDBRANCH   1   7
BRANCH   3  10
ATOM     10  N   LIG    1       -1.690  -1.732   0.159  0.00  0.00    +0.000 N 
ATOM     11  H   LIG    1       -1.275  -2.564   0.623  0.00  0.00    +0.000 HD
ATOM     12  H   LIG    1       -2.656  -1.805  -0.190  0.00  0.00    +0.000 HD
ENDBRANCH   3  10
BRANCH   4  13
ATOM     13  O   LIG    1       -2.825   0.821   0.364  0.00  0.00    +0.000 OA
ATOM     14  H   LIG    1       -3.391  -0.010   0.444  0.00  0.00    +0.000 HD
ENDBRANCH   4  13
TORSDOF 3
