REMARK  Name = molecules/GCKMFJBGXUYNAG-HLXURNFRSA-N.pdb
REMARK                            x       y       z     vdW  Elec       q    Type
REMARK                         _______ _______ _______ _____ _____    ______ ____
ROOT
ATOM      1  C   LIG    1        2.259   0.087   1.713  0.00  0.00    +0.016 C 
ATOM      2  C   LIG    1        2.152  -0.344   0.244  0.00  0.00    -0.007 C 
ATOM      3  C   LIG    1        2.897  -1.648   0.059  0.00  0.00    +0.019 C 
ATOM      4  C   LIG    1        4.359  -1.539   0.386  0.00  0.00    +0.080 C 
ATOM      5  C   LIG    1        4.922  -0.215   0.110  0.00  0.00    +0.156 C 
ATOM      6  O   LIG    1        6.045   0.098   0.519  0.00  0.00    -0.293 OA
ATOM      7  C   LIG    1        4.099   0.713  -0.666  0.00  0.00    +0.046 C 
ATOM      8  C   LIG    1        0.713  -0.585  -0.040  0.00  0.00    +0.002 C 
ATOM      9  C   LIG    1        0.021  -1.182   1.167  0.00  0.00    +0.005 C 
ATOM     10  C   LIG    1       -1.447  -1.415   0.932  0.00  0.00    +0.010 C 
ATOM     11  C   LIG    1       -2.069  -0.139   0.491  0.00  0.00    -0.000 C 
ATOM     12  C   LIG    1       -1.912   0.936   1.529  0.00  0.00    +0.014 C 
ATOM     13  C   LIG    1       -3.498  -0.218   0.092  0.00  0.00    +0.069 C 
ATOM     14  C   LIG    1       -4.099  -1.591   0.199  0.00  0.00    +0.042 C 
ATOM     15  C   LIG    1       -3.626   0.354  -1.306  0.00  0.00    +0.035 C 
ATOM     16  C   LIG    1       -2.328   1.158  -1.436  0.00  0.00    +0.007 C 
ATOM     17  C   LIG    1       -1.388   0.219  -0.815  0.00  0.00    +0.001 C 
ATOM     18  C   LIG    1       -0.013   0.657  -0.549  0.00  0.00    -0.003 C 
ATOM     19  C   LIG    1        0.681   1.028  -1.867  0.00  0.00    +0.008 C 
ATOM     20  C   LIG    1        2.018   1.647  -1.437  0.00  0.00    +0.032 C 
ATOM     21  C   LIG    1        2.779   0.670  -0.618  0.00  0.00    -0.060 C 
ENDROOT
BRANCH  13  22
ATOM     22  O   LIG    1       -4.299   0.622   0.904  0.00  0.00    -0.388 OA
ATOM     23  H   LIG    1       -5.031   1.039   0.358  0.00  0.00    +0.210 HD
ENDBRANCH  13  22
TORSDOF 1
