REMARK  Name = molecules/GCQYYIHYQMVWLT-HQNLTJAPSA-N.pdb
REMARK                            x       y       z     vdW  Elec       q    Type
REMARK                         _______ _______ _______ _____ _____    ______ ____
ROOT
ATOM      1  O   LIG    1       -0.507  -1.006  -3.179  0.00  0.00    -0.246 OA
ATOM      2  C   LIG    1       -1.332  -0.811  -2.228  0.00  0.00    +0.331 A 
ATOM      3  N   LIG    1       -0.803  -0.544  -1.025  0.00  0.00    -0.271 N 
ATOM      4  C   LIG    1       -1.593  -0.319   0.062  0.00  0.00    +0.106 A 
ATOM      5  C   LIG    1       -2.951  -0.376  -0.119  0.00  0.00    +0.056 A 
ATOM      6  C   LIG    1       -3.487  -0.657  -1.383  0.00  0.00    +0.261 A 
ATOM      7  O   LIG    1       -4.733  -0.708  -1.543  0.00  0.00    -0.267 OA
ATOM      8  N   LIG    1       -2.660  -0.870  -2.416  0.00  0.00    -0.274 N 
ATOM      9  H   LIG    1       -3.056  -1.080  -3.363  0.00  0.00    +0.173 HD
ENDROOT
BRANCH   3  10
ATOM     10  C1* LIG    1        0.623  -0.482  -0.831  0.00  0.00    +0.255 C 
ATOM     11  O4* LIG    1        1.032  -0.964   0.396  0.00  0.00    -0.346 OA
ATOM     12  C4* LIG    1        2.398  -0.651   0.393  0.00  0.00    +0.177 C 
ATOM     13  C3* LIG    1        2.514   0.743  -0.178  0.00  0.00    +0.178 C 
ATOM     14  C2* LIG    1        1.158   0.931  -0.834  0.00  0.00    +0.195 C 
BRANCH  13  15
ATOM     15  O3* LIG    1        3.509   0.805  -1.144  0.00  0.00    -0.386 OA
ATOM     16  H3* LIG    1        4.225   0.144  -0.962  0.00  0.00    +0.210 HD
ENDBRANCH  13  15
BRANCH  14  17
ATOM     17  O2* LIG    1        0.420   1.766   0.009  0.00  0.00    -0.385 OA
ATOM     18  H2* LIG    1        0.830   1.853   0.894  0.00  0.00    +0.210 HD
ENDBRANCH  14  17
BRANCH  12  19
ATOM     19  C5* LIG    1        2.923  -0.711   1.802  0.00  0.00    +0.190 C 
BRANCH  19  20
ATOM     20  O5* LIG    1        4.279  -0.395   1.760  0.00  0.00    -0.392 OA
ATOM     21  H5* LIG    1        4.784  -1.145   1.314  0.00  0.00    +0.210 HD
ENDBRANCH  19  20
ENDBRANCH  12  19
ENDBRANCH   3  10
BRANCH   5  22
ATOM     22  C   LIG    1       -3.877  -0.153   0.970  0.00  0.00    +0.022 C 
ATOM     23  C   LIG    1       -3.510   0.118   2.199  0.00  0.00    +0.052 C 
ATOM     24 BR   LIG    1       -4.819   0.397   3.567  0.00  0.00    -0.059 Br
ENDBRANCH   5  22
TORSDOF 6
