REMARK  Name = molecules/GDFGTRDCCWFXTG-ZIFCJYIRSA-N.pdb
REMARK                            x       y       z     vdW  Elec       q    Type
REMARK                         _______ _______ _______ _____ _____    ______ ____
ROOT
ATOM      1  N   LIG    1       -1.185   0.919   1.194  0.00  0.00    -0.297 NA
ATOM      2  C   LIG    1       -0.078   0.221   1.723  0.00  0.00    +0.105 C 
ATOM      3  C   LIG    1        0.959   0.055   0.658  0.00  0.00    +0.092 C 
ATOM      4  C   LIG    1        0.330  -0.680  -0.492  0.00  0.00    +0.027 C 
ATOM      5  C   LIG    1       -1.127  -0.926  -0.317  0.00  0.00    +0.012 C 
ATOM      6  C   LIG    1       -1.785  -1.279  -1.657  0.00  0.00    +0.044 C 
ATOM      7  C   LIG    1       -3.160  -1.716  -1.348  0.00  0.00    -0.002 A 
ATOM      8  C   LIG    1       -3.833  -1.195  -0.272  0.00  0.00    -0.039 A 
ATOM      9  C   LIG    1       -3.216  -0.169   0.605  0.00  0.00    +0.054 C 
ATOM     10  C   LIG    1       -5.148  -1.603   0.045  0.00  0.00    +0.004 A 
ATOM     11  C   LIG    1       -5.802  -2.538  -0.712  0.00  0.00    +0.004 A 
ATOM     12  C   LIG    1       -5.121  -3.052  -1.786  0.00  0.00    +0.046 A 
ATOM     13  C   LIG    1       -3.820  -2.668  -2.125  0.00  0.00    +0.120 A 
ATOM     14  C   LIG    1       -1.883   0.335   0.126  0.00  0.00    +0.064 C 
ENDROOT
BRANCH   3  15
ATOM     15  N   LIG    1        2.115  -0.592   1.194  0.00  0.00    -0.175 NA
ATOM     16  H   LIG    1        1.978  -1.071   2.089  0.00  0.00    +0.149 HD
BRANCH  15  17
ATOM     17  S   LIG    1        3.563   0.295   1.132  0.00  0.00    +0.097 S 
ATOM     18  O   LIG    1        4.479  -0.032   2.298  0.00  0.00    -0.141 OA
ATOM     19  O   LIG    1        3.291   1.773   1.051  0.00  0.00    -0.141 OA
BRANCH  17  20
ATOM     20  N   LIG    1        4.419  -0.136  -0.303  0.00  0.00    -0.167 NA
BRANCH  20  21
ATOM     21  C   LIG    1        4.201  -1.521  -0.614  0.00  0.00    +0.107 C 
ATOM     22  C   LIG    1        5.238  -2.420   0.038  0.00  0.00    +0.022 C 
ENDBRANCH  20  21
BRANCH  20  23
ATOM     23  C   LIG    1        4.034   0.735  -1.389  0.00  0.00    +0.107 C 
ATOM     24  C   LIG    1        4.903   1.977  -1.483  0.00  0.00    +0.022 C 
ENDBRANCH  20  23
ENDBRANCH  17  20
ENDBRANCH  15  17
ENDBRANCH   3  15
BRANCH  13  25
ATOM     25  O   LIG    1       -3.179  -3.203  -3.205  0.00  0.00    -0.506 OA
ATOM     26  H   LIG    1       -2.264  -2.936  -3.470  0.00  0.00    +0.292 HD
ENDBRANCH  13  25
BRANCH   1  27
ATOM     27  C   LIG    1       -1.517   2.174   1.667  0.00  0.00    +0.084 C 
BRANCH  27  28
ATOM     28  C   LIG    1       -1.264   3.358   0.794  0.00  0.00    +0.012 C 
ATOM     29  C   LIG    1       -1.700   4.629   1.503  0.00  0.00    +0.005 C 
ENDBRANCH  27  28
ENDBRANCH   1  27
TORSDOF 8
