REMARK  Name = molecules/GDLIGKIOYRNHDA-UHFFFAOYSA-N.pdb
REMARK                            x       y       z     vdW  Elec       q    Type
REMARK                         _______ _______ _______ _____ _____    ______ ____
ROOT
ATOM      1  N   LIG    1       -0.736   0.275   0.520  0.00  0.00    -0.300 N 
ATOM      2  C   LIG    1       -1.812   1.262   0.523  0.00  0.00    +0.039 A 
ATOM      3  C   LIG    1       -1.455   2.388   1.212  0.00  0.00    +0.043 A 
ATOM      4  C   LIG    1       -2.353   3.430   1.295  0.00  0.00    +0.043 A 
ATOM      5 CL   LIG    1       -1.872   4.858   2.182  0.00  0.00    -0.083 Cl
ATOM      6  C   LIG    1       -3.579   3.298   0.679  0.00  0.00    +0.020 A 
ATOM      7  C   LIG    1       -3.914   2.154  -0.008  0.00  0.00    +0.007 A 
ATOM      8  C   LIG    1       -3.035   1.072  -0.118  0.00  0.00    -0.026 A 
ATOM      9  C   LIG    1       -3.638  -0.043  -0.873  0.00  0.00    +0.042 C 
ATOM     10  C   LIG    1       -2.725  -1.016  -1.505  0.00  0.00    +0.042 C 
ATOM     11  C   LIG    1       -1.794  -1.722  -0.559  0.00  0.00    -0.026 A 
ATOM     12  C   LIG    1       -1.874  -3.113  -0.636  0.00  0.00    +0.005 A 
ATOM     13  C   LIG    1       -1.042  -3.822   0.199  0.00  0.00    +0.000 A 
ATOM     14  C   LIG    1       -0.165  -3.220   1.075  0.00  0.00    +0.002 A 
ATOM     15  C   LIG    1       -0.093  -1.845   1.143  0.00  0.00    +0.024 A 
ATOM     16  C   LIG    1       -0.921  -1.128   0.313  0.00  0.00    +0.037 A 
ENDROOT
BRANCH   1  17
ATOM     17  C   LIG    1        0.574   0.733   0.770  0.00  0.00    +0.112 C 
BRANCH  17  18
ATOM     18  C   LIG    1        1.676   0.078  -0.075  0.00  0.00    +0.035 C 
BRANCH  18  19
ATOM     19  C   LIG    1        2.988   0.689   0.368  0.00  0.00    +0.085 C 
BRANCH  19  20
ATOM     20  N   LIG    1        4.116   0.205  -0.325  0.00  0.00    -0.308 NA
ATOM     21  C   LIG    1        4.503  -1.142  -0.132  0.00  0.00    +0.104 C 
ATOM     22  C   LIG    1        4.504   0.850  -1.519  0.00  0.00    +0.104 C 
ENDBRANCH  19  20
ENDBRANCH  18  19
ENDBRANCH  17  18
ENDBRANCH   1  17
TORSDOF 4
