REMARK  Name = molecules/GECBBEABIDMGGL-MOPGFXCFSA-N.pdb
REMARK                            x       y       z     vdW  Elec       q    Type
REMARK                         _______ _______ _______ _____ _____    ______ ____
ROOT
ATOM      1  C   LIG    1       -0.411   0.942   0.592  0.00  0.00    +0.124 A 
ATOM      2  C   LIG    1        0.737   0.169   0.709  0.00  0.00    +0.050 A 
ATOM      3  C   LIG    1        0.727  -1.174   0.394  0.00  0.00    -0.035 A 
ATOM      4  C   LIG    1       -0.496  -1.702  -0.046  0.00  0.00    +0.050 A 
ATOM      5  C   LIG    1       -1.631  -0.937  -0.161  0.00  0.00    +0.128 A 
ATOM      6  O   LIG    1       -2.810  -1.463  -0.588  0.00  0.00    -0.486 OA
ATOM      7  C   LIG    1       -3.991  -0.759  -0.840  0.00  0.00    +0.108 C 
ATOM      8  C   LIG    1       -5.044  -1.220   0.107  0.00  0.00    +0.055 C 
ATOM      9  C   LIG    1       -3.812   0.742  -0.901  0.00  0.00    +0.041 C 
ATOM     10  C   LIG    1       -2.780   1.280   0.050  0.00  0.00    +0.040 C 
ATOM     11  C   LIG    1       -3.300   1.591   1.415  0.00  0.00    +0.083 C 
ATOM     12  C   LIG    1       -4.398   2.592   1.214  0.00  0.00    +0.134 C 
ATOM     13  O   LIG    1       -4.316   3.655   1.805  0.00  0.00    -0.297 OA
ATOM     14  C   LIG    1       -5.486   2.206   0.316  0.00  0.00    +0.075 C 
ATOM     15  C   LIG    1       -5.105   1.451  -0.894  0.00  0.00    +0.015 C 
ATOM     16  C   LIG    1       -4.447  -1.210  -2.239  0.00  0.00    +0.055 C 
ATOM     17  C   LIG    1       -1.609   0.413   0.158  0.00  0.00    +0.040 A 
ENDROOT
BRANCH   3  18
ATOM     18  C   LIG    1        1.888  -2.058   0.483  0.00  0.00    -0.010 C 
ATOM     19  C   LIG    1        1.842  -2.813   1.813  0.00  0.00    +0.016 C 
ATOM     20  C   LIG    1        1.770  -3.109  -0.614  0.00  0.00    +0.016 C 
BRANCH  18  21
ATOM     21  C   LIG    1        3.229  -1.383   0.364  0.00  0.00    +0.011 C 
BRANCH  21  22
ATOM     22  C   LIG    1        3.405  -0.665  -0.937  0.00  0.00    +0.001 C 
BRANCH  22  23
ATOM     23  C   LIG    1        4.752  -0.028  -1.074  0.00  0.00    +0.000 C 
BRANCH  23  24
ATOM     24  C   LIG    1        5.009   0.968   0.006  0.00  0.00    -0.000 C 
BRANCH  24  25
ATOM     25  C   LIG    1        6.384   1.617  -0.175  0.00  0.00    -0.003 C 
ATOM     26  C   LIG    1        6.574   2.607   0.953  0.00  0.00    +0.004 C 
ENDBRANCH  24  25
ENDBRANCH  23  24
ENDBRANCH  22  23
ENDBRANCH  21  22
ENDBRANCH  18  21
ENDBRANCH   3  18
BRANCH   1  27
ATOM     27  O   LIG    1       -0.314   2.276   0.927  0.00  0.00    -0.506 OA
ATOM     28  H   LIG    1        0.502   2.739   1.246  0.00  0.00    +0.292 HD
ENDBRANCH   1  27
TORSDOF 7
