REMARK  Name = molecules/GEFQWZLICWMTKF-CDUCUWFYSA-N.pdb
REMARK                            x       y       z     vdW  Elec       q    Type
REMARK                         _______ _______ _______ _____ _____    ______ ____
ROOT
ATOM      1  C   LIG    1        0.088  -0.471  -0.162  0.00  0.00    -0.014 A 
ATOM      2  C   LIG    1        0.624   0.703   0.293  0.00  0.00    +0.055 A 
ATOM      3  C   LIG    1        1.980   0.935   0.377  0.00  0.00    +0.159 A 
ATOM      4  C   LIG    1        2.864  -0.033  -0.005  0.00  0.00    +0.158 A 
ATOM      5  C   LIG    1        2.358  -1.235  -0.471  0.00  0.00    +0.049 A 
ATOM      6  C   LIG    1        1.009  -1.453  -0.550  0.00  0.00    +0.010 A 
ENDROOT
BRANCH   3   7
ATOM      7  O   LIG    1        2.436   2.158   0.851  0.00  0.00    -0.503 OA
ATOM      8  H   LIG    1        3.424   2.356   0.923  0.00  0.00    +0.292 HD
ENDBRANCH   3   7
BRANCH   4   9
ATOM      9  O   LIG    1        4.232   0.196   0.077  0.00  0.00    -0.503 OA
ATOM     10  H   LIG    1        4.859  -0.540  -0.213  0.00  0.00    +0.292 HD
ENDBRANCH   4   9
BRANCH   1  11
ATOM     11  C   LIG    1       -1.320  -0.798  -0.283  0.00  0.00    +0.161 C 
BRANCH  11  12
ATOM     12  C   LIG    1       -2.273   0.086   0.424  0.00  0.00    +0.081 C 
ATOM     13  C   LIG    1       -2.433   1.455  -0.146  0.00  0.00    +0.026 C 
BRANCH  12  14
ATOM     14  N   LIG    1       -2.014   0.101   1.873  0.00  0.00    -0.325 NA
ATOM     15  H   LIG    1       -2.848   0.515   2.345  0.00  0.00    +0.119 HD
ATOM     16  H   LIG    1       -1.990  -0.906   2.151  0.00  0.00    +0.119 HD
ENDBRANCH  12  14
ENDBRANCH  11  12
BRANCH  11  17
ATOM     17  O   LIG    1       -1.487  -2.103   0.243  0.00  0.00    -0.386 OA
ATOM     18  H   LIG    1       -0.785  -2.307   0.903  0.00  0.00    +0.210 HD
ENDBRANCH  11  17
ENDBRANCH   1  11
TORSDOF 6
