REMARK  Name = molecules/GEGSSUSEWOHAFE-UHFFFAOYSA-N.pdb
REMARK                            x       y       z     vdW  Elec       q    Type
REMARK                         _______ _______ _______ _____ _____    ______ ____
ROOT
ATOM      1  C   LIG    1       -0.457  -0.624  -0.141  0.00  0.00    +0.121 A 
ATOM      2  C   LIG    1       -1.566  -1.345   0.342  0.00  0.00    +0.047 A 
ATOM      3  C   LIG    1       -2.843  -0.853   0.347  0.00  0.00    +0.023 A 
ATOM      4  C   LIG    1       -3.085   0.408  -0.137  0.00  0.00    +0.041 A 
ATOM      5 CL   LIG    1       -4.683   1.125  -0.172  0.00  0.00    -0.084 Cl
ATOM      6  C   LIG    1       -2.039   1.159  -0.621  0.00  0.00    +0.023 A 
ATOM      7  C   LIG    1       -0.739   0.636  -0.619  0.00  0.00    +0.047 A 
ENDROOT
BRANCH   1   8
ATOM      8  O   LIG    1        0.778  -1.175  -0.112  0.00  0.00    -0.490 OA
BRANCH   8   9
ATOM      9  C   LIG    1        2.027  -0.773  -0.461  0.00  0.00    +0.256 C 
BRANCH   9  10
ATOM     10  C   LIG    1        2.589   0.400   0.293  0.00  0.00    +0.196 C 
BRANCH  10  11
ATOM     11  O   LIG    1        3.867   0.643  -0.219  0.00  0.00    -0.392 OA
ATOM     12  H   LIG    1        3.963   1.562  -0.556  0.00  0.00    +0.210 HD
ENDBRANCH  10  11
ENDBRANCH   9  10
ENDBRANCH   8   9
ENDBRANCH   1   8
TORSDOF 4
