REMARK  Name = molecules/GEJDGVNQKABXKG-CFKGEZKQSA-N.pdb
REMARK                            x       y       z     vdW  Elec       q    Type
REMARK                         _______ _______ _______ _____ _____    ______ ____
ROOT
ATOM      1  C   LIG    1        3.038  -1.358   0.624  0.00  0.00    +0.054 A 
ATOM      2  C   LIG    1        4.377  -1.253   0.986  0.00  0.00    +0.162 A 
ATOM      3  C   LIG    1        5.296  -0.971   0.019  0.00  0.00    +0.162 A 
ATOM      4  C   LIG    1        4.962  -0.785  -1.306  0.00  0.00    +0.053 A 
ATOM      5  C   LIG    1        3.637  -0.894  -1.635  0.00  0.00    -0.038 A 
ATOM      6  C   LIG    1        3.130  -0.724  -3.019  0.00  0.00    +0.051 C 
ATOM      7  C   LIG    1        1.992   0.273  -2.959  0.00  0.00    +0.089 C 
ATOM      8  N   LIG    1        0.960  -0.098  -2.024  0.00  0.00    -0.295 NA
ATOM      9  C   LIG    1        0.628   1.076  -1.204  0.00  0.00    +0.092 C 
ATOM     10  C   LIG    1       -0.395   0.736  -0.142  0.00  0.00    +0.044 C 
ATOM     11  C   LIG    1       -0.958  -0.622  -0.577  0.00  0.00    +0.183 C 
ATOM     12  C   LIG    1        0.204  -1.594  -0.289  0.00  0.00    +0.068 C 
ATOM     13  C   LIG    1        1.298  -1.256  -1.223  0.00  0.00    +0.091 C 
ATOM     14  C   LIG    1        2.654  -1.183  -0.673  0.00  0.00    -0.023 A 
ENDROOT
BRANCH   2  15
ATOM     15  O   LIG    1        4.747  -1.433   2.306  0.00  0.00    -0.491 OA
ATOM     16  C   LIG    1        3.837  -1.725   3.337  0.00  0.00    +0.277 C 
ENDBRANCH   2  15
BRANCH   3  17
ATOM     17  O   LIG    1        6.637  -0.870   0.408  0.00  0.00    -0.491 OA
ATOM     18  C   LIG    1        7.677  -0.583  -0.504  0.00  0.00    +0.277 C 
ENDBRANCH   3  17
BRANCH  10  19
ATOM     19  C   LIG    1       -1.515   1.709  -0.137  0.00  0.00    +0.011 C 
BRANCH  19  20
ATOM     20  C   LIG    1       -1.244   3.098   0.282  0.00  0.00    -0.017 C 
ATOM     21  C   LIG    1       -2.586   3.856   0.218  0.00  0.00    +0.007 C 
ATOM     22  C   LIG    1       -0.265   3.888  -0.498  0.00  0.00    +0.007 C 
ENDBRANCH  19  20
ENDBRANCH  10  19
BRANCH  11  23
ATOM     23  O   LIG    1       -2.051  -1.020   0.222  0.00  0.00    -0.460 OA
BRANCH  23  24
ATOM     24  C   LIG    1       -3.308  -1.316  -0.266  0.00  0.00    +0.325 C 
ATOM     25  O   LIG    1       -3.499  -1.228  -1.503  0.00  0.00    -0.249 OA
BRANCH  24  26
ATOM     26  C   LIG    1       -4.437  -1.735   0.624  0.00  0.00    +0.163 C 
BRANCH  26  27
ATOM     27  N   LIG    1       -4.013  -1.775   1.993  0.00  0.00    -0.318 NA
ATOM     28  H   LIG    1       -3.529  -0.917   2.314  0.00  0.00    +0.119 HD
ATOM     29  H   LIG    1       -3.479  -2.661   2.220  0.00  0.00    +0.119 HD
ENDBRANCH  26  27
BRANCH  26  30
ATOM     30  C   LIG    1       -5.642  -0.863   0.445  0.00  0.00    +0.010 C 
ATOM     31  C   LIG    1       -6.720  -1.351   1.371  0.00  0.00    +0.009 C 
ATOM     32  C   LIG    1       -5.367   0.590   0.688  0.00  0.00    +0.009 C 
ENDBRANCH  26  30
ENDBRANCH  24  26
ENDBRANCH  23  24
ENDBRANCH  11  23
TORSDOF 9
