REMARK  Name = molecules/GFIJNRVAKGFPGQ-LIJARHBVSA-N.pdb
REMARK                            x       y       z     vdW  Elec       q    Type
REMARK                         _______ _______ _______ _____ _____    ______ ____
ROOT
ATOM      1  C   LIG    1        7.220   5.882   0.000  0.00  0.00    +0.279 C 
ATOM      2  O   LIG    1        6.569   6.305   0.000  0.00  0.00    -0.279 OA
ENDROOT
TORSDOF 0
REMARK  Name = molecules/GFIJNRVAKGFPGQ-LIJARHBVSA-N.pdb
REMARK                            x       y       z     vdW  Elec       q    Type
REMARK                         _______ _______ _______ _____ _____    ______ ____
ROOT
ATOM      1  N   LIG    1        5.753   5.570   0.000  0.00  0.00    -0.321 NA
ATOM      2  H   LIG    1        5.968   4.964   0.000  0.00  0.00    +0.119 HD
ATOM      3  H   LIG    1        4.856   5.296   0.000  0.00  0.00    +0.119 HD
ENDROOT
BRANCH   1   4
ATOM      4  C   LIG    1        5.142   6.768   0.000  0.00  0.00    +0.060 C 
BRANCH   4   5
ATOM      5  C   LIG    1        5.253   8.263   0.000  0.00  0.00    +0.021 C 
ATOM      6  C   LIG    1        6.003   9.562   0.000  0.00  0.00    +0.002 C 
ENDBRANCH   4   5
ENDBRANCH   1   4
TORSDOF 2
REMARK  Name = molecules/GFIJNRVAKGFPGQ-LIJARHBVSA-N.pdb
REMARK                            x       y       z     vdW  Elec       q    Type
REMARK                         _______ _______ _______ _____ _____    ______ ____
ROOT
ATOM      1  N   LIG    1        2.748   3.603   0.000  0.00  0.00    -0.163 NA
ATOM      2  H   LIG    1        2.330   2.354   0.000  0.00  0.00    +0.163 HD
ENDROOT
TORSDOF 0
REMARK  Name = molecules/GFIJNRVAKGFPGQ-LIJARHBVSA-N.pdb
REMARK                            x       y       z     vdW  Elec       q    Type
REMARK                         _______ _______ _______ _____ _____    ______ ____
ROOT
ATOM      1  N   LIG    1        3.252   5.805   0.000  0.00  0.00    +0.204 NA
ATOM      2  O   LIG    1        2.619   6.072   0.000  0.00  0.00    -0.102 OA
ATOM      3  O   LIG    1        3.915   6.106   0.000  0.00  0.00    -0.102 OA
ENDROOT
TORSDOF 0
REMARK  Name = molecules/GFIJNRVAKGFPGQ-LIJARHBVSA-N.pdb
REMARK                            x       y       z     vdW  Elec       q    Type
REMARK                         _______ _______ _______ _____ _____    ______ ____
ROOT
ATOM      1  N   LIG    1        1.977   9.162   0.000  0.00  0.00    -0.116 NA
ATOM      2  C   LIG    1        1.245   8.035   0.000  0.00  0.00    +0.187 C 
ENDROOT
BRANCH   2   3
ATOM      3  C   LIG    1        2.671   7.571   0.000  0.00  0.00    -0.074 C 
ATOM      4  C   LIG    1        3.716   7.232   0.000  0.00  0.00    +0.006 C 
ENDBRANCH   2   3
BRANCH   2   5
ATOM      5  C   LIG    1        0.087   8.199   0.000  0.00  0.00    +0.217 C 
BRANCH   5   6
ATOM      6  O   LIG    1        0.264   7.334   0.000  0.00  0.00    -0.186 OA
BRANCH   6   7
ATOM      7  O   LIG    1        0.889   7.158   0.000  0.00  0.00    -0.032 OA
ATOM      8  O   LIG    1        1.424   7.519   0.000  0.00  0.00    -0.002 OA
ENDBRANCH   6   7
ENDBRANCH   5   6
ENDBRANCH   2   5
TORSDOF 4
REMARK  Name = molecules/GFIJNRVAKGFPGQ-LIJARHBVSA-N.pdb
REMARK                            x       y       z     vdW  Elec       q    Type
REMARK                         _______ _______ _______ _____ _____    ______ ____
ROOT
ATOM      1  N   LIG    1       -1.380   7.888   0.000  0.00  0.00    -0.394 NA
ATOM      2  C   LIG    1       -1.609   8.962   0.000  0.00  0.00    +0.090 C 
ATOM      3  H   LIG    1       -2.403   7.690   0.000  0.00  0.00    +0.124 HD
ATOM      4  H   LIG    1       -0.816   7.139   0.000  0.00  0.00    +0.124 HD
ENDROOT
BRANCH   1   5
ATOM      5  C   LIG    1       -0.182   8.498   0.000  0.00  0.00    +0.024 C 
ATOM      6  C   LIG    1        0.551   9.626   0.000  0.00  0.00    +0.033 C 
ENDBRANCH   1   5
TORSDOF 1
REMARK  Name = molecules/GFIJNRVAKGFPGQ-LIJARHBVSA-N.pdb
REMARK                            x       y       z     vdW  Elec       q    Type
REMARK                         _______ _______ _______ _____ _____    ______ ____
ROOT
ATOM      1  N   LIG    1       -0.105   4.530   0.000  0.00  0.00    -0.131 NA
ATOM      2  C   LIG    1        1.321   4.067   0.000  0.00  0.00    +0.109 C 
ATOM      3  C   LIG    1        1.785   5.493   0.000  0.00  0.00    +0.022 C 
ENDROOT
TORSDOF 0
REMARK  Name = molecules/GFIJNRVAKGFPGQ-LIJARHBVSA-N.pdb
REMARK                            x       y       z     vdW  Elec       q    Type
REMARK                         _______ _______ _______ _____ _____    ______ ____
ROOT
ATOM      1  N   LIG    1        0.781   6.608   0.000  0.00  0.00    -0.130 NA
ATOM      2  C   LIG    1       -0.417   5.997   0.000  0.00  0.00    +0.130 C 
ENDROOT
TORSDOF 0
REMARK  Name = molecules/GFIJNRVAKGFPGQ-LIJARHBVSA-N.pdb
REMARK                            x       y       z     vdW  Elec       q    Type
REMARK                         _______ _______ _______ _____ _____    ______ ____
ROOT
ATOM      1  N   LIG    1        3.786   8.575   0.000  0.00  0.00    -0.163 NA
ATOM      2  H   LIG    1        4.511   8.504   0.000  0.00  0.00    +0.163 HD
ENDROOT
TORSDOF 0
REMARK  Name = molecules/GFIJNRVAKGFPGQ-LIJARHBVSA-N.pdb
REMARK                            x       y       z     vdW  Elec       q    Type
REMARK                         _______ _______ _______ _____ _____    ______ ____
ROOT
ATOM      1  N   LIG    1        7.837   8.534   0.000  0.00  0.00    -0.163 NA
ATOM      2  H   LIG    1        7.394   9.000   0.000  0.00  0.00    +0.163 HD
ENDROOT
TORSDOF 0
REMARK  Name = molecules/GFIJNRVAKGFPGQ-LIJARHBVSA-N.pdb
REMARK                            x       y       z     vdW  Elec       q    Type
REMARK                         _______ _______ _______ _____ _____    ______ ____
ROOT
ATOM      1  O   LIG    1        7.854   7.241   0.000  0.00  0.00    -0.218 OA
ATOM      2  O   LIG    1        7.463   6.409   0.000  0.00  0.00    -0.038 OA
ATOM      3  H   LIG    1        8.597   6.554   0.000  0.00  0.00    +0.256 HD
ENDROOT
TORSDOF 0
REMARK  Name = molecules/GFIJNRVAKGFPGQ-LIJARHBVSA-N.pdb
REMARK                            x       y       z     vdW  Elec       q    Type
REMARK                         _______ _______ _______ _____ _____    ______ ____
ROOT
ATOM      1  C   LIG    1        8.224   4.767   0.000  0.00  0.00    +0.136 C 
ATOM      2  N   LIG    1        9.356   4.098   0.000  0.00  0.00    -0.136 NA
ENDROOT
TORSDOF 0
REMARK  Name = molecules/GFIJNRVAKGFPGQ-LIJARHBVSA-N.pdb
REMARK                            x       y       z     vdW  Elec       q    Type
REMARK                         _______ _______ _______ _____ _____    ______ ____
ROOT
ATOM      1  C   LIG    1        9.207   7.924   0.000  0.00  0.00    -0.008 C 
ATOM      2  C   LIG    1       10.578   7.314   0.000  0.00  0.00    +0.008 C 
ENDROOT
TORSDOF 0
REMARK  Name = molecules/GFIJNRVAKGFPGQ-LIJARHBVSA-N.pdb
REMARK                            x       y       z     vdW  Elec       q    Type
REMARK                         _______ _______ _______ _____ _____    ______ ____
ROOT
ATOM      1  C   LIG    1        7.474   2.459   0.000  0.00  0.00    +0.040 C 
ATOM      2  C   LIG    1        6.716   3.680   0.000  0.00  0.00    -0.002 C 
ATOM      3  C   LIG    1        8.142   3.216   0.000  0.00  0.00    +0.113 C 
ATOM      4  C   LIG    1        7.010   3.885   0.000  0.00  0.00    +0.030 C 
ATOM      5  N   LIG    1        9.437   3.885   0.000  0.00  0.00    -0.259 NA
ATOM      6  C   LIG    1       10.569   3.216   0.000  0.00  0.00    +0.216 C 
ATOM      7  N   LIG    1       10.106   1.790   0.000  0.00  0.00    -0.242 NA
ATOM      8  C   LIG    1        8.974   2.459   0.000  0.00  0.00    +0.053 C 
ATOM      9  C   LIG    1        8.606   1.790   0.000  0.00  0.00    +0.051 C 
ENDROOT
TORSDOF 0
REMARK  Name = molecules/GFIJNRVAKGFPGQ-LIJARHBVSA-N.pdb
REMARK                            x       y       z     vdW  Elec       q    Type
REMARK                         _______ _______ _______ _____ _____    ______ ____
ROOT
ATOM      1  O   HOH    1       10.123   1.495   0.000  0.00  0.00    -0.253 OA
ATOM      2  H   HOH    0       10.988   0.576   0.000  0.00  0.00    +0.253 HD
ENDROOT
TORSDOF 0
REMARK  Name = molecules/GFIJNRVAKGFPGQ-LIJARHBVSA-N.pdb
REMARK                            x       y       z     vdW  Elec       q    Type
REMARK                         _______ _______ _______ _____ _____    ______ ____
ROOT
ATOM      1  C   LIG    1        3.863   4.607   0.000  0.00  0.00    +0.225 C 
ATOM      2  O   LIG    1        3.284   5.441   0.000  0.00  0.00    -0.225 OA
ENDROOT
TORSDOF 0
REMARK  Name = molecules/GFIJNRVAKGFPGQ-LIJARHBVSA-N.pdb
REMARK                            x       y       z     vdW  Elec       q    Type
REMARK                         _______ _______ _______ _____ _____    ______ ____
ROOT
ATOM      1  C   LIG    1        5.289   4.143   0.000  0.00  0.00    -0.000 C 
ENDROOT
TORSDOF 0
REMARK  Name = molecules/GFIJNRVAKGFPGQ-LIJARHBVSA-N.pdb
REMARK                            x       y       z     vdW  Elec       q    Type
REMARK                         _______ _______ _______ _____ _____    ______ ____
ROOT
ATOM      1  C   LIG    1        1.785   5.493   0.000  0.00  0.00    +0.000 C 
ENDROOT
TORSDOF 0
REMARK  Name = molecules/GFIJNRVAKGFPGQ-LIJARHBVSA-N.pdb
REMARK                            x       y       z     vdW  Elec       q    Type
REMARK                         _______ _______ _______ _____ _____    ______ ____
ROOT
ATOM      1  C   LIG    1        0.858   2.640   0.000  0.00  0.00    +0.000 C 
ENDROOT
TORSDOF 0
REMARK  Name = molecules/GFIJNRVAKGFPGQ-LIJARHBVSA-N.pdb
REMARK                            x       y       z     vdW  Elec       q    Type
REMARK                         _______ _______ _______ _____ _____    ______ ____
ROOT
ATOM      1  C   LIG    1        0.394   1.214   0.000  0.00  0.00    +0.000 C 
ENDROOT
TORSDOF 0
REMARK  Name = molecules/GFIJNRVAKGFPGQ-LIJARHBVSA-N.pdb
REMARK                            x       y       z     vdW  Elec       q    Type
REMARK                         _______ _______ _______ _____ _____    ______ ____
ROOT
ATOM      1  C   LIG    1       -0.069  -0.213   0.000  0.00  0.00    +0.057 C 
ATOM      2  C   LIG    1       -1.032   0.750   0.000  0.00  0.00    +0.028 C 
ENDROOT
BRANCH   1   3
ATOM      3  N   LIG    1        0.394  -1.214   0.000  0.00  0.00    -0.318 NA
ATOM      4  H   LIG    1        1.096  -1.157   0.000  0.00  0.00    +0.119 HD
ATOM      5  H   LIG    1       -0.533  -1.640   0.000  0.00  0.00    +0.119 HD
ENDBRANCH   1   3
BRANCH   1   6
ATOM      6  C   LIG    1        1.276   0.000   0.000  0.00  0.00    -0.009 C 
ATOM      7  C   LIG    1        1.821   0.750   0.000  0.00  0.00    +0.006 C 
ENDBRANCH   1   6
BRANCH   1   8
ATOM      8  C   LIG    1       -1.032  -0.750   0.000  0.00  0.00    -0.005 C 
ATOM      9  C   LIG    1       -2.331  -1.500   0.000  0.00  0.00    -0.021 C 
BRANCH   9  10
ATOM     10  C   LIG    1       -3.630  -0.750   0.000  0.00  0.00    +0.045 C 
BRANCH  10  11
ATOM     11  C   LIG    1       -3.630   0.750   0.000  0.00  0.00    -0.019 C 
ATOM     12  C   LIG    1       -2.331   1.500   0.000  0.00  0.00    -0.004 C 
ENDBRANCH  10  11
ENDBRANCH   9  10
ENDBRANCH   1   8
TORSDOF 5
REMARK  Name = molecules/GFIJNRVAKGFPGQ-LIJARHBVSA-N.pdb
REMARK                            x       y       z     vdW  Elec       q    Type
REMARK                         _______ _______ _______ _____ _____    ______ ____
ROOT
ATOM      1  C   LIG    1        1.321   4.067   0.000  0.00  0.00    +0.000 C 
ENDROOT
TORSDOF 0
REMARK  Name = molecules/GFIJNRVAKGFPGQ-LIJARHBVSA-N.pdb
REMARK                            x       y       z     vdW  Elec       q    Type
REMARK                         _______ _______ _______ _____ _____    ______ ____
ROOT
ATOM      1  O   HOH    1        1.247   6.894   0.000  0.00  0.00    +0.000 OA
ENDROOT
TORSDOF 0
REMARK  Name = molecules/GFIJNRVAKGFPGQ-LIJARHBVSA-N.pdb
REMARK                            x       y       z     vdW  Elec       q    Type
REMARK                         _______ _______ _______ _____ _____    ______ ____
ROOT
ATOM      1  C   LIG    1        2.289   7.695   0.000  0.00  0.00    +0.000 C 
ENDROOT
TORSDOF 0
REMARK  Name = molecules/GFIJNRVAKGFPGQ-LIJARHBVSA-N.pdb
REMARK                            x       y       z     vdW  Elec       q    Type
REMARK                         _______ _______ _______ _____ _____    ______ ____
ROOT
ATOM      1  C   LIG    1        1.014  11.053   0.000  0.00  0.00    +0.040 C 
ATOM      2  C   LIG    1        1.478  12.479   0.000  0.00  0.00    -0.047 A 
ATOM      3  C   LIG    1        2.945  12.791   0.000  0.00  0.00    +0.007 A 
ATOM      4  C   LIG    1        3.408  14.218   0.000  0.00  0.00    +0.051 A 
ATOM      5  C   LIG    1        2.405  15.332   0.000  0.00  0.00    +0.179 A 
ATOM      6  C   LIG    1        0.938  15.021   0.000  0.00  0.00    +0.051 A 
ATOM      7  O   LIG    1        2.868  16.759   0.000  0.00  0.00    -0.288 OA
ATOM      8  C   LIG    1        0.474  13.594   0.000  0.00  0.00    +0.007 A 
ENDROOT
TORSDOF 0
REMARK  Name = molecules/GFIJNRVAKGFPGQ-LIJARHBVSA-N.pdb
REMARK                            x       y       z     vdW  Elec       q    Type
REMARK                         _______ _______ _______ _____ _____    ______ ____
ROOT
ATOM      1  C   LIG    1       -6.123   7.851   0.000  0.00  0.00    +0.008 C 
ATOM      2  C   LIG    1       -4.697   7.388   0.000  0.00  0.00    -0.020 C 
ATOM      3  C   LIG    1       -5.160   5.961   0.000  0.00  0.00    +0.012 C 
ENDROOT
TORSDOF 0
REMARK  Name = molecules/GFIJNRVAKGFPGQ-LIJARHBVSA-N.pdb
REMARK                            x       y       z     vdW  Elec       q    Type
REMARK                         _______ _______ _______ _____ _____    ______ ____
ROOT
ATOM      1  C   LIG    1       -3.270   6.925   0.000  0.00  0.00    +0.000 C 
ENDROOT
TORSDOF 0
REMARK  Name = molecules/GFIJNRVAKGFPGQ-LIJARHBVSA-N.pdb
REMARK                            x       y       z     vdW  Elec       q    Type
REMARK                         _______ _______ _______ _____ _____    ______ ____
ROOT
ATOM      1  C   LIG    1       -1.844   6.461   0.000  0.00  0.00    +0.000 C 
ENDROOT
TORSDOF 0
REMARK  Name = molecules/GFIJNRVAKGFPGQ-LIJARHBVSA-N.pdb
REMARK                            x       y       z     vdW  Elec       q    Type
REMARK                         _______ _______ _______ _____ _____    ______ ____
ROOT
ATOM      1  C   LIG    1        0.858   2.640   0.000  0.00  0.00    +0.000 C 
ATOM      2  C   LIG    1        0.394   1.214   0.000  0.00  0.00    +0.000 C 
ENDROOT
TORSDOF 0
REMARK  Name = molecules/GFIJNRVAKGFPGQ-LIJARHBVSA-N.pdb
REMARK                            x       y       z     vdW  Elec       q    Type
REMARK                         _______ _______ _______ _____ _____    ______ ____
ROOT
ATOM      1  C   LIG    1       -3.035   9.425   0.000  0.00  0.00    +0.000 C 
ENDROOT
TORSDOF 0
REMARK  Name = molecules/GFIJNRVAKGFPGQ-LIJARHBVSA-N.pdb
REMARK                            x       y       z     vdW  Elec       q    Type
REMARK                         _______ _______ _______ _____ _____    ______ ____
ROOT
ATOM      1  C   LIG    1       -4.774  11.356   0.000  0.00  0.00    +0.531 C 
ATOM      2  N   LIG    1       -6.200  11.819   0.000  0.00  0.00    +0.135 NA
ATOM      3  N   LIG    1       -3.659  12.360   0.000  0.00  0.00    +0.135 NA
ENDROOT
BRANCH   1   4
ATOM      4  N   LIG    1       -4.462   9.889   0.000  0.00  0.00    -0.118 NA
ATOM      5  H   LIG    1       -4.233   8.815   0.000  0.00  0.00    +0.307 HD
ENDBRANCH   1   4
TORSDOF 1
REMARK  Name = molecules/GFIJNRVAKGFPGQ-LIJARHBVSA-N.pdb
REMARK                            x       y       z     vdW  Elec       q    Type
REMARK                         _______ _______ _______ _____ _____    ______ ____
ROOT
ATOM      1  C   LIG    1        6.623   7.653   0.000  0.00  0.00    +0.000 C 
ENDROOT
TORSDOF 0
REMARK  Name = molecules/GFIJNRVAKGFPGQ-LIJARHBVSA-N.pdb
REMARK                            x       y       z     vdW  Elec       q    Type
REMARK                         _______ _______ _______ _____ _____    ______ ____
ROOT
ATOM      1  C   LIG    1        5.000  10.677   0.000  0.00  0.00    -0.000 C 
ENDROOT
TORSDOF 0
REMARK  Name = molecules/GFIJNRVAKGFPGQ-LIJARHBVSA-N.pdb
REMARK                            x       y       z     vdW  Elec       q    Type
REMARK                         _______ _______ _______ _____ _____    ______ ____
ROOT
ATOM      1  C   LIG    1        3.629  10.066   0.000  0.00  0.00    +0.000 C 
ENDROOT
TORSDOF 0
REMARK  Name = molecules/GFIJNRVAKGFPGQ-LIJARHBVSA-N.pdb
REMARK                            x       y       z     vdW  Elec       q    Type
REMARK                         _______ _______ _______ _____ _____    ______ ____
ROOT
ATOM      1  H   UNK    1        3.236   2.185   0.000  0.00  0.00    +0.000 HD
ENDROOT
TORSDOF 0
REMARK  Name = molecules/GFIJNRVAKGFPGQ-LIJARHBVSA-N.pdb
REMARK                            x       y       z     vdW  Elec       q    Type
REMARK                         _______ _______ _______ _____ _____    ______ ____
ROOT
ATOM      1  H   UNK    1       -1.430   3.826   0.000  0.00  0.00    +0.000 HD
ENDROOT
TORSDOF 0
REMARK  Name = molecules/GFIJNRVAKGFPGQ-LIJARHBVSA-N.pdb
REMARK                            x       y       z     vdW  Elec       q    Type
REMARK                         _______ _______ _______ _____ _____    ______ ____
ROOT
ATOM      1  H   UNK    1        7.680  10.026   0.000  0.00  0.00    +0.000 HD
ENDROOT
TORSDOF 0
REMARK  Name = molecules/GFIJNRVAKGFPGQ-LIJARHBVSA-N.pdb
REMARK                            x       y       z     vdW  Elec       q    Type
REMARK                         _______ _______ _______ _____ _____    ______ ____
ROOT
ATOM      1  H   UNK    1        9.356   5.751   0.000  0.00  0.00    +0.000 HD
ENDROOT
TORSDOF 0
REMARK  Name = molecules/GFIJNRVAKGFPGQ-LIJARHBVSA-N.pdb
REMARK                            x       y       z     vdW  Elec       q    Type
REMARK                         _______ _______ _______ _____ _____    ______ ____
ROOT
ATOM      1  H   UNK    1        6.055   1.970   0.000  0.00  0.00    +0.000 HD
ENDROOT
TORSDOF 0
REMARK  Name = molecules/GFIJNRVAKGFPGQ-LIJARHBVSA-N.pdb
REMARK                            x       y       z     vdW  Elec       q    Type
REMARK                         _______ _______ _______ _____ _____    ______ ____
ROOT
ATOM      1  H   UNK    1        7.879   0.478   0.000  0.00  0.00    +0.000 HD
ENDROOT
TORSDOF 0
REMARK  Name = molecules/GFIJNRVAKGFPGQ-LIJARHBVSA-N.pdb
REMARK                            x       y       z     vdW  Elec       q    Type
REMARK                         _______ _______ _______ _____ _____    ______ ____
ROOT
ATOM      1  H   UNK    1       11.996   3.680   0.000  0.00  0.00    +0.000 HD
ENDROOT
TORSDOF 0
REMARK  Name = molecules/GFIJNRVAKGFPGQ-LIJARHBVSA-N.pdb
REMARK                            x       y       z     vdW  Elec       q    Type
REMARK                         _______ _______ _______ _____ _____    ______ ____
ROOT
ATOM      1  H   UNK    1        4.826   2.717   0.000  0.00  0.00    +0.000 HD
ENDROOT
TORSDOF 0
REMARK  Name = molecules/GFIJNRVAKGFPGQ-LIJARHBVSA-N.pdb
REMARK                            x       y       z     vdW  Elec       q    Type
REMARK                         _______ _______ _______ _____ _____    ______ ____
ROOT
ATOM      1  H   UNK    1       -0.638   2.745   0.000  0.00  0.00    +0.000 HD
ENDROOT
TORSDOF 0
REMARK  Name = molecules/GFIJNRVAKGFPGQ-LIJARHBVSA-N.pdb
REMARK                            x       y       z     vdW  Elec       q    Type
REMARK                         _______ _______ _______ _____ _____    ______ ____
ROOT
ATOM      1  H   UNK    1        0.858  -2.640   0.000  0.00  0.00    +0.000 HD
ENDROOT
TORSDOF 0
REMARK  Name = molecules/GFIJNRVAKGFPGQ-LIJARHBVSA-N.pdb
REMARK                            x       y       z     vdW  Elec       q    Type
REMARK                         _______ _______ _______ _____ _____    ______ ____
ROOT
ATOM      1  H   UNK    1        1.865  17.874   0.000  0.00  0.00    +0.000 HD
ENDROOT
TORSDOF 0
REMARK  Name = molecules/GFIJNRVAKGFPGQ-LIJARHBVSA-N.pdb
REMARK                            x       y       z     vdW  Elec       q    Type
REMARK                         _______ _______ _______ _____ _____    ______ ____
ROOT
ATOM      1  H   UNK    1       -0.809  10.260   0.000  0.00  0.00    +0.000 HD
ENDROOT
TORSDOF 0
REMARK  Name = molecules/GFIJNRVAKGFPGQ-LIJARHBVSA-N.pdb
REMARK                            x       y       z     vdW  Elec       q    Type
REMARK                         _______ _______ _______ _____ _____    ______ ____
ROOT
ATOM      1  H   UNK    1       -7.550   8.315   0.000  0.00  0.00    +0.000 HD
ENDROOT
TORSDOF 0
REMARK  Name = molecules/GFIJNRVAKGFPGQ-LIJARHBVSA-N.pdb
REMARK                            x       y       z     vdW  Elec       q    Type
REMARK                         _______ _______ _______ _____ _____    ______ ____
ROOT
ATOM      1  H   UNK    1       -5.837   9.324   0.000  0.00  0.00    +0.000 HD
ENDROOT
TORSDOF 0
REMARK  Name = molecules/GFIJNRVAKGFPGQ-LIJARHBVSA-N.pdb
REMARK                            x       y       z     vdW  Elec       q    Type
REMARK                         _______ _______ _______ _____ _____    ______ ____
ROOT
ATOM      1  H   UNK    1       -3.556   5.452   0.000  0.00  0.00    +0.000 HD
ENDROOT
TORSDOF 0
REMARK  Name = molecules/GFIJNRVAKGFPGQ-LIJARHBVSA-N.pdb
REMARK                            x       y       z     vdW  Elec       q    Type
REMARK                         _______ _______ _______ _____ _____    ______ ____
ROOT
ATOM      1  H   UNK    1       -3.166   8.421   0.000  0.00  0.00    +0.000 HD
ENDROOT
TORSDOF 0
REMARK  Name = molecules/GFIJNRVAKGFPGQ-LIJARHBVSA-N.pdb
REMARK                            x       y       z     vdW  Elec       q    Type
REMARK                         _______ _______ _______ _____ _____    ______ ____
ROOT
ATOM      1  H   UNK    1       -2.307   5.034   0.000  0.00  0.00    +0.000 HD
ENDROOT
TORSDOF 0
REMARK  Name = molecules/GFIJNRVAKGFPGQ-LIJARHBVSA-N.pdb
REMARK                            x       y       z     vdW  Elec       q    Type
REMARK                         _______ _______ _______ _____ _____    ______ ____
ROOT
ATOM      1  H   UNK    1       -0.569   3.104   0.000  0.00  0.00    +0.000 HD
ENDROOT
TORSDOF 0
REMARK  Name = molecules/GFIJNRVAKGFPGQ-LIJARHBVSA-N.pdb
REMARK                            x       y       z     vdW  Elec       q    Type
REMARK                         _______ _______ _______ _____ _____    ______ ____
ROOT
ATOM      1  H   UNK    1        3.293   0.464   0.000  0.00  0.00    +0.000 HD
ENDROOT
TORSDOF 0
REMARK  Name = molecules/GFIJNRVAKGFPGQ-LIJARHBVSA-N.pdb
REMARK                            x       y       z     vdW  Elec       q    Type
REMARK                         _______ _______ _______ _____ _____    ______ ____
ROOT
ATOM      1  H   UNK    1        2.455   2.109   0.000  0.00  0.00    +0.000 HD
ENDROOT
TORSDOF 0
REMARK  Name = molecules/GFIJNRVAKGFPGQ-LIJARHBVSA-N.pdb
REMARK                            x       y       z     vdW  Elec       q    Type
REMARK                         _______ _______ _______ _____ _____    ______ ____
ROOT
ATOM      1  H   UNK    1       -1.322  10.434   0.000  0.00  0.00    +0.000 HD
ENDROOT
TORSDOF 0
REMARK  Name = molecules/GFIJNRVAKGFPGQ-LIJARHBVSA-N.pdb
REMARK                            x       y       z     vdW  Elec       q    Type
REMARK                         _______ _______ _______ _____ _____    ______ ____
ROOT
ATOM      1  H   UNK    1       -2.571  10.852   0.000  0.00  0.00    +0.000 HD
ENDROOT
TORSDOF 0
REMARK  Name = molecules/GFIJNRVAKGFPGQ-LIJARHBVSA-N.pdb
REMARK                            x       y       z     vdW  Elec       q    Type
REMARK                         _______ _______ _______ _____ _____    ______ ____
ROOT
ATOM      1  H   UNK    1       -3.971  13.827   0.000  0.00  0.00    +0.000 HD
ENDROOT
TORSDOF 0
REMARK  Name = molecules/GFIJNRVAKGFPGQ-LIJARHBVSA-N.pdb
REMARK                            x       y       z     vdW  Elec       q    Type
REMARK                         _______ _______ _______ _____ _____    ______ ____
ROOT
ATOM      1  H   UNK    1       -2.232  11.896   0.000  0.00  0.00    +0.000 HD
ENDROOT
TORSDOF 0
REMARK  Name = molecules/GFIJNRVAKGFPGQ-LIJARHBVSA-N.pdb
REMARK                            x       y       z     vdW  Elec       q    Type
REMARK                         _______ _______ _______ _____ _____    ______ ____
ROOT
ATOM      1  H   UNK    1       -6.512  13.287   0.000  0.00  0.00    +0.000 HD
ENDROOT
TORSDOF 0
REMARK  Name = molecules/GFIJNRVAKGFPGQ-LIJARHBVSA-N.pdb
REMARK                            x       y       z     vdW  Elec       q    Type
REMARK                         _______ _______ _______ _____ _____    ______ ____
ROOT
ATOM      1  H   UNK    1        4.967   6.790   0.000  0.00  0.00    +0.000 HD
ENDROOT
TORSDOF 0
REMARK  Name = molecules/GFIJNRVAKGFPGQ-LIJARHBVSA-N.pdb
REMARK                            x       y       z     vdW  Elec       q    Type
REMARK                         _______ _______ _______ _____ _____    ______ ____
ROOT
ATOM      1  H   UNK    1        4.413  12.057   0.000  0.00  0.00    +0.000 HD
ENDROOT
TORSDOF 0
REMARK  Name = molecules/GFIJNRVAKGFPGQ-LIJARHBVSA-N.pdb
REMARK                            x       y       z     vdW  Elec       q    Type
REMARK                         _______ _______ _______ _____ _____    ______ ____
ROOT
ATOM      1  H   UNK    1        2.281   9.409   0.000  0.00  0.00    +0.000 HD
ENDROOT
TORSDOF 0
