REMARK  Name = molecules/GFNANZIMVAIWHM-OBYCQNJPSA-N.pdb
REMARK                            x       y       z     vdW  Elec       q    Type
REMARK                         _______ _______ _______ _____ _____    ______ ____
ROOT
ATOM      1  F   LIG    1        1.177   0.429   1.344  0.00  0.00    -0.238 F 
ATOM      2  C   LIG    1        1.331   0.378  -0.057  0.00  0.00    +0.153 C 
ATOM      3  C   LIG    1        2.783   0.319  -0.327  0.00  0.00    +0.044 C 
ATOM      4  C   LIG    1        3.301  -0.631   0.730  0.00  0.00    -0.053 C 
ATOM      5  C   LIG    1        4.205  -0.326   1.607  0.00  0.00    +0.051 C 
ATOM      6  C   LIG    1        4.775   1.013   1.602  0.00  0.00    +0.179 C 
ATOM      7  O   LIG    1        5.655   1.330   2.445  0.00  0.00    -0.288 OA
ATOM      8  C   LIG    1        4.331   1.995   0.623  0.00  0.00    +0.047 C 
ATOM      9  C   LIG    1        2.647  -1.963   0.702  0.00  0.00    +0.032 C 
ATOM     10  C   LIG    1        1.480  -2.089  -0.198  0.00  0.00    +0.011 C 
ATOM     11  C   LIG    1        3.405   1.636  -0.255  0.00  0.00    -0.009 C 
ATOM     12  C   LIG    1        3.145  -0.317  -1.648  0.00  0.00    +0.023 C 
ATOM     13  C   LIG    1        0.622  -0.918  -0.451  0.00  0.00    +0.034 C 
ATOM     14  C   LIG    1       -0.642  -0.903   0.307  0.00  0.00    +0.007 C 
ATOM     15  C   LIG    1       -1.648  -1.970   0.007  0.00  0.00    +0.039 C 
ATOM     16  C   LIG    1       -2.932  -1.369   0.604  0.00  0.00    +0.154 C 
ATOM     17  C   LIG    1       -2.592   0.073   0.922  0.00  0.00    +0.157 C 
ATOM     18  C   LIG    1       -1.491   0.326  -0.094  0.00  0.00    +0.012 C 
ATOM     19  C   LIG    1       -0.765   1.601   0.140  0.00  0.00    +0.044 C 
ATOM     20  C   LIG    1       -2.056   0.173  -1.459  0.00  0.00    +0.015 C 
ATOM     21  C   LIG    1        0.592   1.579  -0.551  0.00  0.00    +0.154 C 
ENDROOT
BRANCH  16  22
ATOM     22  O   LIG    1       -3.185  -2.092   1.781  0.00  0.00    -0.388 OA
ATOM     23  H   LIG    1       -3.571  -2.957   1.492  0.00  0.00    +0.210 HD
ENDBRANCH  16  22
BRANCH  17  24
ATOM     24  O   LIG    1       -1.960   0.079   2.188  0.00  0.00    -0.378 OA
ATOM     25  H   LIG    1       -2.435   0.721   2.790  0.00  0.00    +0.211 HD
ENDBRANCH  17  24
BRANCH  17  26
ATOM     26  C   LIG    1       -3.723   0.985   0.883  0.00  0.00    +0.193 C 
ATOM     27  O   LIG    1       -3.940   1.627   1.941  0.00  0.00    -0.292 OA
BRANCH  26  28
ATOM     28  C   LIG    1       -4.657   1.273  -0.204  0.00  0.00    +0.233 C 
BRANCH  28  29
ATOM     29  O   LIG    1       -5.669   2.179   0.204  0.00  0.00    -0.387 OA
ATOM     30  H   LIG    1       -6.200   1.689   0.871  0.00  0.00    +0.210 HD
ENDBRANCH  28  29
ENDBRANCH  26  28
ENDBRANCH  17  26
BRANCH  21  31
ATOM     31  O   LIG    1        0.528   1.732  -1.903  0.00  0.00    -0.389 OA
ATOM     32  H   LIG    1        0.417   0.936  -2.443  0.00  0.00    +0.210 HD
ENDBRANCH  21  31
TORSDOF 6
