REMARK  Name = molecules/GFRUPHOKLBPHTQ-OAQYLSRUSA-N.pdb
REMARK                            x       y       z     vdW  Elec       q    Type
REMARK                         _______ _______ _______ _____ _____    ______ ____
ROOT
ATOM      1  C   LIG    1       -1.943   0.241   0.388  0.00  0.00    +0.190 C 
ENDROOT
BRANCH   1   2
ATOM      2  C   LIG    1       -2.571   1.585   0.472  0.00  0.00    -0.005 A 
ATOM      3  C   LIG    1       -3.115   2.050   1.666  0.00  0.00    +0.007 A 
ATOM      4  C   LIG    1       -3.664   3.310   1.652  0.00  0.00    +0.000 A 
ATOM      5  C   LIG    1       -3.698   4.106   0.543  0.00  0.00    +0.000 A 
ATOM      6  C   LIG    1       -3.160   3.647  -0.637  0.00  0.00    +0.000 A 
ATOM      7  C   LIG    1       -2.602   2.382  -0.647  0.00  0.00    +0.007 A 
ENDBRANCH   1   2
BRANCH   1   8
ATOM      8  C   LIG    1       -2.881  -0.644  -0.378  0.00  0.00    +0.036 C 
ATOM      9  C   LIG    1       -4.197  -0.716   0.354  0.00  0.00    +0.007 C 
ATOM     10  C   LIG    1       -4.238  -1.901   1.325  0.00  0.00    +0.000 C 
ATOM     11  C   LIG    1       -4.388  -3.142   0.451  0.00  0.00    +0.000 C 
ATOM     12  C   LIG    1       -3.557  -2.943  -0.798  0.00  0.00    +0.000 C 
ATOM     13  C   LIG    1       -2.354  -2.051  -0.539  0.00  0.00    +0.007 C 
ENDBRANCH   1   8
BRANCH   1  14
ATOM     14  O   LIG    1       -1.821  -0.203   1.707  0.00  0.00    -0.373 OA
ATOM     15  H   LIG    1       -0.924  -0.552   1.909  0.00  0.00    +0.211 HD
ENDBRANCH   1  14
BRANCH   1  16
ATOM     16  C   LIG    1       -0.620   0.367  -0.264  0.00  0.00    +0.344 C 
ATOM     17  O   LIG    1       -0.474   0.672  -1.468  0.00  0.00    -0.247 OA
BRANCH  16  18
ATOM     18  O   LIG    1        0.562   0.140   0.473  0.00  0.00    -0.464 OA
BRANCH  18  19
ATOM     19  C   LIG    1        1.780   0.281  -0.224  0.00  0.00    +0.214 C 
BRANCH  19  20
ATOM     20  C   LIG    1        2.974   0.015   0.664  0.00  0.00    -0.034 C 
BRANCH  20  21
ATOM     21  N   LIG    1        4.206   0.169  -0.086  0.00  0.00    +0.380 N 
ATOM     22  C   LIG    1        4.077   1.333  -0.933  0.00  0.00    -0.092 C 
BRANCH  21  23
ATOM     23  C   LIG    1        5.286   0.472   0.856  0.00  0.00    -0.079 C 
ATOM     24  C   LIG    1        5.234  -0.377   2.083  0.00  0.00    -0.016 C 
ENDBRANCH  21  23
BRANCH  21  25
ATOM     25  C   LIG    1        4.483  -1.039  -0.824  0.00  0.00    -0.079 C 
ATOM     26  C   LIG    1        4.440  -0.875  -2.304  0.00  0.00    -0.016 C 
ENDBRANCH  21  25
ENDBRANCH  20  21
ENDBRANCH  19  20
ENDBRANCH  18  19
ENDBRANCH  16  18
ENDBRANCH   1  16
TORSDOF 10
