REMARK  Name = molecules/GGGDNPWHMNJRFN-UHFFFAOYSA-N.pdb
REMARK                            x       y       z     vdW  Elec       q    Type
REMARK                         _______ _______ _______ _____ _____    ______ ____
ROOT
ATOM      1  C   LIG    1       -0.969   0.115   0.152  0.00  0.00    +0.065 A 
ATOM      2  C   LIG    1       -1.012   1.488   0.084  0.00  0.00    +0.051 A 
ATOM      3  I   LIG    1       -2.855   2.473   0.413  0.00  0.00    -0.041 I 
ATOM      4  C   LIG    1        0.118   2.208  -0.193  0.00  0.00    +0.089 A 
ATOM      5  C   LIG    1        1.328   1.546  -0.409  0.00  0.00    +0.051 A 
ATOM      6  C   LIG    1        1.371   0.186  -0.342  0.00  0.00    +0.063 A 
ATOM      7  I   LIG    1        3.096   2.618  -0.838  0.00  0.00    -0.041 I 
ATOM      8  C   LIG    1        0.246  -0.547  -0.066  0.00  0.00    +0.058 A 
ATOM      9  I   LIG    1        0.361  -2.632   0.028  0.00  0.00    -0.040 I 
ENDROOT
BRANCH   1  10
ATOM     10  N   LIG    1       -2.113  -0.684   0.436  0.00  0.00    -0.273 N 
ATOM     11  C   LIG    1       -2.216  -1.398   1.688  0.00  0.00    +0.138 C 
ATOM     12  C   LIG    1       -3.156  -0.783  -0.505  0.00  0.00    +0.216 C 
ATOM     13  C   LIG    1       -4.330  -1.612  -0.218  0.00  0.00    +0.109 C 
ATOM     14  O   LIG    1       -3.088  -0.166  -1.592  0.00  0.00    -0.276 OA
ENDBRANCH   1  10
BRANCH   6  15
ATOM     15  N   LIG    1        2.591  -0.521  -0.561  0.00  0.00    -0.284 N 
ATOM     16  C   LIG    1        3.486  -0.839   0.478  0.00  0.00    +0.214 C 
ATOM     17  O   LIG    1        3.224  -0.498   1.650  0.00  0.00    -0.276 OA
ATOM     18  C   LIG    1        4.729  -1.570   0.198  0.00  0.00    +0.109 C 
ATOM     19  H   LIG    1        2.863  -0.834  -1.540  0.00  0.00    +0.155 HD
ENDBRANCH   6  15
BRANCH   4  20
ATOM     20  C   LIG    1        0.064   3.648  -0.262  0.00  0.00    +0.339 C 
ATOM     21  O   LIG    1       -0.977   4.295  -0.081  0.00  0.00    -0.245 OA
BRANCH  20  22
ATOM     22  O   LIG    1        1.217   4.373  -0.546  0.00  0.00    -0.477 OA
ATOM     23  H   LIG    1        1.716   4.838   0.211  0.00  0.00    +0.295 HD
ENDBRANCH  20  22
ENDBRANCH   4  20
TORSDOF 4
