REMARK  Name = molecules/GGQJXCQBBONZFX-IWVLMIASSA-N.pdb
REMARK                            x       y       z     vdW  Elec       q    Type
REMARK                         _______ _______ _______ _____ _____    ______ ____
ROOT
ATOM      1  C   LIG    1       -0.802   1.163  -1.427  0.00  0.00    +0.192 C 
ATOM      2  C   LIG    1       -0.031   1.635  -0.252  0.00  0.00    +0.141 C 
ATOM      3  C   LIG    1        1.133   0.984  -0.062  0.00  0.00    +0.050 C 
ATOM      4  C   LIG    1        1.908   1.260   1.114  0.00  0.00    +0.197 C 
ATOM      5  O   LIG    1        1.566   2.174   1.948  0.00  0.00    -0.287 OA
ATOM      6  C   LIG    1        3.129   0.531   1.447  0.00  0.00    +0.072 A 
ATOM      7  C   LIG    1        3.799   0.827   2.614  0.00  0.00    +0.128 A 
ATOM      8  C   LIG    1        4.925   0.121   2.927  0.00  0.00    +0.047 A 
ATOM      9  C   LIG    1        5.375  -0.863   2.091  0.00  0.00    +0.024 A 
ATOM     10  C   LIG    1        4.673  -1.146   0.904  0.00  0.00    +0.049 A 
ATOM     11 CL   LIG    1        5.300  -2.470  -0.060  0.00  0.00    -0.083 Cl
ATOM     12  C   LIG    1        3.537  -0.466   0.537  0.00  0.00    +0.011 A 
ATOM     13  C   LIG    1        2.782  -0.734  -0.684  0.00  0.00    -0.035 C 
ATOM     14  C   LIG    1        3.303  -1.545  -1.600  0.00  0.00    +0.013 C 
ATOM     15  C   LIG    1        1.492  -0.057  -1.000  0.00  0.00    +0.085 C 
ATOM     16  C   LIG    1        0.390  -1.036  -1.256  0.00  0.00    +0.135 C 
ATOM     17  C   LIG    1       -0.970  -0.341  -1.307  0.00  0.00    +0.090 C 
ATOM     18  C   LIG    1       -1.812  -0.755  -0.141  0.00  0.00    +0.132 C 
ATOM     19  C   LIG    1       -2.810   0.236   0.302  0.00  0.00    +0.127 C 
ATOM     20  C   LIG    1       -3.005   1.399  -0.267  0.00  0.00    +0.121 C 
ATOM     21  C   LIG    1       -2.183   1.750  -1.419  0.00  0.00    +0.211 C 
ATOM     22  O   LIG    1       -2.613   2.496  -2.340  0.00  0.00    -0.288 OA
ENDROOT
BRANCH  20  23
ATOM     23  C   LIG    1       -4.015   2.349   0.206  0.00  0.00    +0.248 C 
ATOM     24  O   LIG    1       -4.701   1.998   1.201  0.00  0.00    -0.270 OA
ATOM     25  N   LIG    1       -4.187   3.593  -0.445  0.00  0.00    -0.325 N 
ATOM     26  H   LIG    1       -5.131   4.015  -0.555  0.00  0.00    +0.145 HD
ATOM     27  H   LIG    1       -3.370   4.109  -0.826  0.00  0.00    +0.145 HD
ENDBRANCH  20  23
BRANCH  18  28
ATOM     28  N   LIG    1       -2.451  -2.007  -0.249  0.00  0.00    -0.298 NA
ATOM     29  C   LIG    1       -3.851  -2.062  -0.105  0.00  0.00    +0.105 C 
ATOM     30  C   LIG    1       -1.728  -3.187  -0.350  0.00  0.00    +0.105 C 
ENDBRANCH  18  28
BRANCH   1  31
ATOM     31  O   LIG    1       -0.193   1.512  -2.581  0.00  0.00    -0.373 OA
ATOM     32  H   LIG    1       -0.424   2.454  -2.803  0.00  0.00    +0.211 HD
ENDBRANCH   1  31
BRANCH   2  33
ATOM     33  O   LIG    1       -0.376   2.621   0.615  0.00  0.00    -0.507 OA
ATOM     34  H   LIG    1        0.004   3.551   0.671  0.00  0.00    +0.292 HD
ENDBRANCH   2  33
BRANCH   7  35
ATOM     35  O   LIG    1        3.359   1.816   3.472  0.00  0.00    -0.506 OA
ATOM     36  H   LIG    1        3.867   2.010   4.316  0.00  0.00    +0.292 HD
ENDBRANCH   7  35
BRANCH  16  37
ATOM     37  O   LIG    1        0.595  -1.650  -2.489  0.00  0.00    -0.390 OA
ATOM     38  H   LIG    1       -0.190  -1.563  -3.069  0.00  0.00    +0.210 HD
ENDBRANCH  16  37
BRANCH  19  39
ATOM     39  O   LIG    1       -3.586  -0.112   1.406  0.00  0.00    -0.509 OA
ATOM     40  H   LIG    1       -3.409   0.239   2.339  0.00  0.00    +0.292 HD
ENDBRANCH  19  39
TORSDOF 7
