REMARK  Name = molecules/GGXKWVWZWMLJEH-UHFFFAOYSA-N.pdb
REMARK                            x       y       z     vdW  Elec       q    Type
REMARK                         _______ _______ _______ _____ _____    ______ ____
ROOT
ATOM      1  C   LIG    1        1.264  -1.240   0.412  0.00  0.00    +0.125 C 
ENDROOT
BRANCH   1   2
ATOM      2  N   LIG    1        1.749  -0.264  -0.510  0.00  0.00    -0.315 N 
ATOM      3  C   LIG    1        2.847   0.520  -0.329  0.00  0.00    +0.165 A 
ATOM      4  N   LIG    1        3.679   0.583   0.724  0.00  0.00    -0.195 NA
ATOM      5  C   LIG    1        4.727   1.426   0.733  0.00  0.00    +0.215 A 
ATOM      6  N   LIG    1        4.905   2.210  -0.365  0.00  0.00    -0.221 NA
ATOM      7  C   LIG    1        4.115   2.194  -1.438  0.00  0.00    +0.145 A 
ATOM      8  C   LIG    1        3.038   1.321  -1.440  0.00  0.00    +0.126 A 
ATOM      9  N   LIG    1        2.066   1.031  -2.295  0.00  0.00    -0.233 NA
ATOM     10  C   LIG    1        1.288   0.082  -1.747  0.00  0.00    +0.201 A 
BRANCH   5  11
ATOM     11  N   LIG    1        5.617   1.505   1.840  0.00  0.00    -0.327 N 
ATOM     12  H   LIG    1        5.719   2.403   2.343  0.00  0.00    +0.145 HD
ATOM     13  H   LIG    1        6.170   0.691   2.160  0.00  0.00    +0.145 HD
ENDBRANCH   5  11
ENDBRANCH   1   2
BRANCH   1  14
ATOM     14  C   LIG    1        0.335  -0.802   1.472  0.00  0.00    +0.032 C 
BRANCH  14  15
ATOM     15  C   LIG    1       -0.954  -0.163   1.036  0.00  0.00    +0.066 C 
BRANCH  15  16
ATOM     16  C   LIG    1       -0.905   1.306   0.852  0.00  0.00    +0.239 C 
BRANCH  16  17
ATOM     17  O   LIG    1       -2.044   1.958   0.405  0.00  0.00    -0.464 OA
BRANCH  17  18
ATOM     18  C   LIG    1       -2.606   1.919  -0.848  0.00  0.00    +0.304 C 
ATOM     19  C   LIG    1       -3.866   2.669  -1.168  0.00  0.00    +0.136 C 
ATOM     20  O   LIG    1       -2.041   1.235  -1.739  0.00  0.00    -0.251 OA
ENDBRANCH  17  18
ENDBRANCH  16  17
ENDBRANCH  15  16
BRANCH  15  21
ATOM     21  C   LIG    1       -1.823  -0.962   0.162  0.00  0.00    +0.239 C 
BRANCH  21  22
ATOM     22  O   LIG    1       -2.183  -2.188   0.830  0.00  0.00    -0.464 OA
BRANCH  22  23
ATOM     23  C   LIG    1       -3.007  -3.037   0.108  0.00  0.00    +0.304 C 
ATOM     24  C   LIG    1       -3.451  -4.344   0.694  0.00  0.00    +0.136 C 
ATOM     25  O   LIG    1       -3.421  -2.766  -1.058  0.00  0.00    -0.251 OA
ENDBRANCH  22  23
ENDBRANCH  21  22
ENDBRANCH  15  21
ENDBRANCH  14  15
ENDBRANCH   1  14
TORSDOF 10
