REMARK  Name = molecules/GHBFNMLVSPCDGN-SNVBAGLBSA-N.pdb
REMARK                            x       y       z     vdW  Elec       q    Type
REMARK                         _______ _______ _______ _____ _____    ______ ____
ROOT
ATOM      1  C   LIG    1       -1.310   0.887  -0.023  0.00  0.00    +0.307 C 
ATOM      2  O   LIG    1       -1.319   2.125  -0.237  0.00  0.00    -0.251 OA
ENDROOT
BRANCH   1   3
ATOM      3  O   LIG    1       -2.507   0.238   0.151  0.00  0.00    -0.462 OA
BRANCH   3   4
ATOM      4  C   LIG    1       -3.713   0.974   0.086  0.00  0.00    +0.265 C 
BRANCH   4   5
ATOM      5  C   LIG    1       -4.922   0.104   0.297  0.00  0.00    +0.177 C 
BRANCH   5   6
ATOM      6  O   LIG    1       -6.046   0.949   0.212  0.00  0.00    -0.386 OA
ATOM      7  H   LIG    1       -6.768   0.653   0.825  0.00  0.00    +0.210 HD
ENDBRANCH   5   6
BRANCH   5   8
ATOM      8  C   LIG    1       -4.960  -0.541   1.654  0.00  0.00    +0.190 C 
BRANCH   8   9
ATOM      9  O   LIG    1       -6.154  -1.259   1.740  0.00  0.00    -0.392 OA
ATOM     10  H   LIG    1       -6.580  -1.378   0.865  0.00  0.00    +0.210 HD
ENDBRANCH   8   9
ENDBRANCH   5   8
ENDBRANCH   4   5
ENDBRANCH   3   4
ENDBRANCH   1   3
BRANCH   1  11
ATOM     11  C   LIG    1        0.013   0.205   0.027  0.00  0.00    +0.120 C 
BRANCH  11  12
ATOM     12  C   LIG    1        0.468  -0.041  -1.395  0.00  0.00    +0.011 C 
BRANCH  12  13
ATOM     13  C   LIG    1        1.799  -0.729  -1.442  0.00  0.00    +0.001 C 
BRANCH  13  14
ATOM     14  C   LIG    1        2.894   0.051  -0.782  0.00  0.00    +0.000 C 
BRANCH  14  15
ATOM     15  C   LIG    1        4.193  -0.691  -0.865  0.00  0.00    -0.000 C 
BRANCH  15  16
ATOM     16  C   LIG    1        5.329   0.064  -0.210  0.00  0.00    -0.003 C 
ATOM     17  C   LIG    1        5.099   0.331   1.246  0.00  0.00    +0.004 C 
ENDBRANCH  15  16
ENDBRANCH  14  15
ENDBRANCH  13  14
ENDBRANCH  12  13
ENDBRANCH  11  12
ENDBRANCH   1  11
TORSDOF 12
