REMARK  Name = molecules/GHJWNRRCRIGGIO-UHFFFAOYSA-N.pdb
REMARK                            x       y       z     vdW  Elec       q    Type
REMARK                         _______ _______ _______ _____ _____    ______ ____
ROOT
ATOM      1  C   LIG    1       -0.311   0.416  -0.201  0.00  0.00    +0.147 C 
ENDROOT
BRANCH   1   2
ATOM      2  C   LIG    1       -0.701  -0.936   0.366  0.00  0.00    +0.024 A 
ATOM      3  C   LIG    1       -1.945  -0.985   0.958  0.00  0.00    +0.132 A 
ATOM      4  C   LIG    1       -2.330  -2.162   1.561  0.00  0.00    +0.077 A 
ATOM      5  C   LIG    1       -1.508  -3.283   1.586  0.00  0.00    +0.126 A 
ATOM      6  F   LIG    1       -1.891  -4.444   2.181  0.00  0.00    -0.205 F 
ATOM      7  C   LIG    1       -0.270  -3.211   0.988  0.00  0.00    +0.039 A 
ATOM      8  F   LIG    1       -2.851   0.042   0.984  0.00  0.00    -0.205 F 
ATOM      9  C   LIG    1        0.127  -2.010   0.372  0.00  0.00    +0.012 A 
ENDBRANCH   1   2
BRANCH   1  10
ATOM     10  C   LIG    1       -0.280   1.310   1.046  0.00  0.00    +0.187 C 
BRANCH  10  11
ATOM     11  N   LIG    1        0.717   0.865   2.001  0.00  0.00    -0.249 N 
ATOM     12  N   LIG    1        0.490  -0.008   2.955  0.00  0.00    -0.158 NA
ATOM     13  C   LIG    1        1.610  -0.201   3.657  0.00  0.00    +0.244 A 
ATOM     14  N   LIG    1        2.538   0.586   3.100  0.00  0.00    -0.223 NA
ATOM     15  C   LIG    1        1.994   1.254   2.068  0.00  0.00    +0.219 A 
ENDBRANCH  10  11
ENDBRANCH   1  10
BRANCH   1  16
ATOM     16  C   LIG    1        1.034   0.511  -0.794  0.00  0.00    +0.187 C 
BRANCH  16  17
ATOM     17  N   LIG    1        1.348  -0.125  -2.023  0.00  0.00    -0.249 N 
ATOM     18  N   LIG    1        1.806  -1.303  -2.321  0.00  0.00    -0.158 NA
ATOM     19  C   LIG    1        1.968  -1.473  -3.637  0.00  0.00    +0.244 A 
ATOM     20  N   LIG    1        1.585  -0.323  -4.175  0.00  0.00    -0.223 NA
ATOM     21  C   LIG    1        1.202   0.517  -3.213  0.00  0.00    +0.219 A 
ENDBRANCH  16  17
ENDBRANCH   1  16
BRANCH   1  22
ATOM     22  O   LIG    1       -1.342   0.680  -1.041  0.00  0.00    -0.272 OA
BRANCH  22  23
ATOM     23  P   LIG    1       -1.539   2.175  -1.681  0.00  0.00    +0.473 P 
ATOM     24  O   LIG    1       -1.986   2.124  -3.149  0.00  0.00    -0.227 OA
BRANCH  23  25
ATOM     25  O   LIG    1       -2.865   2.920  -0.882  0.00  0.00    -0.303 OA
ATOM     26  H   LIG    1       -3.447   2.253  -0.462  0.00  0.00    +0.222 HD
ENDBRANCH  23  25
BRANCH  23  27
ATOM     27  O   LIG    1       -0.243   3.233  -1.491  0.00  0.00    -0.303 OA
ATOM     28  H   LIG    1       -0.549   4.163  -1.371  0.00  0.00    +0.222 HD
ENDBRANCH  23  27
ENDBRANCH  22  23
ENDBRANCH   1  22
TORSDOF 9
