REMARK  Name = molecules/GHMLBKRAJCXXBS-UHFFFAOYSA-N.pdb
REMARK                            x       y       z     vdW  Elec       q    Type
REMARK                         _______ _______ _______ _____ _____    ______ ____
ROOT
ATOM      1  C   LIG    1        1.258  -0.280   0.193  0.00  0.00    +0.120 A 
ATOM      2  C   LIG    1        0.114  -1.056   0.353  0.00  0.00    +0.090 A 
ATOM      3  C   LIG    1       -1.149  -0.528   0.241  0.00  0.00    +0.120 A 
ATOM      4  C   LIG    1       -1.284   0.814  -0.038  0.00  0.00    +0.045 A 
ATOM      5  C   LIG    1       -0.171   1.641  -0.208  0.00  0.00    +0.007 A 
ATOM      6  C   LIG    1        1.089   1.065  -0.087  0.00  0.00    +0.045 A 
ENDROOT
BRANCH   1   7
ATOM      7  O   LIG    1        2.514  -0.845   0.312  0.00  0.00    -0.507 OA
ATOM      8  H   LIG    1        2.919  -1.214  -0.553  0.00  0.00    +0.292 HD
ENDBRANCH   1   7
BRANCH   3   9
ATOM      9  O   LIG    1       -2.260  -1.347   0.410  0.00  0.00    -0.507 OA
ATOM     10  H   LIG    1       -2.632  -1.806  -0.417  0.00  0.00    +0.292 HD
ENDBRANCH   3   9
TORSDOF 2
