REMARK  Name = molecules/GHOKWGTUZJEAQD-ZETCQYMHSA-N.pdb
REMARK                            x       y       z     vdW  Elec       q    Type
REMARK                         _______ _______ _______ _____ _____    ______ ____
ROOT
ATOM      1  C   LIG    1        0.184  -0.721  -0.442  0.00  0.00    +0.242 C 
ATOM      2  O   LIG    1        0.174  -1.870   0.111  0.00  0.00    -0.273 OA
ATOM      3  N   LIG    1        1.345   0.070  -0.273  0.00  0.00    -0.313 N 
ATOM      4  H   LIG    1        1.398   1.033  -0.719  0.00  0.00    +0.149 HD
ENDROOT
BRANCH   1   5
ATOM      5  C   LIG    1       -0.940  -0.210  -1.226  0.00  0.00    +0.208 C 
BRANCH   5   6
ATOM      6  C   LIG    1       -2.229  -0.215  -0.456  0.00  0.00    +0.023 C 
ATOM      7  C   LIG    1       -2.583  -1.639  -0.034  0.00  0.00    +0.016 C 
ATOM      8  C   LIG    1       -3.364   0.363  -1.266  0.00  0.00    +0.016 C 
BRANCH   6   9
ATOM      9  C   LIG    1       -2.067   0.657   0.768  0.00  0.00    +0.165 C 
BRANCH   9  10
ATOM     10  O   LIG    1       -3.284   0.618   1.454  0.00  0.00    -0.394 OA
ATOM     11  H   LIG    1       -3.785  -0.205   1.238  0.00  0.00    +0.209 HD
ENDBRANCH   9  10
ENDBRANCH   6   9
ENDBRANCH   5   6
BRANCH   5  12
ATOM     12  O   LIG    1       -0.658   1.072  -1.671  0.00  0.00    -0.382 OA
ATOM     13  H   LIG    1       -0.494   1.692  -0.938  0.00  0.00    +0.210 HD
ENDBRANCH   5  12
ENDBRANCH   1   5
BRANCH   3  14
ATOM     14  C   LIG    1        2.476  -0.421   0.506  0.00  0.00    +0.115 C 
BRANCH  14  15
ATOM     15  C   LIG    1        3.539   0.637   0.498  0.00  0.00    +0.139 C 
BRANCH  15  16
ATOM     16  C   LIG    1        4.719   0.188   1.280  0.00  0.00    +0.306 C 
ATOM     17  O   LIG    1        4.740  -0.929   1.834  0.00  0.00    -0.251 OA
BRANCH  16  18
ATOM     18  O   LIG    1        5.831   1.005   1.414  0.00  0.00    -0.481 OA
ATOM     19  H   LIG    1        6.226   1.470   0.597  0.00  0.00    +0.295 HD
ENDBRANCH  16  18
ENDBRANCH  15  16
ENDBRANCH  14  15
ENDBRANCH   3  14
TORSDOF 9
