REMARK  Name = molecules/GIIGAFADHXYOPM-UHFFFAOYSA-N.pdb
REMARK                            x       y       z     vdW  Elec       q    Type
REMARK                         _______ _______ _______ _____ _____    ______ ____
ROOT
ATOM      1  C   LIG    1       -0.574   0.105  -1.055  0.00  0.00    +0.020 C 
ENDROOT
BRANCH   1   2
ATOM      2  C   LIG    1       -1.579   1.223  -0.919  0.00  0.00    +0.117 C 
BRANCH   2  13
ATOM      3  O   LIG    1       -2.594   0.855   1.911  0.00  0.00    -0.270 OA
ATOM      4  C   LIG    1       -3.287   0.534   0.918  0.00  0.00    +0.254 C 
ATOM      5  C   LIG    1       -4.631  -0.043   0.955  0.00  0.00    +0.049 A 
ATOM      6  C   LIG    1       -5.486  -0.385   1.998  0.00  0.00    +0.014 A 
ATOM      7  C   LIG    1       -6.730  -0.926   1.741  0.00  0.00    +0.001 A 
ATOM      8  C   LIG    1       -7.147  -1.137   0.443  0.00  0.00    +0.001 A 
ATOM      9  C   LIG    1       -6.289  -0.793  -0.579  0.00  0.00    +0.014 A 
ATOM     10  C   LIG    1       -5.035  -0.249  -0.349  0.00  0.00    +0.049 A 
ATOM     11  C   LIG    1       -3.950   0.196  -1.217  0.00  0.00    +0.254 C 
ATOM     12  O   LIG    1       -3.970   0.157  -2.474  0.00  0.00    -0.270 OA
ATOM     13  N   LIG    1       -2.866   0.681  -0.433  0.00  0.00    -0.234 N 
ENDBRANCH   2  13
ENDBRANCH   1   2
BRANCH   1  14
ATOM     14  C   LIG    1        0.718   0.631  -1.561  0.00  0.00    +0.005 C 
BRANCH  14  15
ATOM     15  C   LIG    1        1.270   1.653  -0.610  0.00  0.00    +0.041 C 
BRANCH  15  16
ATOM     16  C   LIG    1        2.588   2.122  -1.186  0.00  0.00    +0.229 C 
BRANCH  16  17
ATOM     17  O   LIG    1        3.497   1.128  -1.343  0.00  0.00    -0.492 OA
BRANCH  17  18
ATOM     18  C   LIG    1        4.139   0.293  -0.506  0.00  0.00    +0.121 A 
ATOM     19  C   LIG    1        4.034   0.259   0.861  0.00  0.00    +0.047 A 
ATOM     20  C   LIG    1        4.742  -0.643   1.660  0.00  0.00    +0.026 A 
ATOM     21  C   LIG    1        5.590  -1.550   1.093  0.00  0.00    +0.025 A 
ATOM     22  C   LIG    1        5.723  -1.546  -0.281  0.00  0.00    +0.026 A 
ATOM     23  C   LIG    1        5.024  -0.657  -1.053  0.00  0.00    +0.047 A 
BRANCH  21  24
ATOM     24  N   LIG    1        6.343  -2.495   1.816  0.00  0.00    -0.358 N 
ATOM     25  H   LIG    1        5.874  -3.279   2.300  0.00  0.00    +0.142 HD
ATOM     26  H   LIG    1        7.368  -2.403   1.860  0.00  0.00    +0.142 HD
ENDBRANCH  21  24
ENDBRANCH  17  18
ENDBRANCH  16  17
ENDBRANCH  15  16
ENDBRANCH  14  15
ENDBRANCH   1  14
TORSDOF 8
