REMARK  Name = molecules/GIIZNNXWQWCKIB-VWLOTQADSA-N.pdb
REMARK                            x       y       z     vdW  Elec       q    Type
REMARK                         _______ _______ _______ _____ _____    ______ ____
ROOT
ATOM      1  N   LIG    1       -3.633  -1.861  -0.725  0.00  0.00    -0.313 NA
ATOM      2  H   LIG    1       -3.059  -2.716  -0.959  0.00  0.00    +0.122 HD
ENDROOT
BRANCH   1   3
ATOM      3  C   LIG    1       -4.819  -1.954  -0.139  0.00  0.00    +0.117 C 
BRANCH   3   4
ATOM      4  C   LIG    1       -5.047  -1.480   1.292  0.00  0.00    +0.158 C 
BRANCH   4   5
ATOM      5  C   LIG    1       -5.650  -0.059   1.051  0.00  0.00    -0.017 A 
ATOM      6  C   LIG    1       -4.975   1.078   1.150  0.00  0.00    +0.010 A 
ATOM      7  C   LIG    1       -5.576   2.253   0.742  0.00  0.00    +0.046 A 
ATOM      8  C   LIG    1       -6.856   2.287   0.243  0.00  0.00    +0.122 A 
ATOM      9  C   LIG    1       -7.523   1.056   0.166  0.00  0.00    +0.020 A 
ATOM     10  C   LIG    1       -6.954  -0.111   0.558  0.00  0.00    +0.015 A 
BRANCH   8  11
ATOM     11  O   LIG    1       -7.550   3.400  -0.184  0.00  0.00    -0.506 OA
ATOM     12  H   LIG    1       -7.189   4.311  -0.134  0.00  0.00    +0.292 HD
ENDBRANCH   8  11
BRANCH   9  13
ATOM     13  C   LIG    1       -8.831   1.087  -0.568  0.00  0.00    +0.194 C 
BRANCH  13  14
ATOM     14  O   LIG    1       -9.726   0.524   0.415  0.00  0.00    -0.390 OA
ATOM     15  H   LIG    1       -9.784   1.310   1.133  0.00  0.00    +0.210 HD
ENDBRANCH  13  14
ENDBRANCH   9  13
ENDBRANCH   4   5
BRANCH   4  16
ATOM     16  O   LIG    1       -6.207  -2.134   1.772  0.00  0.00    -0.386 OA
ATOM     17  H   LIG    1       -6.794  -1.496   2.285  0.00  0.00    +0.210 HD
ENDBRANCH   4  16
ENDBRANCH   3   4
ENDBRANCH   1   3
BRANCH   1  18
ATOM     18  C   LIG    1       -2.768  -0.705  -0.841  0.00  0.00    +0.081 C 
BRANCH  18  19
ATOM     19  C   LIG    1       -1.724  -1.025   0.280  0.00  0.00    +0.015 C 
BRANCH  19  20
ATOM     20  C   LIG    1       -0.294  -1.045  -0.307  0.00  0.00    +0.001 C 
BRANCH  20  21
ATOM     21  C   LIG    1        0.507  -1.929   0.598  0.00  0.00    +0.002 C 
BRANCH  21  22
ATOM     22  C   LIG    1        1.941  -1.966   0.535  0.00  0.00    +0.028 C 
BRANCH  22  23
ATOM     23  C   LIG    1        2.637  -2.293  -0.736  0.00  0.00    +0.160 C 
BRANCH  23  24
ATOM     24  O   LIG    1        4.044  -2.377  -0.389  0.00  0.00    -0.380 OA
BRANCH  24  25
ATOM     25  C   LIG    1        4.492  -1.129  -0.028  0.00  0.00    +0.160 C 
BRANCH  25  26
ATOM     26  C   LIG    1        4.967  -0.284  -1.219  0.00  0.00    +0.028 C 
BRANCH  26  27
ATOM     27  C   LIG    1        4.896   1.176  -0.955  0.00  0.00    +0.007 C 
BRANCH  27  28
ATOM     28  C   LIG    1        5.587   1.751   0.203  0.00  0.00    +0.035 C 
BRANCH  28  29
ATOM     29  C   LIG    1        7.038   1.648   0.186  0.00  0.00    -0.047 A 
ATOM     30  C   LIG    1        7.773   0.577   0.675  0.00  0.00    +0.003 A 
ATOM     31  C   LIG    1        9.136   0.557   0.635  0.00  0.00    +0.000 A 
ATOM     32  C   LIG    1        9.841   1.602   0.096  0.00  0.00    +0.000 A 
ATOM     33  C   LIG    1        9.134   2.706  -0.430  0.00  0.00    +0.000 A 
ATOM     34  C   LIG    1        7.778   2.706  -0.364  0.00  0.00    +0.003 A 
ENDBRANCH  28  29
ENDBRANCH  27  28
ENDBRANCH  26  27
ENDBRANCH  25  26
ENDBRANCH  24  25
ENDBRANCH  23  24
ENDBRANCH  22  23
ENDBRANCH  21  22
ENDBRANCH  20  21
ENDBRANCH  19  20
ENDBRANCH  18  19
ENDBRANCH   1  18
TORSDOF 19
