REMARK  Name = molecules/GIJXKZJWITVLHI-PMOLBWCYSA-N.pdb
REMARK                            x       y       z     vdW  Elec       q    Type
REMARK                         _______ _______ _______ _____ _____    ______ ____
ROOT
ATOM      1  C   LIG    1        1.390  -0.151  -0.440  0.00  0.00    +0.179 C 
ENDROOT
BRANCH   1   5
ATOM      2  C   LIG    1        2.761   2.453  -3.530  0.00  0.00    +0.000 A 
ATOM      3  C   LIG    1        2.250   2.953  -2.360  0.00  0.00    +0.000 A 
ATOM      4  C   LIG    1        1.815   2.096  -1.379  0.00  0.00    +0.006 A 
ATOM      5  C   LIG    1        1.870   0.728  -1.523  0.00  0.00    -0.014 A 
ATOM      6  C   LIG    1        2.387   0.263  -2.707  0.00  0.00    +0.006 A 
ATOM      7  C   LIG    1        2.831   1.092  -3.708  0.00  0.00    +0.000 A 
ENDBRANCH   1   5
BRANCH   1   8
ATOM      8  C   LIG    1        2.439  -0.437   0.563  0.00  0.00    -0.014 A 
ATOM      9  C   LIG    1        2.271  -1.155   1.702  0.00  0.00    +0.006 A 
ATOM     10  C   LIG    1        3.343  -1.343   2.549  0.00  0.00    +0.000 A 
ATOM     11  C   LIG    1        4.589  -0.824   2.281  0.00  0.00    +0.000 A 
ATOM     12  C   LIG    1        4.771  -0.094   1.130  0.00  0.00    +0.000 A 
ATOM     13  C   LIG    1        3.708   0.092   0.289  0.00  0.00    +0.006 A 
ENDBRANCH   1   8
BRANCH   1  14
ATOM     14  O   LIG    1        0.179   0.251   0.090  0.00  0.00    -0.364 OA
BRANCH  14  15
ATOM     15  C   LIG    1       -0.876  -0.601  -0.133  0.00  0.00    +0.122 C 
ATOM     16  C   LIG    1       -1.453  -1.046   1.153  0.00  0.00    +0.050 C 
ATOM     17  C   LIG    1       -2.932  -1.235   1.184  0.00  0.00    +0.059 C 
ATOM     18  C   LIG    1       -3.567   0.010   1.771  0.00  0.00    +0.020 C 
ATOM     19  C   LIG    1       -3.516   0.973   0.622  0.00  0.00    +0.020 C 
ATOM     20  C   LIG    1       -3.268   0.074  -0.596  0.00  0.00    +0.059 C 
ATOM     21  N   LIG    1       -3.533  -1.270  -0.135  0.00  0.00    -0.299 NA
ATOM     22  C   LIG    1       -4.921  -1.581  -0.025  0.00  0.00    +0.105 C 
ATOM     23  C   LIG    1       -1.846   0.128  -1.040  0.00  0.00    +0.050 C 
ENDBRANCH  14  15
ENDBRANCH   1  14
TORSDOF 4
