REMARK  Name = molecules/GIKNHHRFLCDOEU-SSDOTTSWSA-N.pdb
REMARK                            x       y       z     vdW  Elec       q    Type
REMARK                         _______ _______ _______ _____ _____    ______ ____
ROOT
ATOM      1  C   LIG    1        0.397  -0.126   0.356  0.00  0.00    -0.046 A 
ATOM      2  C   LIG    1        1.452   0.766   0.394  0.00  0.00    +0.007 A 
ATOM      3  C   LIG    1        2.650   0.520  -0.242  0.00  0.00    +0.045 A 
ATOM      4  C   LIG    1        2.812  -0.654  -0.944  0.00  0.00    +0.117 A 
ATOM      5  C   LIG    1        1.794  -1.563  -1.007  0.00  0.00    +0.045 A 
ATOM      6  C   LIG    1        0.589  -1.294  -0.355  0.00  0.00    +0.007 A 
ENDROOT
BRANCH   4   7
ATOM      7  O   LIG    1        4.009  -0.912  -1.586  0.00  0.00    -0.507 OA
ATOM      8  H   LIG    1        4.800  -0.304  -1.591  0.00  0.00    +0.292 HD
ENDBRANCH   4   7
BRANCH   1   9
ATOM      9  C   LIG    1       -0.899   0.128   1.038  0.00  0.00    +0.053 C 
BRANCH   9  10
ATOM     10  C   LIG    1       -1.872   0.853   0.126  0.00  0.00    +0.052 C 
ATOM     11  C   LIG    1       -2.219  -0.011  -1.069  0.00  0.00    +0.024 C 
BRANCH  10  12
ATOM     12  N   LIG    1       -3.103   1.060   0.866  0.00  0.00    -0.327 NA
ATOM     13  H   LIG    1       -2.986   1.830   1.578  0.00  0.00    +0.118 HD
ATOM     14  H   LIG    1       -3.280   0.142   1.375  0.00  0.00    +0.118 HD
ENDBRANCH  10  12
ENDBRANCH   9  10
ENDBRANCH   1   9
TORSDOF 4
