REMARK  Name = molecules/GIYAQDDTCWHPPL-UHFFFAOYSA-N.pdb
REMARK                            x       y       z     vdW  Elec       q    Type
REMARK                         _______ _______ _______ _____ _____    ______ ____
ROOT
ATOM      1  C   LIG    1       -2.382  -0.017   0.622  0.00  0.00    +0.079 A 
ATOM      2  C   LIG    1       -2.963  -0.419   1.834  0.00  0.00    +0.033 A 
ATOM      3  C   LIG    1       -4.309  -0.652   1.971  0.00  0.00    +0.039 A 
ATOM      4 BR   LIG    1       -4.995  -1.195   3.687  0.00  0.00    -0.048 Br
ATOM      5  C   LIG    1       -5.155  -0.501   0.914  0.00  0.00    +0.042 A 
ATOM      6  C   LIG    1       -4.633  -0.112  -0.280  0.00  0.00    +0.070 A 
ATOM      7  C   LIG    1       -3.254   0.129  -0.427  0.00  0.00    +0.134 A 
ENDROOT
BRANCH   1   8
ATOM      8  C   LIG    1       -0.968   0.203   0.588  0.00  0.00    +0.248 C 
ATOM      9  O   LIG    1       -0.304   0.017   1.661  0.00  0.00    -0.270 OA
ATOM     10  N   LIG    1       -0.238   0.605  -0.522  0.00  0.00    -0.310 N 
ATOM     11  H   LIG    1       -0.689   0.782  -1.440  0.00  0.00    +0.149 HD
BRANCH  10  12
ATOM     12  C   LIG    1        1.212   0.811  -0.511  0.00  0.00    +0.120 C 
BRANCH  12  13
ATOM     13  C   LIG    1        1.972  -0.415  -0.176  0.00  0.00    +0.103 C 
BRANCH  13  14
ATOM     14  N   LIG    1        3.380  -0.252  -0.196  0.00  0.00    -0.301 NA
BRANCH  14  15
ATOM     15  C   LIG    1        3.995   0.542   0.790  0.00  0.00    +0.081 C 
ATOM     16  C   LIG    1        3.778   2.010   0.756  0.00  0.00    +0.020 C 
ENDBRANCH  14  15
BRANCH  14  17
ATOM     17  C   LIG    1        4.084  -1.487  -0.489  0.00  0.00    +0.081 C 
ATOM     18  C   LIG    1        5.553  -1.255  -0.543  0.00  0.00    +0.020 C 
ENDBRANCH  14  17
ENDBRANCH  13  14
ENDBRANCH  12  13
ENDBRANCH  10  12
ENDBRANCH   1   8
BRANCH   5  19
ATOM     19  N   LIG    1       -6.542  -0.750   1.093  0.00  0.00    -0.357 N 
ATOM     20  H   LIG    1       -7.082  -0.119   1.703  0.00  0.00    +0.142 HD
ATOM     21  H   LIG    1       -7.005  -1.535   0.628  0.00  0.00    +0.142 HD
ENDBRANCH   5  19
BRANCH   7  22
ATOM     22  O   LIG    1       -2.803   0.514  -1.658  0.00  0.00    -0.494 OA
ATOM     23  C   LIG    1       -3.583   0.697  -2.796  0.00  0.00    +0.277 C 
ENDBRANCH   7  22
TORSDOF 8
