REMARK  Name = molecules/GJJFMKBJSRMPLA-DZGCQCFKSA-N.pdb
REMARK                            x       y       z     vdW  Elec       q    Type
REMARK                         _______ _______ _______ _____ _____    ______ ____
ROOT
ATOM      1  C   LIG    1       -0.763   0.737   0.169  0.00  0.00    +0.076 C 
ATOM      2  C   LIG    1       -0.801   2.004   1.049  0.00  0.00    +0.027 C 
ATOM      3  C   LIG    1       -1.776   1.805  -0.049  0.00  0.00    +0.023 C 
ENDROOT
BRANCH   1   4
ATOM      4  C   LIG    1       -1.292  -0.499   0.773  0.00  0.00    -0.032 A 
ATOM      5  C   LIG    1       -1.393  -0.665   2.126  0.00  0.00    +0.004 A 
ATOM      6  C   LIG    1       -1.988  -1.807   2.664  0.00  0.00    +0.000 A 
ATOM      7  C   LIG    1       -2.468  -2.757   1.817  0.00  0.00    +0.000 A 
ATOM      8  C   LIG    1       -2.367  -2.592   0.443  0.00  0.00    +0.000 A 
ATOM      9  C   LIG    1       -1.782  -1.468  -0.067  0.00  0.00    +0.004 A 
ENDBRANCH   1   4
BRANCH   1  10
ATOM     10  C   LIG    1        0.437   0.670  -0.640  0.00  0.00    +0.226 C 
ATOM     11  N   LIG    1        1.431  -0.306  -0.715  0.00  0.00    -0.301 N 
ATOM     12  O   LIG    1        0.682   1.681  -1.457  0.00  0.00    -0.275 OA
BRANCH  11  13
ATOM     13  C   LIG    1        1.576  -1.456   0.115  0.00  0.00    +0.104 C 
ATOM     14  C   LIG    1        2.453  -1.168   1.329  0.00  0.00    +0.024 C 
ENDBRANCH  11  13
BRANCH  11  15
ATOM     15  C   LIG    1        2.490  -0.196  -1.763  0.00  0.00    +0.104 C 
ATOM     16  C   LIG    1        3.672   0.585  -1.259  0.00  0.00    +0.024 C 
ENDBRANCH  11  15
ENDBRANCH   1  10
BRANCH   3  17
ATOM     17  C   LIG    1       -1.710   2.724  -1.233  0.00  0.00    +0.082 C 
BRANCH  17  18
ATOM     18  N   LIG    1       -1.788   1.931  -2.454  0.00  0.00    -0.330 NA
ATOM     19  H   LIG    1       -2.699   1.446  -2.542  0.00  0.00    +0.118 HD
ATOM     20  H   LIG    1       -1.741   2.602  -3.265  0.00  0.00    +0.118 HD
ENDBRANCH  17  18
ENDBRANCH   3  17
TORSDOF 6
