REMARK  Name = molecules/GJNXBNATEDXMAK-PFLSVRRQSA-N.pdb
REMARK                            x       y       z     vdW  Elec       q    Type
REMARK                         _______ _______ _______ _____ _____    ______ ____
ROOT
ATOM      1  C   LIG    1        8.397  -2.946   0.000  0.00  0.00    +0.279 C 
ATOM      2  O   LIG    1        7.824  -2.392   0.000  0.00  0.00    -0.279 OA
ENDROOT
TORSDOF 0
REMARK  Name = molecules/GJNXBNATEDXMAK-PFLSVRRQSA-N.pdb
REMARK                            x       y       z     vdW  Elec       q    Type
REMARK                         _______ _______ _______ _____ _____    ______ ____
ROOT
ATOM      1  C   LIG    1        8.397  -4.446   0.000  0.00  0.00    +0.108 C 
ATOM      2  N   LIG    1        6.897  -4.446   0.000  0.00  0.00    -0.215 NA
ATOM      3  C   LIG    1        6.147  -3.147   0.000  0.00  0.00    +0.108 C 
ENDROOT
TORSDOF 0
REMARK  Name = molecules/GJNXBNATEDXMAK-PFLSVRRQSA-N.pdb
REMARK                            x       y       z     vdW  Elec       q    Type
REMARK                         _______ _______ _______ _____ _____    ______ ____
ROOT
ATOM      1  O   LIG    1        8.745  -1.647   0.000  0.00  0.00    -0.094 OA
ENDROOT
BRANCH   1   2
ATOM      2  N   LIG    1        9.696  -2.196   0.000  0.00  0.00    -0.074 NA
ATOM      3  H   LIG    1        8.806  -3.031   0.000  0.00  0.00    +0.179 HD
ENDBRANCH   1   2
BRANCH   1   4
ATOM      4  O   LIG    1        8.133  -1.471   0.000  0.00  0.00    -0.046 OA
BRANCH   4   5
ATOM      5  O   LIG    1        7.484  -1.491   0.000  0.00  0.00    -0.194 OA
ATOM      6  C   LIG    1        7.446  -2.397   0.000  0.00  0.00    +0.229 C 
ENDBRANCH   4   5
ENDBRANCH   1   4
TORSDOF 3
REMARK  Name = molecules/GJNXBNATEDXMAK-PFLSVRRQSA-N.pdb
REMARK                            x       y       z     vdW  Elec       q    Type
REMARK                         _______ _______ _______ _____ _____    ______ ____
ROOT
ATOM      1  N   LIG    1        6.897  -4.446   0.000  0.00  0.00    +0.000 NA
ENDROOT
TORSDOF 0
REMARK  Name = molecules/GJNXBNATEDXMAK-PFLSVRRQSA-N.pdb
REMARK                            x       y       z     vdW  Elec       q    Type
REMARK                         _______ _______ _______ _____ _____    ______ ____
ROOT
ATOM      1  C   LIG    1        8.397  -5.946   0.000  0.00  0.00    +0.000 C 
ENDROOT
TORSDOF 0
REMARK  Name = molecules/GJNXBNATEDXMAK-PFLSVRRQSA-N.pdb
REMARK                            x       y       z     vdW  Elec       q    Type
REMARK                         _______ _______ _______ _____ _____    ______ ____
ROOT
ATOM      1  C   LIG    1        9.853  -0.704   0.000  0.00  0.00    -0.004 C 
ATOM      2  C   LIG    1       11.320  -0.393   0.000  0.00  0.00    +0.004 C 
ATOM      3  C   LIG    1       12.070  -1.692   0.000  0.00  0.00    +0.000 C 
ENDROOT
TORSDOF 0
REMARK  Name = molecules/GJNXBNATEDXMAK-PFLSVRRQSA-N.pdb
REMARK                            x       y       z     vdW  Elec       q    Type
REMARK                         _______ _______ _______ _____ _____    ______ ____
ROOT
ATOM      1  C   LIG    1       11.066  -2.806   0.000  0.00  0.00    +0.000 C 
ENDROOT
TORSDOF 0
REMARK  Name = molecules/GJNXBNATEDXMAK-PFLSVRRQSA-N.pdb
REMARK                            x       y       z     vdW  Elec       q    Type
REMARK                         _______ _______ _______ _____ _____    ______ ____
ROOT
ATOM      1  C   LIG    1        6.147  -5.745   0.000  0.00  0.00    +0.000 C 
ENDROOT
TORSDOF 0
REMARK  Name = molecules/GJNXBNATEDXMAK-PFLSVRRQSA-N.pdb
REMARK                            x       y       z     vdW  Elec       q    Type
REMARK                         _______ _______ _______ _____ _____    ______ ____
ROOT
ATOM      1  C   LIG    1        8.397  -7.446   0.000  0.00  0.00    -0.000 C 
ENDROOT
TORSDOF 0
REMARK  Name = molecules/GJNXBNATEDXMAK-PFLSVRRQSA-N.pdb
REMARK                            x       y       z     vdW  Elec       q    Type
REMARK                         _______ _______ _______ _____ _____    ______ ____
ROOT
ATOM      1  C   LIG    1        8.353  -0.704   0.000  0.00  0.00    +0.000 C 
ENDROOT
TORSDOF 0
REMARK  Name = molecules/GJNXBNATEDXMAK-PFLSVRRQSA-N.pdb
REMARK                            x       y       z     vdW  Elec       q    Type
REMARK                         _______ _______ _______ _____ _____    ______ ____
ROOT
ATOM      1  C   LIG    1        6.897  -7.044   0.000  0.00  0.00    +0.000 C 
ENDROOT
TORSDOF 0
REMARK  Name = molecules/GJNXBNATEDXMAK-PFLSVRRQSA-N.pdb
REMARK                            x       y       z     vdW  Elec       q    Type
REMARK                         _______ _______ _______ _____ _____    ______ ____
ROOT
ATOM      1  O   HOH    1        4.692  -5.382   0.000  0.00  0.00    +0.000 OA
ENDROOT
TORSDOF 0
REMARK  Name = molecules/GJNXBNATEDXMAK-PFLSVRRQSA-N.pdb
REMARK                            x       y       z     vdW  Elec       q    Type
REMARK                         _______ _______ _______ _____ _____    ______ ____
ROOT
ATOM      1  C   LIG    1        8.397  -8.946   0.000  0.00  0.00    -0.014 C 
ATOM      2  C   LIG    1        8.397  -9.642   0.000  0.00  0.00    -0.077 C 
ATOM      3  C   LIG    1        8.397 -10.446   0.000  0.00  0.00    +0.091 C 
ENDROOT
TORSDOF 0
REMARK  Name = molecules/GJNXBNATEDXMAK-PFLSVRRQSA-N.pdb
REMARK                            x       y       z     vdW  Elec       q    Type
REMARK                         _______ _______ _______ _____ _____    ______ ____
ROOT
ATOM      1  N   LIG    1        7.603   0.595   0.000  0.00  0.00    -0.133 NA
ATOM      2  C   LIG    1        6.103   0.595   0.000  0.00  0.00    +0.139 C 
ATOM      3  C   LIG    1        6.103   2.095   0.000  0.00  0.00    +0.034 C 
ENDROOT
BRANCH   2   4
ATOM      4  C   LIG    1        6.103  -0.905   0.000  0.00  0.00    +0.074 C 
ATOM      5  N   LIG    1        4.804  -1.655   0.000  0.00  0.00    -0.301 NA
ATOM      6  H   LIG    1        3.732  -1.658   0.000  0.00  0.00    +0.186 HD
ENDBRANCH   2   4
TORSDOF 1
REMARK  Name = molecules/GJNXBNATEDXMAK-PFLSVRRQSA-N.pdb
REMARK                            x       y       z     vdW  Elec       q    Type
REMARK                         _______ _______ _______ _____ _____    ______ ____
ROOT
ATOM      1  N   LIG    1        5.598  -7.794   0.000  0.00  0.00    +0.000 NA
ENDROOT
TORSDOF 0
REMARK  Name = molecules/GJNXBNATEDXMAK-PFLSVRRQSA-N.pdb
REMARK                            x       y       z     vdW  Elec       q    Type
REMARK                         _______ _______ _______ _____ _____    ______ ____
ROOT
ATOM      1  C   LIG    1        7.647  -8.343   0.000  0.00  0.00    +0.000 C 
ENDROOT
TORSDOF 0
REMARK  Name = molecules/GJNXBNATEDXMAK-PFLSVRRQSA-N.pdb
REMARK                            x       y       z     vdW  Elec       q    Type
REMARK                         _______ _______ _______ _____ _____    ______ ____
ROOT
ATOM      1  C   LIG    1        4.299  -7.044   0.000  0.00  0.00    +0.000 C 
ENDROOT
TORSDOF 0
REMARK  Name = molecules/GJNXBNATEDXMAK-PFLSVRRQSA-N.pdb
REMARK                            x       y       z     vdW  Elec       q    Type
REMARK                         _______ _______ _______ _____ _____    ______ ____
ROOT
ATOM      1  C   LIG    1        8.397  -9.642   0.000  0.00  0.00    +0.000 C 
ENDROOT
TORSDOF 0
REMARK  Name = molecules/GJNXBNATEDXMAK-PFLSVRRQSA-N.pdb
REMARK                            x       y       z     vdW  Elec       q    Type
REMARK                         _______ _______ _______ _____ _____    ______ ____
ROOT
ATOM      1  N   LIG    1        8.397 -11.946   0.000  0.00  0.00    -0.227 NA
ATOM      2  C   LIG    1        7.647 -10.941   0.000  0.00  0.00    +0.114 C 
ATOM      3  C   LIG    1        9.147 -10.941   0.000  0.00  0.00    +0.114 C 
ENDROOT
TORSDOF 0
REMARK  Name = molecules/GJNXBNATEDXMAK-PFLSVRRQSA-N.pdb
REMARK                            x       y       z     vdW  Elec       q    Type
REMARK                         _______ _______ _______ _____ _____    ______ ____
ROOT
ATOM      1  C   LIG    1        3.000  -7.794   0.000  0.00  0.00    +0.000 C 
ENDROOT
TORSDOF 0
REMARK  Name = molecules/GJNXBNATEDXMAK-PFLSVRRQSA-N.pdb
REMARK                            x       y       z     vdW  Elec       q    Type
REMARK                         _______ _______ _______ _____ _____    ______ ____
ROOT
ATOM      1  O   HOH    1        4.299  -5.544   0.000  0.00  0.00    +0.000 OA
ENDROOT
TORSDOF 0
REMARK  Name = molecules/GJNXBNATEDXMAK-PFLSVRRQSA-N.pdb
REMARK                            x       y       z     vdW  Elec       q    Type
REMARK                         _______ _______ _______ _____ _____    ______ ____
ROOT
ATOM      1  C   LIG    1        9.696  -8.892   0.000  0.00  0.00    +0.000 C 
ATOM      2  C   LIG    1        9.897  -9.642   0.000  0.00  0.00    +0.000 C 
ENDROOT
TORSDOF 0
REMARK  Name = molecules/GJNXBNATEDXMAK-PFLSVRRQSA-N.pdb
REMARK                            x       y       z     vdW  Elec       q    Type
REMARK                         _______ _______ _______ _____ _____    ______ ____
ROOT
ATOM      1  N   LIG    1        5.799 -11.946   0.000  0.00  0.00    -0.342 N 
ATOM      2  H   LIG    1        6.147 -10.941   0.000  0.00  0.00    +0.146 HD
ENDROOT
BRANCH   1   3
ATOM      3  C   LIG    1        7.098 -12.696   0.000  0.00  0.00    +0.057 C 
ATOM      4  C   LIG    1        8.397 -12.240   0.000  0.00  0.00    +0.017 C 
ENDBRANCH   1   3
BRANCH   1   5
ATOM      5  C   LIG    1        4.500 -12.696   0.000  0.00  0.00    +0.098 C 
ATOM      6  C   LIG    1        3.201 -13.446   0.000  0.00  0.00    +0.024 C 
ENDBRANCH   1   5
TORSDOF 2
REMARK  Name = molecules/GJNXBNATEDXMAK-PFLSVRRQSA-N.pdb
REMARK                            x       y       z     vdW  Elec       q    Type
REMARK                         _______ _______ _______ _____ _____    ______ ____
ROOT
ATOM      1  N   LIG    1        2.250  -6.495   0.000  0.00  0.00    +0.000 NA
ENDROOT
TORSDOF 0
REMARK  Name = molecules/GJNXBNATEDXMAK-PFLSVRRQSA-N.pdb
REMARK                            x       y       z     vdW  Elec       q    Type
REMARK                         _______ _______ _______ _____ _____    ______ ____
ROOT
ATOM      1  C   LIG    1        1.701  -8.544   0.000  0.00  0.00    +0.000 C 
ENDROOT
TORSDOF 0
REMARK  Name = molecules/GJNXBNATEDXMAK-PFLSVRRQSA-N.pdb
REMARK                            x       y       z     vdW  Elec       q    Type
REMARK                         _______ _______ _______ _____ _____    ______ ____
ROOT
ATOM      1  N   LIG    1        7.098 -14.196   0.000  0.00  0.00    -0.257 NA
ATOM      2  H   LIG    1        7.984 -13.682   0.000  0.00  0.00    +0.141 HD
ENDROOT
BRANCH   1   3
ATOM      3  C   LIG    1        5.799 -14.946   0.000  0.00  0.00    +0.095 C 
ATOM      4  C   LIG    1        4.500 -15.696   0.000  0.00  0.00    +0.021 C 
ENDBRANCH   1   3
TORSDOF 1
REMARK  Name = molecules/GJNXBNATEDXMAK-PFLSVRRQSA-N.pdb
REMARK                            x       y       z     vdW  Elec       q    Type
REMARK                         _______ _______ _______ _____ _____    ______ ____
ROOT
ATOM      1  C   LIG    1        3.000  -5.196   0.000  0.00  0.00    +0.000 C 
ENDROOT
TORSDOF 0
REMARK  Name = molecules/GJNXBNATEDXMAK-PFLSVRRQSA-N.pdb
REMARK                            x       y       z     vdW  Elec       q    Type
REMARK                         _______ _______ _______ _____ _____    ______ ____
ROOT
ATOM      1  C   LIG    1        0.402  -9.294   0.000  0.00  0.00    +0.000 C 
ENDROOT
TORSDOF 0
REMARK  Name = molecules/GJNXBNATEDXMAK-PFLSVRRQSA-N.pdb
REMARK                            x       y       z     vdW  Elec       q    Type
REMARK                         _______ _______ _______ _____ _____    ______ ____
ROOT
ATOM      1  C   LIG    1        2.250  -3.897   0.000  0.00  0.00    +0.000 C 
ENDROOT
TORSDOF 0
REMARK  Name = molecules/GJNXBNATEDXMAK-PFLSVRRQSA-N.pdb
REMARK                            x       y       z     vdW  Elec       q    Type
REMARK                         _______ _______ _______ _____ _____    ______ ____
ROOT
ATOM      1  O   LIG    1        4.324  -4.492   0.000  0.00  0.00    -0.225 OA
ATOM      2  C   LIG    1        4.848  -3.897   0.000  0.00  0.00    +0.225 C 
ENDROOT
TORSDOF 0
REMARK  Name = molecules/GJNXBNATEDXMAK-PFLSVRRQSA-N.pdb
REMARK                            x       y       z     vdW  Elec       q    Type
REMARK                         _______ _______ _______ _____ _____    ______ ____
ROOT
ATOM      1  C   LIG    1       -0.897 -10.044   0.000  0.00  0.00    +0.020 C 
ATOM      2  C   LIG    1       -2.196 -10.794   0.000  0.00  0.00    +0.088 C 
ATOM      3  C   LIG    1       -0.897 -11.544   0.000  0.00  0.00    +0.025 C 
ATOM      4  N   LIG    1       -3.495 -11.544   0.000  0.00  0.00    -0.133 NA
ENDROOT
TORSDOF 0
REMARK  Name = molecules/GJNXBNATEDXMAK-PFLSVRRQSA-N.pdb
REMARK                            x       y       z     vdW  Elec       q    Type
REMARK                         _______ _______ _______ _____ _____    ______ ____
ROOT
ATOM      1  C   LIG    1        1.500  -2.598   0.000  0.00  0.00    +0.000 C 
ENDROOT
TORSDOF 0
REMARK  Name = molecules/GJNXBNATEDXMAK-PFLSVRRQSA-N.pdb
REMARK                            x       y       z     vdW  Elec       q    Type
REMARK                         _______ _______ _______ _____ _____    ______ ____
ROOT
ATOM      1  N   LIG    1        3.549  -3.147   0.000  0.00  0.00    -0.131 NA
ATOM      2  C   LIG    1        2.250  -3.897   0.000  0.00  0.00    +0.088 C 
ATOM      3  C   LIG    1        1.500  -2.598   0.000  0.00  0.00    +0.008 C 
ATOM      4  C   LIG    1        0.750  -1.299   0.000  0.00  0.00    +0.023 C 
ENDROOT
BRANCH   2   5
ATOM      5  C   LIG    1        3.000  -5.196   0.000  0.00  0.00    +0.225 C 
BRANCH   5   6
ATOM      6  O   LIG    1        4.455  -4.833   0.000  0.00  0.00    -0.214 OA
BRANCH   6   7
ATOM      7  O   LIG    1        4.848  -5.397   0.000  0.00  0.00    -0.225 OA
ATOM      8  C   LIG    1        6.147  -5.745   0.000  0.00  0.00    +0.225 C 
ENDBRANCH   6   7
ENDBRANCH   5   6
ENDBRANCH   2   5
TORSDOF 3
REMARK  Name = molecules/GJNXBNATEDXMAK-PFLSVRRQSA-N.pdb
REMARK                            x       y       z     vdW  Elec       q    Type
REMARK                         _______ _______ _______ _____ _____    ______ ____
ROOT
ATOM      1  C   LIG    1       -2.196 -10.794   0.000  0.00  0.00    +0.000 C 
ENDROOT
TORSDOF 0
REMARK  Name = molecules/GJNXBNATEDXMAK-PFLSVRRQSA-N.pdb
REMARK                            x       y       z     vdW  Elec       q    Type
REMARK                         _______ _______ _______ _____ _____    ______ ____
ROOT
ATOM      1  C   LIG    1        0.750  -1.299   0.000  0.00  0.00    +0.000 C 
ENDROOT
TORSDOF 0
REMARK  Name = molecules/GJNXBNATEDXMAK-PFLSVRRQSA-N.pdb
REMARK                            x       y       z     vdW  Elec       q    Type
REMARK                         _______ _______ _______ _____ _____    ______ ____
ROOT
ATOM      1  C   LIG    1        1.500   0.000   0.000  0.00  0.00    +0.000 C 
ENDROOT
TORSDOF 0
REMARK  Name = molecules/GJNXBNATEDXMAK-PFLSVRRQSA-N.pdb
REMARK                            x       y       z     vdW  Elec       q    Type
REMARK                         _______ _______ _______ _____ _____    ______ ____
ROOT
ATOM      1  C   LIG    1       -0.750  -1.299   0.000  0.00  0.00    +0.000 C 
ENDROOT
TORSDOF 0
REMARK  Name = molecules/GJNXBNATEDXMAK-PFLSVRRQSA-N.pdb
REMARK                            x       y       z     vdW  Elec       q    Type
REMARK                         _______ _______ _______ _____ _____    ______ ____
ROOT
ATOM      1  C   LIG    1       -3.495 -13.044   0.000  0.00  0.00    +0.203 C 
ATOM      2  N   LIG    1       -4.794 -13.794   0.000  0.00  0.00    -0.258 NA
ATOM      3 CL   LIG    1       -3.275 -11.836   0.000  0.00  0.00    -0.044 Cl
ENDROOT
BRANCH   2   4
ATOM      4  C   LIG    1       -4.794 -15.294   0.000  0.00  0.00    +0.141 C 
ATOM      5  C   LIG    1       -4.794 -16.794   0.000  0.00  0.00    +0.029 C 
ENDBRANCH   2   4
BRANCH   1   6
ATOM      6  N   LIG    1       -2.196 -13.794   0.000  0.00  0.00    -0.223 NA
BRANCH   6   7
ATOM      7  C   LIG    1       -2.196 -15.294   0.000  0.00  0.00    +0.127 C 
ATOM      8  C   LIG    1       -2.196 -16.794   0.000  0.00  0.00    +0.026 C 
ENDBRANCH   6   7
ENDBRANCH   1   6
TORSDOF 3
REMARK  Name = molecules/GJNXBNATEDXMAK-PFLSVRRQSA-N.pdb
REMARK                            x       y       z     vdW  Elec       q    Type
REMARK                         _______ _______ _______ _____ _____    ______ ____
ROOT
ATOM      1  C   LIG    1        0.750   1.299   0.000  0.00  0.00    -0.031 C 
ATOM      2  C   LIG    1        1.500   2.598   0.000  0.00  0.00    -0.035 C 
ATOM      3  C   LIG    1        0.750   3.897   0.000  0.00  0.00    +0.036 C 
ATOM      4  C   LIG    1        1.500   0.000   0.000  0.00  0.00    +0.030 C 
ENDROOT
TORSDOF 0
REMARK  Name = molecules/GJNXBNATEDXMAK-PFLSVRRQSA-N.pdb
REMARK                            x       y       z     vdW  Elec       q    Type
REMARK                         _______ _______ _______ _____ _____    ______ ____
ROOT
ATOM      1  C   LIG    1       -1.500   0.000   0.000  0.00  0.00    +0.035 C 
ATOM      2  C   LIG    1       -0.750   1.299   0.000  0.00  0.00    +0.142 C 
ENDROOT
BRANCH   2   3
ATOM      3  O   LIG    1       -1.500   2.598   0.000  0.00  0.00    -0.351 OA
ATOM      4  C   LIG    1       -0.750   3.897   0.000  0.00  0.00    +0.174 C 
ENDBRANCH   2   3
TORSDOF 1
REMARK  Name = molecules/GJNXBNATEDXMAK-PFLSVRRQSA-N.pdb
REMARK                            x       y       z     vdW  Elec       q    Type
REMARK                         _______ _______ _______ _____ _____    ______ ____
ROOT
ATOM      1  C   LIG    1        6.897  -7.044   0.000  0.00  0.00    +0.000 C 
ENDROOT
TORSDOF 0
REMARK  Name = molecules/GJNXBNATEDXMAK-PFLSVRRQSA-N.pdb
REMARK                            x       y       z     vdW  Elec       q    Type
REMARK                         _______ _______ _______ _____ _____    ______ ____
ROOT
ATOM      1  O   LIG    1        4.823  -5.041   0.000  0.00  0.00    +0.000 OA
ATOM      2  O   LIG    1        4.299  -5.544   0.000  0.00  0.00    +0.000 OA
ENDROOT
TORSDOF 0
REMARK  Name = molecules/GJNXBNATEDXMAK-PFLSVRRQSA-N.pdb
REMARK                            x       y       z     vdW  Elec       q    Type
REMARK                         _______ _______ _______ _____ _____    ______ ____
ROOT
ATOM      1  N   LIG    1        5.598  -7.794   0.000  0.00  0.00    -0.130 NA
ATOM      2  C   LIG    1        4.299  -7.044   0.000  0.00  0.00    +0.130 C 
ENDROOT
TORSDOF 0
REMARK  Name = molecules/GJNXBNATEDXMAK-PFLSVRRQSA-N.pdb
REMARK                            x       y       z     vdW  Elec       q    Type
REMARK                         _______ _______ _______ _____ _____    ______ ____
ROOT
ATOM      1  C   LIG    1        7.647  -8.343   0.000  0.00  0.00    +0.000 C 
ENDROOT
TORSDOF 0
REMARK  Name = molecules/GJNXBNATEDXMAK-PFLSVRRQSA-N.pdb
REMARK                            x       y       z     vdW  Elec       q    Type
REMARK                         _______ _______ _______ _____ _____    ______ ____
ROOT
ATOM      1  C   LIG    1        3.000  -7.794   0.000  0.00  0.00    +0.000 C 
ENDROOT
TORSDOF 0
REMARK  Name = molecules/GJNXBNATEDXMAK-PFLSVRRQSA-N.pdb
REMARK                            x       y       z     vdW  Elec       q    Type
REMARK                         _______ _______ _______ _____ _____    ______ ____
ROOT
ATOM      1  C   LIG    1        1.701  -8.544   0.000  0.00  0.00    +0.000 C 
ENDROOT
TORSDOF 0
REMARK  Name = molecules/GJNXBNATEDXMAK-PFLSVRRQSA-N.pdb
REMARK                            x       y       z     vdW  Elec       q    Type
REMARK                         _______ _______ _______ _____ _____    ______ ____
ROOT
ATOM      1  N   LIG    1        2.250  -6.495   0.000  0.00  0.00    -0.086 NA
ATOM      2  C   LIG    1        0.951  -6.147   0.000  0.00  0.00    +0.143 C 
ENDROOT
BRANCH   1   3
ATOM      3  O   LIG    1        1.746  -7.419   0.000  0.00  0.00    -0.295 OA
ATOM      4  H   LIG    1        0.798  -7.346   0.000  0.00  0.00    +0.238 HD
ENDBRANCH   1   3
TORSDOF 1
REMARK  Name = molecules/GJNXBNATEDXMAK-PFLSVRRQSA-N.pdb
REMARK                            x       y       z     vdW  Elec       q    Type
REMARK                         _______ _______ _______ _____ _____    ______ ____
ROOT
ATOM      1  N   LIG    1       10.647 -10.941   0.000  0.00  0.00    -0.163 NA
ATOM      2  H   LIG    1       10.189 -12.020   0.000  0.00  0.00    +0.163 HD
ENDROOT
TORSDOF 0
REMARK  Name = molecules/GJNXBNATEDXMAK-PFLSVRRQSA-N.pdb
REMARK                            x       y       z     vdW  Elec       q    Type
REMARK                         _______ _______ _______ _____ _____    ______ ____
ROOT
ATOM      1  C   LIG    1        0.402  -9.294   0.000  0.00  0.00    +0.000 C 
ENDROOT
TORSDOF 0
REMARK  Name = molecules/GJNXBNATEDXMAK-PFLSVRRQSA-N.pdb
REMARK                            x       y       z     vdW  Elec       q    Type
REMARK                         _______ _______ _______ _____ _____    ______ ____
ROOT
ATOM      1  C   LIG    1        9.897 -12.240   0.000  0.00  0.00    -0.000 C 
ENDROOT
TORSDOF 0
REMARK  Name = molecules/GJNXBNATEDXMAK-PFLSVRRQSA-N.pdb
REMARK                            x       y       z     vdW  Elec       q    Type
REMARK                         _______ _______ _______ _____ _____    ______ ____
ROOT
ATOM      1  C   LIG    1       -0.897  -8.544   0.000  0.00  0.00    -0.000 C 
ENDROOT
TORSDOF 0
REMARK  Name = molecules/GJNXBNATEDXMAK-PFLSVRRQSA-N.pdb
REMARK                            x       y       z     vdW  Elec       q    Type
REMARK                         _______ _______ _______ _____ _____    ______ ____
ROOT
ATOM      1  C   LIG    1        0.402 -10.794   0.000  0.00  0.00    -0.000 C 
ENDROOT
TORSDOF 0
REMARK  Name = molecules/GJNXBNATEDXMAK-PFLSVRRQSA-N.pdb
REMARK                            x       y       z     vdW  Elec       q    Type
REMARK                         _______ _______ _______ _____ _____    ______ ____
ROOT
ATOM      1  C   LIG    1       -2.196  -9.294   0.000  0.00  0.00    -0.000 C 
ENDROOT
TORSDOF 0
REMARK  Name = molecules/GJNXBNATEDXMAK-PFLSVRRQSA-N.pdb
REMARK                            x       y       z     vdW  Elec       q    Type
REMARK                         _______ _______ _______ _____ _____    ______ ____
ROOT
ATOM      1  N   LIG    1        0.951  -4.647   0.000  0.00  0.00    +0.000 NA
ENDROOT
TORSDOF 0
REMARK  Name = molecules/GJNXBNATEDXMAK-PFLSVRRQSA-N.pdb
REMARK                            x       y       z     vdW  Elec       q    Type
REMARK                         _______ _______ _______ _____ _____    ______ ____
ROOT
ATOM      1  C   LIG    1       -0.750  -1.299   0.000  0.00  0.00    +0.026 C 
ATOM      2  C   LIG    1       -1.500   0.000   0.000  0.00  0.00    -0.022 C 
ATOM      3  C   LIG    1       -0.750   1.299   0.000  0.00  0.00    -0.060 C 
ATOM      4  C   LIG    1       -1.500   2.598   0.000  0.00  0.00    +0.031 C 
ATOM      5  C   LIG    1        0.750   1.299   0.000  0.00  0.00    +0.025 C 
ENDROOT
TORSDOF 0
REMARK  Name = molecules/GJNXBNATEDXMAK-PFLSVRRQSA-N.pdb
REMARK                            x       y       z     vdW  Elec       q    Type
REMARK                         _______ _______ _______ _____ _____    ______ ____
ROOT
ATOM      1  C   LIG    1       -0.348  -6.897   0.000  0.00  0.00    -0.000 C 
ENDROOT
TORSDOF 0
REMARK  Name = molecules/GJNXBNATEDXMAK-PFLSVRRQSA-N.pdb
REMARK                            x       y       z     vdW  Elec       q    Type
REMARK                         _______ _______ _______ _____ _____    ______ ____
ROOT
ATOM      1  H   UNK    1        9.886  -4.629   0.000  0.00  0.00    +0.000 HD
ENDROOT
TORSDOF 0
REMARK  Name = molecules/GJNXBNATEDXMAK-PFLSVRRQSA-N.pdb
REMARK                            x       y       z     vdW  Elec       q    Type
REMARK                         _______ _______ _______ _____ _____    ______ ____
ROOT
ATOM      1  H   UNK    1        9.897  -5.946   0.000  0.00  0.00    +0.000 HD
ENDROOT
TORSDOF 0
REMARK  Name = molecules/GJNXBNATEDXMAK-PFLSVRRQSA-N.pdb
REMARK                            x       y       z     vdW  Elec       q    Type
REMARK                         _______ _______ _______ _____ _____    ______ ____
ROOT
ATOM      1  H   UNK    1       12.280  -3.688   0.000  0.00  0.00    +0.000 HD
ENDROOT
TORSDOF 0
REMARK  Name = molecules/GJNXBNATEDXMAK-PFLSVRRQSA-N.pdb
REMARK                            x       y       z     vdW  Elec       q    Type
REMARK                         _______ _______ _______ _____ _____    ______ ____
ROOT
ATOM      1  H   UNK    1       10.480  -4.187   0.000  0.00  0.00    +0.000 HD
ENDROOT
TORSDOF 0
REMARK  Name = molecules/GJNXBNATEDXMAK-PFLSVRRQSA-N.pdb
REMARK                            x       y       z     vdW  Elec       q    Type
REMARK                         _______ _______ _______ _____ _____    ______ ____
ROOT
ATOM      1  H   UNK    1        9.897  -7.446   0.000  0.00  0.00    +0.000 HD
ENDROOT
TORSDOF 0
REMARK  Name = molecules/GJNXBNATEDXMAK-PFLSVRRQSA-N.pdb
REMARK                            x       y       z     vdW  Elec       q    Type
REMARK                         _______ _______ _______ _____ _____    ______ ____
ROOT
ATOM      1  H   UNK    1        8.506   1.793   0.000  0.00  0.00    +0.000 HD
ENDROOT
TORSDOF 0
REMARK  Name = molecules/GJNXBNATEDXMAK-PFLSVRRQSA-N.pdb
REMARK                            x       y       z     vdW  Elec       q    Type
REMARK                         _______ _______ _______ _____ _____    ______ ____
ROOT
ATOM      1  H   UNK    1        5.060  -9.195   0.000  0.00  0.00    +0.000 HD
ENDROOT
TORSDOF 0
REMARK  Name = molecules/GJNXBNATEDXMAK-PFLSVRRQSA-N.pdb
REMARK                            x       y       z     vdW  Elec       q    Type
REMARK                         _______ _______ _______ _____ _____    ______ ____
ROOT
ATOM      1  H   UNK    1        6.568  -9.385   0.000  0.00  0.00    +0.000 HD
ENDROOT
TORSDOF 0
REMARK  Name = molecules/GJNXBNATEDXMAK-PFLSVRRQSA-N.pdb
REMARK                            x       y       z     vdW  Elec       q    Type
REMARK                         _______ _______ _______ _____ _____    ______ ____
ROOT
ATOM      1  H   UNK    1        7.199 -10.545   0.000  0.00  0.00    +0.000 HD
ENDROOT
TORSDOF 0
REMARK  Name = molecules/GJNXBNATEDXMAK-PFLSVRRQSA-N.pdb
REMARK                            x       y       z     vdW  Elec       q    Type
REMARK                         _______ _______ _______ _____ _____    ______ ____
ROOT
ATOM      1  H   UNK    1        3.586  -9.175   0.000  0.00  0.00    +0.000 HD
ENDROOT
TORSDOF 0
REMARK  Name = molecules/GJNXBNATEDXMAK-PFLSVRRQSA-N.pdb
REMARK                            x       y       z     vdW  Elec       q    Type
REMARK                         _______ _______ _______ _____ _____    ______ ____
ROOT
ATOM      1  H   UNK    1       10.894  -7.990   0.000  0.00  0.00    +0.000 HD
ENDROOT
TORSDOF 0
REMARK  Name = molecules/GJNXBNATEDXMAK-PFLSVRRQSA-N.pdb
REMARK                            x       y       z     vdW  Elec       q    Type
REMARK                         _______ _______ _______ _____ _____    ______ ____
ROOT
ATOM      1  H   UNK    1        8.946  -7.593   0.000  0.00  0.00    +0.000 HD
ENDROOT
TORSDOF 0
REMARK  Name = molecules/GJNXBNATEDXMAK-PFLSVRRQSA-N.pdb
REMARK                            x       y       z     vdW  Elec       q    Type
REMARK                         _______ _______ _______ _____ _____    ______ ____
ROOT
ATOM      1  H   UNK    1        3.606  -0.753   0.000  0.00  0.00    +0.000 HD
ENDROOT
TORSDOF 0
REMARK  Name = molecules/GJNXBNATEDXMAK-PFLSVRRQSA-N.pdb
REMARK                            x       y       z     vdW  Elec       q    Type
REMARK                         _______ _______ _______ _____ _____    ______ ____
ROOT
ATOM      1  H   UNK    1        0.761  -6.312   0.000  0.00  0.00    +0.000 HD
ENDROOT
TORSDOF 0
REMARK  Name = molecules/GJNXBNATEDXMAK-PFLSVRRQSA-N.pdb
REMARK                            x       y       z     vdW  Elec       q    Type
REMARK                         _______ _______ _______ _____ _____    ______ ____
ROOT
ATOM      1  H   UNK    1        8.397 -14.946   0.000  0.00  0.00    +0.000 HD
ENDROOT
TORSDOF 0
REMARK  Name = molecules/GJNXBNATEDXMAK-PFLSVRRQSA-N.pdb
REMARK                            x       y       z     vdW  Elec       q    Type
REMARK                         _______ _______ _______ _____ _____    ______ ____
ROOT
ATOM      1  H   UNK    1        5.616 -10.457   0.000  0.00  0.00    +0.000 HD
ENDROOT
TORSDOF 0
REMARK  Name = molecules/GJNXBNATEDXMAK-PFLSVRRQSA-N.pdb
REMARK                            x       y       z     vdW  Elec       q    Type
REMARK                         _______ _______ _______ _____ _____    ______ ____
ROOT
ATOM      1  H   UNK    1        0.808  -4.311   0.000  0.00  0.00    +0.000 HD
ENDROOT
TORSDOF 0
REMARK  Name = molecules/GJNXBNATEDXMAK-PFLSVRRQSA-N.pdb
REMARK                            x       y       z     vdW  Elec       q    Type
REMARK                         _______ _______ _______ _____ _____    ______ ____
ROOT
ATOM      1  H   UNK    1        2.579  -1.556   0.000  0.00  0.00    +0.000 HD
ENDROOT
TORSDOF 0
REMARK  Name = molecules/GJNXBNATEDXMAK-PFLSVRRQSA-N.pdb
REMARK                            x       y       z     vdW  Elec       q    Type
REMARK                         _______ _______ _______ _____ _____    ______ ____
ROOT
ATOM      1  H   UNK    1        0.058  -3.011   0.000  0.00  0.00    +0.000 HD
ENDROOT
TORSDOF 0
REMARK  Name = molecules/GJNXBNATEDXMAK-PFLSVRRQSA-N.pdb
REMARK                            x       y       z     vdW  Elec       q    Type
REMARK                         _______ _______ _______ _____ _____    ______ ____
ROOT
ATOM      1  H   UNK    1        2.989   0.183   0.000  0.00  0.00    +0.000 HD
ENDROOT
TORSDOF 0
REMARK  Name = molecules/GJNXBNATEDXMAK-PFLSVRRQSA-N.pdb
REMARK                            x       y       z     vdW  Elec       q    Type
REMARK                         _______ _______ _______ _____ _____    ______ ____
ROOT
ATOM      1  H   UNK    1        5.105  -2.068   0.000  0.00  0.00    +0.000 HD
ENDROOT
TORSDOF 0
REMARK  Name = molecules/GJNXBNATEDXMAK-PFLSVRRQSA-N.pdb
REMARK                            x       y       z     vdW  Elec       q    Type
REMARK                         _______ _______ _______ _____ _____    ______ ____
ROOT
ATOM      1  H   UNK    1        1.792   2.378   0.000  0.00  0.00    +0.000 HD
ENDROOT
TORSDOF 0
REMARK  Name = molecules/GJNXBNATEDXMAK-PFLSVRRQSA-N.pdb
REMARK                            x       y       z     vdW  Elec       q    Type
REMARK                         _______ _______ _______ _____ _____    ______ ____
ROOT
ATOM      1  H   UNK    1        8.386  -4.263   0.000  0.00  0.00    +0.000 HD
ENDROOT
TORSDOF 0
REMARK  Name = molecules/GJNXBNATEDXMAK-PFLSVRRQSA-N.pdb
REMARK                            x       y       z     vdW  Elec       q    Type
REMARK                         _______ _______ _______ _____ _____    ______ ____
ROOT
ATOM      1  H   UNK    1        6.280  -1.453   0.000  0.00  0.00    +0.000 HD
ENDROOT
TORSDOF 0
REMARK  Name = molecules/GJNXBNATEDXMAK-PFLSVRRQSA-N.pdb
REMARK                            x       y       z     vdW  Elec       q    Type
REMARK                         _______ _______ _______ _____ _____    ______ ____
ROOT
ATOM      1  H   UNK    1       -6.093 -13.044   0.000  0.00  0.00    +0.000 HD
ENDROOT
TORSDOF 0
REMARK  Name = molecules/GJNXBNATEDXMAK-PFLSVRRQSA-N.pdb
REMARK                            x       y       z     vdW  Elec       q    Type
REMARK                         _______ _______ _______ _____ _____    ______ ____
ROOT
ATOM      1  H   UNK    1       -0.815 -13.208   0.000  0.00  0.00    +0.000 HD
ENDROOT
TORSDOF 0
REMARK  Name = molecules/GJNXBNATEDXMAK-PFLSVRRQSA-N.pdb
REMARK                            x       y       z     vdW  Elec       q    Type
REMARK                         _______ _______ _______ _____ _____    ______ ____
ROOT
ATOM      1  H   UNK    1       -2.989   2.781   0.000  0.00  0.00    +0.000 HD
ENDROOT
TORSDOF 0
REMARK  Name = molecules/GJNXBNATEDXMAK-PFLSVRRQSA-N.pdb
REMARK                            x       y       z     vdW  Elec       q    Type
REMARK                         _______ _______ _______ _____ _____    ______ ____
ROOT
ATOM      1  H   UNK    1        8.278  -6.458   0.000  0.00  0.00    +0.000 HD
ENDROOT
TORSDOF 0
REMARK  Name = molecules/GJNXBNATEDXMAK-PFLSVRRQSA-N.pdb
REMARK                            x       y       z     vdW  Elec       q    Type
REMARK                         _______ _______ _______ _____ _____    ______ ____
ROOT
ATOM      1  H   UNK    1        5.415  -9.283   0.000  0.00  0.00    +0.000 HD
ENDROOT
TORSDOF 0
REMARK  Name = molecules/GJNXBNATEDXMAK-PFLSVRRQSA-N.pdb
REMARK                            x       y       z     vdW  Elec       q    Type
REMARK                         _______ _______ _______ _____ _____    ______ ____
ROOT
ATOM      1  H   UNK    1        6.348  -9.093   0.000  0.00  0.00    +0.000 HD
ENDROOT
TORSDOF 0
REMARK  Name = molecules/GJNXBNATEDXMAK-PFLSVRRQSA-N.pdb
REMARK                            x       y       z     vdW  Elec       q    Type
REMARK                         _______ _______ _______ _____ _____    ______ ____
ROOT
ATOM      1  H   UNK    1        8.946  -7.593   0.000  0.00  0.00    +0.000 HD
ENDROOT
TORSDOF 0
REMARK  Name = molecules/GJNXBNATEDXMAK-PFLSVRRQSA-N.pdb
REMARK                            x       y       z     vdW  Elec       q    Type
REMARK                         _______ _______ _______ _____ _____    ______ ____
ROOT
ATOM      1  H   UNK    1        3.903  -8.992   0.000  0.00  0.00    +0.000 HD
ENDROOT
TORSDOF 0
REMARK  Name = molecules/GJNXBNATEDXMAK-PFLSVRRQSA-N.pdb
REMARK                            x       y       z     vdW  Elec       q    Type
REMARK                         _______ _______ _______ _____ _____    ______ ____
ROOT
ATOM      1  H   UNK    1       10.800  -8.444   0.000  0.00  0.00    +0.000 HD
ENDROOT
TORSDOF 0
REMARK  Name = molecules/GJNXBNATEDXMAK-PFLSVRRQSA-N.pdb
REMARK                            x       y       z     vdW  Elec       q    Type
REMARK                         _______ _______ _______ _____ _____    ______ ____
ROOT
ATOM      1  H   UNK    1        0.535  -7.600   0.000  0.00  0.00    +0.000 HD
ENDROOT
TORSDOF 0
REMARK  Name = molecules/GJNXBNATEDXMAK-PFLSVRRQSA-N.pdb
REMARK                            x       y       z     vdW  Elec       q    Type
REMARK                         _______ _______ _______ _____ _____    ______ ____
ROOT
ATOM      1  H   UNK    1        2.604  -9.742   0.000  0.00  0.00    +0.000 HD
ENDROOT
TORSDOF 0
REMARK  Name = molecules/GJNXBNATEDXMAK-PFLSVRRQSA-N.pdb
REMARK                            x       y       z     vdW  Elec       q    Type
REMARK                         _______ _______ _______ _____ _____    ______ ____
ROOT
ATOM      1  H   UNK    1        0.761  -6.678   0.000  0.00  0.00    +0.000 HD
ENDROOT
TORSDOF 0
REMARK  Name = molecules/GJNXBNATEDXMAK-PFLSVRRQSA-N.pdb
REMARK                            x       y       z     vdW  Elec       q    Type
REMARK                         _______ _______ _______ _____ _____    ______ ____
ROOT
ATOM      1  H   UNK    1       10.647 -13.539   0.000  0.00  0.00    +0.000 HD
ENDROOT
TORSDOF 0
REMARK  Name = molecules/GJNXBNATEDXMAK-PFLSVRRQSA-N.pdb
REMARK                            x       y       z     vdW  Elec       q    Type
REMARK                         _______ _______ _______ _____ _____    ______ ____
ROOT
ATOM      1  H   UNK    1        1.701 -11.544   0.000  0.00  0.00    +0.000 HD
ENDROOT
TORSDOF 0
REMARK  Name = molecules/GJNXBNATEDXMAK-PFLSVRRQSA-N.pdb
REMARK                            x       y       z     vdW  Elec       q    Type
REMARK                         _______ _______ _______ _____ _____    ______ ____
ROOT
ATOM      1  H   UNK    1        3.329  -2.855   0.000  0.00  0.00    +0.000 HD
ENDROOT
TORSDOF 0
REMARK  Name = molecules/GJNXBNATEDXMAK-PFLSVRRQSA-N.pdb
REMARK                            x       y       z     vdW  Elec       q    Type
REMARK                         _______ _______ _______ _____ _____    ______ ____
ROOT
ATOM      1  H   UNK    1       -0.714 -13.033   0.000  0.00  0.00    +0.000 HD
ENDROOT
TORSDOF 0
REMARK  Name = molecules/GJNXBNATEDXMAK-PFLSVRRQSA-N.pdb
REMARK                            x       y       z     vdW  Elec       q    Type
REMARK                         _______ _______ _______ _____ _____    ______ ____
ROOT
ATOM      1  H   UNK    1        0.201  -3.348   0.000  0.00  0.00    +0.000 HD
ENDROOT
TORSDOF 0
REMARK  Name = molecules/GJNXBNATEDXMAK-PFLSVRRQSA-N.pdb
REMARK                            x       y       z     vdW  Elec       q    Type
REMARK                         _______ _______ _______ _____ _____    ______ ____
ROOT
ATOM      1  H   UNK    1       -0.491  -4.234   0.000  0.00  0.00    +0.000 HD
ENDROOT
TORSDOF 0
REMARK  Name = molecules/GJNXBNATEDXMAK-PFLSVRRQSA-N.pdb
REMARK                            x       y       z     vdW  Elec       q    Type
REMARK                         _______ _______ _______ _____ _____    ______ ____
ROOT
ATOM      1  H   UNK    1        2.989  -0.183   0.000  0.00  0.00    +0.000 HD
ENDROOT
TORSDOF 0
REMARK  Name = molecules/GJNXBNATEDXMAK-PFLSVRRQSA-N.pdb
REMARK                            x       y       z     vdW  Elec       q    Type
REMARK                         _______ _______ _______ _____ _____    ______ ____
ROOT
ATOM      1  H   UNK    1       -1.653  -2.497   0.000  0.00  0.00    +0.000 HD
ENDROOT
TORSDOF 0
REMARK  Name = molecules/GJNXBNATEDXMAK-PFLSVRRQSA-N.pdb
REMARK                            x       y       z     vdW  Elec       q    Type
REMARK                         _______ _______ _______ _____ _____    ______ ____
ROOT
ATOM      1  H   UNK    1       -1.098  -5.598   0.000  0.00  0.00    +0.000 HD
ENDROOT
TORSDOF 0
REMARK  Name = molecules/GJNXBNATEDXMAK-PFLSVRRQSA-N.pdb
REMARK                            x       y       z     vdW  Elec       q    Type
REMARK                         _______ _______ _______ _____ _____    ______ ____
ROOT
ATOM      1  H   UNK    1       -2.989  -0.183   0.000  0.00  0.00    +0.000 HD
ENDROOT
TORSDOF 0
REMARK  Name = molecules/GJNXBNATEDXMAK-PFLSVRRQSA-N.pdb
REMARK                            x       y       z     vdW  Elec       q    Type
REMARK                         _______ _______ _______ _____ _____    ______ ____
ROOT
ATOM      1  H   UNK    1        3.000   2.598   0.000  0.00  0.00    +0.000 HD
ENDROOT
TORSDOF 0
REMARK  Name = molecules/GJNXBNATEDXMAK-PFLSVRRQSA-N.pdb
REMARK                            x       y       z     vdW  Elec       q    Type
REMARK                         _______ _______ _______ _____ _____    ______ ____
ROOT
ATOM      1  H   UNK    1       -1.500   5.196   0.000  0.00  0.00    +0.000 HD
ENDROOT
TORSDOF 0
