REMARK  Name = molecules/GJPICJJJRGTNOD-UHFFFAOYSA-N.pdb
REMARK                            x       y       z     vdW  Elec       q    Type
REMARK                         _______ _______ _______ _____ _____    ______ ____
ROOT
ATOM      1  C   LIG    1       -2.318  -0.339  -0.333  0.00  0.00    +0.231 A 
ATOM      2  C   LIG    1       -1.277   0.265   0.320  0.00  0.00    +0.188 A 
ATOM      3  N   LIG    1       -1.286   1.629   0.418  0.00  0.00    -0.204 NA
ATOM      4  C   LIG    1       -2.241   2.383  -0.079  0.00  0.00    +0.203 A 
ATOM      5  N   LIG    1       -3.274   1.799  -0.719  0.00  0.00    -0.187 NA
ATOM      6  C   LIG    1       -3.340   0.464  -0.859  0.00  0.00    +0.264 A 
ENDROOT
BRANCH   4   7
ATOM      7  C   LIG    1       -2.175   3.847   0.018  0.00  0.00    +0.198 A 
ATOM      8  N   LIG    1       -1.171   4.512   0.603  0.00  0.00    -0.233 NA
ATOM      9  C   LIG    1       -1.062   5.838   0.675  0.00  0.00    +0.115 A 
ATOM     10  C   LIG    1       -2.057   6.612   0.104  0.00  0.00    +0.039 A 
ATOM     11  C   LIG    1       -3.118   5.935  -0.514  0.00  0.00    +0.115 A 
ATOM     12  N   LIG    1       -3.151   4.610  -0.544  0.00  0.00    -0.233 NA
ENDBRANCH   4   7
BRANCH   2  13
ATOM     13  N   LIG    1       -0.231  -0.448   0.941  0.00  0.00    -0.196 N 
ATOM     14  H   LIG    1       -0.194  -1.471   0.883  0.00  0.00    +0.175 HD
BRANCH  13  15
ATOM     15  S   LIG    1        0.975   0.411   1.804  0.00  0.00    +0.074 S 
ATOM     16  O   LIG    1        1.006  -0.198   3.202  0.00  0.00    -0.150 OA
ATOM     17  O   LIG    1        0.584   1.871   1.917  0.00  0.00    -0.150 OA
BRANCH  15  18
ATOM     18  C   LIG    1        2.552   0.285   1.108  0.00  0.00    +0.109 A 
ATOM     19  C   LIG    1        3.477  -0.575   1.673  0.00  0.00    +0.029 A 
ATOM     20  C   LIG    1        4.738  -0.692   1.122  0.00  0.00    +0.006 A 
ATOM     21  C   LIG    1        5.108   0.033   0.007  0.00  0.00    -0.042 A 
ATOM     22  C   LIG    1        4.191   0.880  -0.551  0.00  0.00    +0.006 A 
ATOM     23  C   LIG    1        2.901   1.016  -0.005  0.00  0.00    +0.029 A 
BRANCH  21  24
ATOM     24  C   LIG    1        6.463  -0.080  -0.561  0.00  0.00    -0.013 C 
ATOM     25  C   LIG    1        7.479   0.625   0.344  0.00  0.00    +0.015 C 
ATOM     26  C   LIG    1        6.838  -1.509  -0.760  0.00  0.00    +0.015 C 
ATOM     27  C   LIG    1        6.514   0.698  -1.879  0.00  0.00    +0.015 C 
ENDBRANCH  21  24
ENDBRANCH  15  18
ENDBRANCH  13  15
ENDBRANCH   2  13
BRANCH   1  28
ATOM     28  O   LIG    1       -2.365  -1.698  -0.485  0.00  0.00    -0.443 OA
BRANCH  28  29
ATOM     29  C   LIG    1       -2.698  -2.676   0.426  0.00  0.00    +0.170 A 
ATOM     30  C   LIG    1       -2.966  -2.348   1.742  0.00  0.00    +0.050 A 
ATOM     31  C   LIG    1       -3.307  -3.338   2.671  0.00  0.00    +0.004 A 
ATOM     32  C   LIG    1       -3.381  -4.656   2.288  0.00  0.00    +0.004 A 
ATOM     33  C   LIG    1       -3.105  -4.965   0.956  0.00  0.00    +0.049 A 
ATOM     34  C   LIG    1       -2.770  -4.012   0.033  0.00  0.00    +0.162 A 
BRANCH  34  35
ATOM     35  O   LIG    1       -2.493  -4.282  -1.292  0.00  0.00    -0.491 OA
ATOM     36  C   LIG    1       -2.516  -5.530  -1.914  0.00  0.00    +0.277 C 
ENDBRANCH  34  35
ENDBRANCH  28  29
ENDBRANCH   1  28
BRANCH   6  37
ATOM     37  O   LIG    1       -4.390  -0.137  -1.510  0.00  0.00    -0.471 OA
BRANCH  37  38
ATOM     38  C   LIG    1       -5.447   0.618  -2.042  0.00  0.00    +0.258 C 
BRANCH  38  39
ATOM     39  C   LIG    1       -6.138   1.349  -0.922  0.00  0.00    +0.196 C 
BRANCH  39  40
ATOM     40  O   LIG    1       -6.626   0.414   0.010  0.00  0.00    -0.392 OA
ATOM     41  H   LIG    1       -5.874   0.232   0.636  0.00  0.00    +0.210 HD
ENDBRANCH  39  40
ENDBRANCH  38  39
ENDBRANCH  37  38
ENDBRANCH   6  37
TORSDOF 12
