REMARK  Name = molecules/GJSURZIOUXUGAL-UHFFFAOYSA-N.pdb
REMARK                            x       y       z     vdW  Elec       q    Type
REMARK                         _______ _______ _______ _____ _____    ______ ____
ROOT
ATOM      1 CL   LIG    1       -2.094  -3.167   0.092  0.00  0.00    -0.082 Cl
ATOM      2  C   LIG    1       -2.308  -1.427   0.084  0.00  0.00    +0.063 A 
ATOM      3  C   LIG    1       -3.562  -0.854   0.156  0.00  0.00    +0.022 A 
ATOM      4  C   LIG    1       -3.740   0.514   0.150  0.00  0.00    +0.003 A 
ATOM      5  C   LIG    1       -2.631   1.335   0.069  0.00  0.00    +0.022 A 
ATOM      6  C   LIG    1       -1.367   0.758  -0.004  0.00  0.00    +0.063 A 
ATOM      7 CL   LIG    1        0.023   1.800  -0.106  0.00  0.00    -0.082 Cl
ATOM      8  C   LIG    1       -1.212  -0.599   0.003  0.00  0.00    +0.067 A 
ENDROOT
BRANCH   8   9
ATOM      9  N   LIG    1        0.071  -1.171  -0.071  0.00  0.00    -0.307 N 
ATOM     10  H   LIG    1        0.197  -2.232  -0.066  0.00  0.00    +0.149 HD
BRANCH   9  11
ATOM     11  C   LIG    1        1.297  -0.459  -0.158  0.00  0.00    +0.206 C 
ATOM     12  N   LIG    1        2.086   0.078   0.926  0.00  0.00    -0.277 NA
ATOM     13  H   LIG    1        1.757   0.233   1.882  0.00  0.00    +0.125 HD
ATOM     14  C   LIG    1        3.416   0.347   0.392  0.00  0.00    +0.101 C 
ATOM     15  C   LIG    1        3.123   0.543  -1.067  0.00  0.00    +0.121 C 
ATOM     16  N   LIG    1        1.900  -0.186  -1.257  0.00  0.00    -0.196 NA
ENDBRANCH   9  11
ENDBRANCH   8   9
TORSDOF 2
