REMARK  Name = molecules/GKPFBMQXTRZTOW-UHFFFAOYSA-N.pdb
REMARK                            x       y       z     vdW  Elec       q    Type
REMARK                         _______ _______ _______ _____ _____    ______ ____
ROOT
ATOM      1  C   LIG    1        2.202  -0.515  -0.784  0.00  0.00    +0.031 C 
ENDROOT
BRANCH   1   2
ATOM      2  C   LIG    1        3.263   0.502  -0.682  0.00  0.00    +0.107 C 
BRANCH   2   3
ATOM      3  C   LIG    1        3.922   0.677   0.612  0.00  0.00    -0.023 A 
ATOM      4  C   LIG    1        3.972  -0.241   1.610  0.00  0.00    +0.005 A 
ATOM      5  C   LIG    1        4.635   0.021   2.805  0.00  0.00    +0.000 A 
ATOM      6  C   LIG    1        5.263   1.223   3.014  0.00  0.00    +0.000 A 
ATOM      7  C   LIG    1        5.219   2.155   2.017  0.00  0.00    +0.000 A 
ATOM      8  C   LIG    1        4.560   1.898   0.824  0.00  0.00    +0.005 A 
ENDBRANCH   2   3
BRANCH   2   9
ATOM      9  C   LIG    1        4.378   0.025  -1.600  0.00  0.00    -0.023 A 
ATOM     10  C   LIG    1        4.986  -1.188  -1.321  0.00  0.00    +0.005 A 
ATOM     11  C   LIG    1        6.014  -1.692  -2.116  0.00  0.00    +0.000 A 
ATOM     12  C   LIG    1        6.452  -0.984  -3.209  0.00  0.00    +0.000 A 
ATOM     13  C   LIG    1        5.833   0.224  -3.471  0.00  0.00    +0.000 A 
ATOM     14  C   LIG    1        4.817   0.715  -2.679  0.00  0.00    +0.005 A 
ENDBRANCH   2   9
BRANCH   2  15
ATOM     15  C   LIG    1        2.865   1.796  -1.296  0.00  0.00    +0.079 C 
ATOM     16  N   LIG    1        2.543   2.816  -1.758  0.00  0.00    -0.195 NA
ENDBRANCH   2  15
ENDBRANCH   1   2
BRANCH   1  17
ATOM     17  C   LIG    1        0.878  -0.280  -0.192  0.00  0.00    +0.000 C 
BRANCH  17  18
ATOM     18  C   LIG    1        0.737  -0.044   1.247  0.00  0.00    -0.018 C 
BRANCH  18  19
ATOM     19  C   LIG    1       -0.646   0.198   1.726  0.00  0.00    -0.076 C 
BRANCH  19  20
ATOM     20  N   LIG    1       -1.644  -0.786   1.550  0.00  0.00    +0.375 N 
ATOM     21  C   LIG    1       -2.562  -0.838   2.706  0.00  0.00    -0.092 C 
ATOM     22  C   LIG    1       -1.221  -2.124   1.296  0.00  0.00    -0.092 C 
BRANCH  20  23
ATOM     23  C   LIG    1       -2.505  -0.313   0.455  0.00  0.00    -0.094 C 
BRANCH  23  24
ATOM     24  C   LIG    1       -3.930  -0.738   0.576  0.00  0.00    -0.094 C 
BRANCH  24  25
ATOM     25  N   LIG    1       -4.618  -0.195  -0.610  0.00  0.00    +0.380 N 
ATOM     26  C   LIG    1       -6.049  -0.400  -0.504  0.00  0.00    -0.047 C 
ATOM     27  C   LIG    1       -6.686   0.904  -0.070  0.00  0.00    +0.142 C 
ATOM     28  O   LIG    1       -6.577   1.788  -1.132  0.00  0.00    -0.383 OA
ATOM     29  C   LIG    1       -5.287   1.946  -1.599  0.00  0.00    +0.142 C 
ATOM     30  C   LIG    1       -4.284   1.210  -0.698  0.00  0.00    -0.047 C 
ATOM     31  C   LIG    1       -4.130  -0.918  -1.768  0.00  0.00    -0.092 C 
ENDBRANCH  24  25
ENDBRANCH  23  24
ENDBRANCH  20  23
ENDBRANCH  19  20
ENDBRANCH  18  19
ENDBRANCH  17  18
ENDBRANCH   1  17
TORSDOF 11
