REMARK  Name = molecules/GKQPCPXONLDCMU-CCEZHUSRSA-N.pdb
REMARK                            x       y       z     vdW  Elec       q    Type
REMARK                         _______ _______ _______ _____ _____    ______ ____
ROOT
ATOM      1  N   LIG    1       -4.657   0.753   1.259  0.00  0.00    -0.321 N 
ATOM      2  H   LIG    1       -5.665   0.966   1.462  0.00  0.00    +0.152 HD
ATOM      3  C   LIG    1       -3.722   1.813   1.194  0.00  0.00    +0.016 C 
ATOM      4  C   LIG    1       -4.197   3.228   1.419  0.00  0.00    +0.061 C 
ATOM      5  C   LIG    1       -2.458   1.569   0.942  0.00  0.00    +0.065 C 
ATOM      6  C   LIG    1       -1.903   0.218   0.710  0.00  0.00    +0.096 C 
ATOM      7  C   LIG    1       -2.940  -0.833   0.792  0.00  0.00    +0.065 C 
ATOM      8  C   LIG    1       -4.187  -0.559   1.044  0.00  0.00    +0.016 C 
ATOM      9  C   LIG    1       -5.204  -1.661   1.119  0.00  0.00    +0.061 C 
ENDROOT
BRANCH   6  10
ATOM     10  C   LIG    1       -0.914  -0.107   1.804  0.00  0.00    -0.028 A 
ATOM     11  C   LIG    1       -1.429  -0.204   3.106  0.00  0.00    +0.005 A 
ATOM     12  C   LIG    1       -0.628  -0.438   4.178  0.00  0.00    +0.000 A 
ATOM     13  C   LIG    1        0.717  -0.581   3.960  0.00  0.00    +0.001 A 
ATOM     14  C   LIG    1        1.221  -0.488   2.683  0.00  0.00    +0.008 A 
ATOM     15  C   LIG    1        0.405  -0.246   1.561  0.00  0.00    -0.021 A 
BRANCH  15  16
ATOM     16  C   LIG    1        0.957  -0.210   0.226  0.00  0.00    +0.015 C 
ATOM     17  C   LIG    1        2.258  -0.325  -0.064  0.00  0.00    +0.092 C 
BRANCH  17  18
ATOM     18  C   LIG    1        2.727  -0.275  -1.469  0.00  0.00    +0.332 C 
ATOM     19  O   LIG    1        1.958  -0.128  -2.429  0.00  0.00    -0.246 OA
BRANCH  18  20
ATOM     20  O   LIG    1        4.083  -0.402  -1.673  0.00  0.00    -0.456 OA
BRANCH  20  21
ATOM     21  C   LIG    1        4.688  -0.375  -2.951  0.00  0.00    +0.106 C 
ATOM     22  C   LIG    1        6.185  -0.554  -2.725  0.00  0.00    +0.055 C 
ATOM     23  C   LIG    1        4.481   0.980  -3.604  0.00  0.00    +0.055 C 
ATOM     24  C   LIG    1        4.202  -1.459  -3.861  0.00  0.00    +0.055 C 
ENDBRANCH  20  21
ENDBRANCH  18  20
ENDBRANCH  17  18
ENDBRANCH  15  16
ENDBRANCH   6  10
BRANCH   5  25
ATOM     25  C   LIG    1       -1.560   2.747   0.891  0.00  0.00    +0.338 C 
ATOM     26  O   LIG    1       -1.973   3.892   1.075  0.00  0.00    -0.245 OA
BRANCH  25  27
ATOM     27  O   LIG    1       -0.226   2.546   0.629  0.00  0.00    -0.462 OA
BRANCH  27  28
ATOM     28  C   LIG    1        0.744   3.555   0.549  0.00  0.00    +0.229 C 
ATOM     29  C   LIG    1        0.477   4.575  -0.514  0.00  0.00    +0.048 C 
ENDBRANCH  27  28
ENDBRANCH  25  27
ENDBRANCH   5  25
BRANCH   7  30
ATOM     30  C   LIG    1       -2.521  -2.253   0.576  0.00  0.00    +0.338 C 
ATOM     31  O   LIG    1       -3.325  -3.207   0.627  0.00  0.00    -0.245 OA
BRANCH  30  32
ATOM     32  O   LIG    1       -1.202  -2.580   0.306  0.00  0.00    -0.462 OA
BRANCH  32  33
ATOM     33  C   LIG    1       -0.797  -3.912   0.100  0.00  0.00    +0.229 C 
ATOM     34  C   LIG    1       -1.504  -4.553  -1.072  0.00  0.00    +0.048 C 
ENDBRANCH  32  33
ENDBRANCH  30  32
ENDBRANCH   7  30
TORSDOF 11
