REMARK  Name = molecules/GLBJJMFZWDBELO-NSHDSACASA-N.pdb
REMARK                            x       y       z     vdW  Elec       q    Type
REMARK                         _______ _______ _______ _____ _____    ______ ____
ROOT
ATOM      1  C   LIG    1       -2.591   0.866   0.346  0.00  0.00    +0.000 A 
ATOM      2  C   LIG    1       -2.164   1.545   1.463  0.00  0.00    +0.012 A 
ATOM      3  C   LIG    1       -0.852   1.583   1.863  0.00  0.00    +0.028 A 
ATOM      4  C   LIG    1        0.108   0.902   1.105  0.00  0.00    +0.067 A 
ATOM      5  N   LIG    1        1.431   0.730   1.197  0.00  0.00    -0.338 N 
ATOM      6  H   LIG    1        2.039   1.130   1.949  0.00  0.00    +0.167 HD
ATOM      7  C   LIG    1        1.897  -0.027   0.198  0.00  0.00    +0.139 A 
ATOM      8  N   LIG    1        0.823  -0.341  -0.548  0.00  0.00    -0.228 NA
ATOM      9  C   LIG    1       -0.288   0.215  -0.015  0.00  0.00    +0.090 A 
ATOM     10  C   LIG    1       -1.633   0.202  -0.386  0.00  0.00    +0.039 A 
ENDROOT
BRANCH   1  13
ATOM     11  C   LIG    1       -4.549  -1.360  -1.015  0.00  0.00    +0.014 C 
ATOM     12  C   LIG    1       -4.473   0.133  -1.248  0.00  0.00    +0.046 C 
ATOM     13  C   LIG    1       -4.024   0.859  -0.041  0.00  0.00    +0.070 C 
ATOM     14  N   LIG    1       -4.889   1.482   0.666  0.00  0.00    -0.184 NA
ATOM     15  N   LIG    1       -6.246   1.544   0.401  0.00  0.00    -0.207 N 
ATOM     16  H   LIG    1       -6.939   2.064   0.999  0.00  0.00    +0.177 HD
ATOM     17  C   LIG    1       -6.759   0.876  -0.738  0.00  0.00    +0.233 C 
ATOM     18  O   LIG    1       -7.947   0.510  -0.872  0.00  0.00    -0.274 OA
ATOM     19  C   LIG    1       -5.754   0.615  -1.833  0.00  0.00    +0.107 C 
ENDBRANCH   1  13
BRANCH   7  20
ATOM     20  C   LIG    1        3.279  -0.429  -0.036  0.00  0.00    +0.018 A 
ATOM     21  C   LIG    1        4.266  -0.017   0.834  0.00  0.00    +0.015 A 
ATOM     22  C   LIG    1        5.584  -0.383   0.638  0.00  0.00    +0.046 A 
ATOM     23  C   LIG    1        5.935  -1.177  -0.446  0.00  0.00    +0.120 A 
ATOM     24  C   LIG    1        4.951  -1.595  -1.325  0.00  0.00    +0.046 A 
ATOM     25  C   LIG    1        3.651  -1.216  -1.103  0.00  0.00    +0.015 A 
BRANCH  23  26
ATOM     26  O   LIG    1        7.238  -1.567  -0.683  0.00  0.00    -0.495 OA
ATOM     27  C   LIG    1        8.286  -1.162   0.193  0.00  0.00    +0.277 C 
ENDBRANCH  23  26
ENDBRANCH   7  20
TORSDOF 3
