REMARK  Name = molecules/GLUUGHFHXGJENI-UHFFFAOYSA-N.pdb
REMARK                            x       y       z     vdW  Elec       q    Type
REMARK                         _______ _______ _______ _____ _____    ______ ____
ROOT
ATOM      1  C   LIG    1        1.386  -0.005   0.315  0.00  0.00    +0.096 C 
ATOM      2  C   LIG    1        0.610   1.263   0.041  0.00  0.00    +0.096 C 
ATOM      3  N   LIG    1       -0.711   1.022  -0.464  0.00  0.00    -0.314 NA
ATOM      4  C   LIG    1       -1.349  -0.127   0.125  0.00  0.00    +0.096 C 
ATOM      5  C   LIG    1       -0.555  -1.374  -0.091  0.00  0.00    +0.096 C 
ATOM      6  H   LIG    1       -1.284   1.868  -0.355  0.00  0.00    +0.122 HD
ATOM      7  N   LIG    1        0.838  -1.159  -0.332  0.00  0.00    -0.314 NA
ATOM      8  H   LIG    1        1.083  -1.106  -1.356  0.00  0.00    +0.122 HD
ENDROOT
TORSDOF 0
