REMARK  Name = molecules/GLVAUDGFNGKCSF-UHFFFAOYSA-N.pdb
REMARK                            x       y       z     vdW  Elec       q    Type
REMARK                         _______ _______ _______ _____ _____    ______ ____
ROOT
ATOM      1  S   LIG    1       -0.352   2.991  -0.270  0.00  0.00    -0.028 S 
ATOM      2  C   LIG    1        0.341   1.528  -0.162  0.00  0.00    +0.136 A 
ATOM      3  C   LIG    1       -0.466   0.421  -0.018  0.00  0.00    +0.116 A 
ATOM      4  C   LIG    1        0.116  -0.832   0.074  0.00  0.00    +0.160 A 
ATOM      5  N   LIG    1       -0.881  -1.724   0.206  0.00  0.00    -0.218 NA
ATOM      6  C   LIG    1       -2.055  -1.086   0.200  0.00  0.00    +0.199 A 
ATOM      7  N   LIG    1        1.457  -0.879   0.016  0.00  0.00    -0.329 N 
ATOM      8  H   LIG    1        1.918  -1.808   0.083  0.00  0.00    +0.168 HD
ATOM      9  C   LIG    1        2.237   0.202  -0.124  0.00  0.00    +0.199 A 
ATOM     10  N   LIG    1       -1.790   0.224   0.063  0.00  0.00    -0.341 N 
ATOM     11  H   LIG    1       -2.518   0.961   0.026  0.00  0.00    +0.167 HD
ATOM     12  N   LIG    1        1.682   1.423  -0.215  0.00  0.00    -0.228 NA
ENDROOT
TORSDOF 0
