REMARK  Name = molecules/GMJFVGRUYJHMCO-UHFFFAOYSA-N.pdb
REMARK                            x       y       z     vdW  Elec       q    Type
REMARK                         _______ _______ _______ _____ _____    ______ ____
ROOT
ATOM      1  C   LIG    1        0.301   1.057   0.041  0.00  0.00    +0.082 C 
ENDROOT
BRANCH   1   2
ATOM      2  C   LIG    1        0.998   1.340  -1.258  0.00  0.00    +0.232 C 
BRANCH   2   3
ATOM      3  O   LIG    1        2.295   1.747  -1.151  0.00  0.00    -0.491 OA
BRANCH   3   4
ATOM      4  C   LIG    1        3.422   1.147  -0.682  0.00  0.00    +0.134 A 
ATOM      5  C   LIG    1        3.447  -0.131  -0.201  0.00  0.00    +0.047 A 
ATOM      6  C   LIG    1        4.622  -0.693   0.262  0.00  0.00    +0.019 A 
ATOM      7  C   LIG    1        5.789   0.033   0.242  0.00  0.00    +0.066 A 
ATOM      8  C   LIG    1        5.788   1.317  -0.237  0.00  0.00    +0.034 A 
ATOM      9  C   LIG    1        4.626   1.872  -0.694  0.00  0.00    +0.060 A 
ATOM     10 BR   LIG    1        4.587   3.665  -1.372  0.00  0.00    -0.046 Br
BRANCH   7  11
ATOM     11  C   LIG    1        7.021  -0.544   0.723  0.00  0.00    +0.306 C 
ATOM     12  N   LIG    1        8.243   0.211   0.705  0.00  0.00    -0.286 N 
ATOM     13  H   LIG    1        8.361   1.099   1.236  0.00  0.00    +0.301 HD
ATOM     14  H   LIG    1        9.018  -0.166   0.131  0.00  0.00    +0.301 HD
BRANCH  11  15
ATOM     15  N   LIG    1        7.115  -1.738   1.189  0.00  0.00    -0.069 NA
ATOM     16  H   LIG    1        6.372  -2.434   1.289  0.00  0.00    +0.348 HD
ENDBRANCH  11  15
ENDBRANCH   7  11
ENDBRANCH   3   4
ENDBRANCH   2   3
ENDBRANCH   1   2
BRANCH   1  17
ATOM     17  C   LIG    1       -1.129   0.622  -0.314  0.00  0.00    +0.232 C 
BRANCH  17  18
ATOM     18  O   LIG    1       -1.847   0.337   0.877  0.00  0.00    -0.491 OA
BRANCH  18  19
ATOM     19  C   LIG    1       -3.164  -0.072   0.729  0.00  0.00    +0.134 A 
ATOM     20  C   LIG    1       -3.914  -0.363   1.854  0.00  0.00    +0.060 A 
ATOM     21 BR   LIG    1       -3.087  -0.185   3.583  0.00  0.00    -0.046 Br
ATOM     22  C   LIG    1       -5.227  -0.775   1.780  0.00  0.00    +0.034 A 
ATOM     23  C   LIG    1       -5.814  -0.899   0.514  0.00  0.00    +0.066 A 
ATOM     24  C   LIG    1       -5.089  -0.616  -0.622  0.00  0.00    +0.019 A 
ATOM     25  C   LIG    1       -3.781  -0.208  -0.501  0.00  0.00    +0.047 A 
BRANCH  23  26
ATOM     26  C   LIG    1       -7.198  -1.332   0.411  0.00  0.00    +0.306 C 
ATOM     27  N   LIG    1       -7.798  -1.461  -0.854  0.00  0.00    -0.286 N 
ATOM     28  H   LIG    1       -8.277  -2.336  -1.115  0.00  0.00    +0.301 HD
ATOM     29  H   LIG    1       -7.759  -0.677  -1.526  0.00  0.00    +0.301 HD
BRANCH  26  30
ATOM     30  N   LIG    1       -7.867  -1.595   1.468  0.00  0.00    -0.069 NA
ATOM     31  H   LIG    1       -8.845  -1.905   1.490  0.00  0.00    +0.348 HD
ENDBRANCH  26  30
ENDBRANCH  23  26
ENDBRANCH  18  19
ENDBRANCH  17  18
ENDBRANCH   1  17
TORSDOF 10
