REMARK  Name = molecules/GNDPAVKYAUIVEB-NTEUORMPSA-N.pdb
REMARK                            x       y       z     vdW  Elec       q    Type
REMARK                         _______ _______ _______ _____ _____    ______ ____
ROOT
ATOM      1  N   LIG    1        0.422   0.494  -0.379  0.00  0.00    -0.203 N 
ATOM      2  C   LIG    1        1.435   0.833   0.529  0.00  0.00    +0.263 C 
ATOM      3  O   LIG    1        1.178   1.391   1.638  0.00  0.00    -0.268 OA
ATOM      4  H   LIG    1        0.596   0.041  -1.286  0.00  0.00    +0.178 HD
ENDROOT
BRANCH   2   5
ATOM      5  C   LIG    1        2.830   0.560   0.242  0.00  0.00    +0.041 A 
ATOM      6  C   LIG    1        3.821   0.901   1.152  0.00  0.00    +0.033 A 
ATOM      7  C   LIG    1        5.136   0.642   0.877  0.00  0.00    +0.111 A 
ATOM      8  N   LIG    1        5.444   0.055  -0.281  0.00  0.00    -0.263 NA
ATOM      9  C   LIG    1        4.538  -0.299  -1.201  0.00  0.00    +0.111 A 
ATOM     10  C   LIG    1        3.198  -0.039  -0.929  0.00  0.00    +0.033 A 
ENDBRANCH   2   5
BRANCH   1  12
ATOM     11  C   LIG    1       -1.780  -0.180  -0.168  0.00  0.00    +0.098 C 
ATOM     12  N   LIG    1       -0.930   0.773  -0.071  0.00  0.00    -0.181 NA
ATOM     13  C   LIG    1       -1.309  -1.516  -0.594  0.00  0.00    +0.071 C 
BRANCH  11  14
ATOM     14  C   LIG    1       -3.178   0.067   0.139  0.00  0.00    +0.150 A 
ATOM     15  O   LIG    1       -3.700   1.206   0.523  0.00  0.00    -0.462 OA
ATOM     16  C   LIG    1       -4.979   1.112   0.722  0.00  0.00    +0.196 A 
ATOM     17  C   LIG    1       -5.349  -0.186   0.452  0.00  0.00    +0.042 A 
ATOM     18  C   LIG    1       -4.213  -0.871   0.078  0.00  0.00    +0.051 A 
ENDBRANCH  11  14
ENDBRANCH   1  12
TORSDOF 3
