REMARK  Name = molecules/GNXFOGHNGIVQEH-QMMMGPOBSA-N.pdb
REMARK                            x       y       z     vdW  Elec       q    Type
REMARK                         _______ _______ _______ _____ _____    ______ ____
ROOT
ATOM      1  C   LIG    1        0.444   0.799  -1.114  0.00  0.00    +0.264 C 
ENDROOT
BRANCH   1   2
ATOM      2  O   LIG    1       -0.399  -0.237  -1.163  0.00  0.00    -0.486 OA
BRANCH   2   3
ATOM      3  C   LIG    1       -0.570  -1.506  -0.821  0.00  0.00    +0.162 A 
ATOM      4  C   LIG    1        0.403  -2.211  -0.161  0.00  0.00    +0.049 A 
ATOM      5  C   LIG    1        0.295  -3.528   0.228  0.00  0.00    +0.004 A 
ATOM      6  C   LIG    1       -0.876  -4.177  -0.070  0.00  0.00    +0.004 A 
ATOM      7  C   LIG    1       -1.874  -3.529  -0.721  0.00  0.00    +0.049 A 
ATOM      8  C   LIG    1       -1.775  -2.196  -1.120  0.00  0.00    +0.161 A 
BRANCH   8   9
ATOM      9  O   LIG    1       -2.691  -1.553  -1.733  0.00  0.00    -0.491 OA
ATOM     10  C   LIG    1       -3.758  -1.132  -2.336  0.00  0.00    +0.277 C 
ENDBRANCH   8   9
ENDBRANCH   2   3
ENDBRANCH   1   2
BRANCH   1  11
ATOM     11  C   LIG    1        0.730   1.237   0.301  0.00  0.00    +0.189 C 
BRANCH  11  12
ATOM     12  O   LIG    1       -0.434   1.611   0.975  0.00  0.00    -0.385 OA
ATOM     13  H   LIG    1       -1.000   0.787   1.080  0.00  0.00    +0.210 HD
ENDBRANCH  11  12
BRANCH  11  14
ATOM     14  C   LIG    1        1.685   2.434   0.322  0.00  0.00    +0.268 C 
BRANCH  14  15
ATOM     15  O   LIG    1        1.921   2.706   1.695  0.00  0.00    -0.448 OA
BRANCH  15  16
ATOM     16  C   LIG    1        2.746   3.732   2.137  0.00  0.00    +0.398 C 
ATOM     17  N   LIG    1        2.951   3.965   3.544  0.00  0.00    -0.295 N 
ATOM     18  H   LIG    1        3.478   3.201   4.043  0.00  0.00    +0.148 HD
ATOM     19  H   LIG    1        2.618   4.803   4.041  0.00  0.00    +0.148 HD
ATOM     20  O   LIG    1        3.302   4.440   1.262  0.00  0.00    -0.227 OA
ENDBRANCH  15  16
ENDBRANCH  14  15
ENDBRANCH  11  14
ENDBRANCH   1  11
TORSDOF 8
