REMARK  Name = molecules/GNZCRYWFWKFIDM-UHFFFAOYSA-N.pdb
REMARK                            x       y       z     vdW  Elec       q    Type
REMARK                         _______ _______ _______ _____ _____    ______ ____
ROOT
ATOM      1  C   LIG    1       -3.882   0.056  -0.283  0.00  0.00    +0.100 A 
ATOM      2  C   LIG    1       -3.042   0.470   0.721  0.00  0.00    +0.133 A 
ATOM      3  C   LIG    1       -1.659   0.369   0.649  0.00  0.00    +0.069 A 
ATOM      4  C   LIG    1       -1.060  -0.156  -0.441  0.00  0.00    +0.037 A 
ATOM      5  C   LIG    1       -1.905  -0.587  -1.480  0.00  0.00    +0.024 A 
ATOM      6  C   LIG    1       -3.264  -0.481  -1.395  0.00  0.00    +0.020 A 
ENDROOT
BRANCH   4   7
ATOM      7  N   LIG    1        0.344  -0.281  -0.598  0.00  0.00    -0.281 N 
ATOM      8  C   LIG    1        1.335   0.293   0.211  0.00  0.00    +0.248 C 
ATOM      9  O   LIG    1        1.026   1.015   1.208  0.00  0.00    -0.270 OA
ATOM     10  H   LIG    1        0.657  -0.888  -1.427  0.00  0.00    +0.155 HD
BRANCH   8  11
ATOM     11  C   LIG    1        2.749   0.058  -0.093  0.00  0.00    +0.037 A 
ATOM     12  C   LIG    1        3.668   0.386   0.881  0.00  0.00    +0.013 A 
ATOM     13  C   LIG    1        5.034   0.182   0.660  0.00  0.00    +0.001 A 
ATOM     14  C   LIG    1        5.441  -0.351  -0.546  0.00  0.00    +0.000 A 
ATOM     15  C   LIG    1        4.542  -0.683  -1.529  0.00  0.00    +0.001 A 
ATOM     16  C   LIG    1        3.191  -0.466  -1.272  0.00  0.00    +0.013 A 
ENDBRANCH   8  11
ENDBRANCH   4   7
BRANCH   1  17
ATOM     17  C   LIG    1       -5.322   0.182  -0.162  0.00  0.00    +0.340 C 
ATOM     18  O   LIG    1       -6.073  -0.198  -1.079  0.00  0.00    -0.245 OA
BRANCH  17  19
ATOM     19  O   LIG    1       -5.878   0.729   0.979  0.00  0.00    -0.477 OA
ATOM     20  H   LIG    1       -5.848   0.207   1.851  0.00  0.00    +0.295 HD
ENDBRANCH  17  19
ENDBRANCH   1  17
BRANCH   2  21
ATOM     21  O   LIG    1       -3.626   1.016   1.857  0.00  0.00    -0.506 OA
ATOM     22  H   LIG    1       -3.046   1.329   2.609  0.00  0.00    +0.292 HD
ENDBRANCH   2  21
TORSDOF 5
