REMARK  Name = molecules/GOEMGAFJFRBGGG-HNNXBMFYSA-N.pdb
REMARK                            x       y       z     vdW  Elec       q    Type
REMARK                         _______ _______ _______ _____ _____    ______ ____
ROOT
ATOM      1  C   LIG    1       -0.078   0.497   0.022  0.00  0.00    +0.131 A 
ATOM      2  C   LIG    1       -0.676   1.107   1.103  0.00  0.00    +0.048 A 
ATOM      3  C   LIG    1       -1.988   0.826   1.434  0.00  0.00    +0.027 A 
ATOM      4  C   LIG    1       -2.746  -0.061   0.712  0.00  0.00    +0.034 A 
ATOM      5  C   LIG    1       -2.132  -0.671  -0.382  0.00  0.00    +0.038 A 
ATOM      6  C   LIG    1       -0.835  -0.428  -0.748  0.00  0.00    +0.060 A 
ENDROOT
BRANCH   4   7
ATOM      7  N   LIG    1       -4.069  -0.378   1.051  0.00  0.00    -0.285 N 
ATOM      8  H   LIG    1       -4.281  -1.136   1.775  0.00  0.00    +0.155 HD
ATOM      9  C   LIG    1       -5.236   0.222   0.513  0.00  0.00    +0.217 C 
ATOM     10  O   LIG    1       -5.048   1.141  -0.365  0.00  0.00    -0.275 OA
BRANCH   9  11
ATOM     11  C   LIG    1       -6.588  -0.147   0.898  0.00  0.00    +0.096 C 
BRANCH  11  12
ATOM     12  C   LIG    1       -7.685   0.712   0.363  0.00  0.00    +0.006 C 
ATOM     13  C   LIG    1       -9.013   0.079   0.828  0.00  0.00    +0.004 C 
ENDBRANCH  11  12
ENDBRANCH   9  11
ENDBRANCH   4   7
BRANCH   6  14
ATOM     14  C   LIG    1       -0.232  -1.071  -1.898  0.00  0.00    +0.164 C 
ATOM     15  O   LIG    1        0.955  -0.819  -2.184  0.00  0.00    -0.292 OA
ATOM     16  C   LIG    1       -0.985  -2.012  -2.747  0.00  0.00    +0.092 C 
ENDBRANCH   6  14
BRANCH   1  17
ATOM     17  O   LIG    1        1.220   0.697  -0.386  0.00  0.00    -0.489 OA
BRANCH  17  18
ATOM     18  C   LIG    1        2.080   1.588   0.231  0.00  0.00    +0.261 C 
BRANCH  18  19
ATOM     19  C   LIG    1        3.485   1.542  -0.361  0.00  0.00    +0.166 C 
BRANCH  19  20
ATOM     20  O   LIG    1        4.232   2.601   0.241  0.00  0.00    -0.387 OA
ATOM     21  H   LIG    1        4.272   3.376  -0.373  0.00  0.00    +0.210 HD
ENDBRANCH  19  20
BRANCH  19  22
ATOM     22  C   LIG    1        4.139   0.227   0.103  0.00  0.00    +0.115 C 
BRANCH  22  23
ATOM     23  N   LIG    1        5.505   0.235  -0.343  0.00  0.00    -0.311 NA
ATOM     24  H   LIG    1        5.559   0.166  -1.403  0.00  0.00    +0.122 HD
BRANCH  23  25
ATOM     25  C   LIG    1        6.292  -0.804   0.309  0.00  0.00    +0.048 C 
ATOM     26  C   LIG    1        7.142  -0.211   1.404  0.00  0.00    +0.023 C 
ATOM     27  C   LIG    1        7.178  -1.461  -0.711  0.00  0.00    +0.023 C 
ENDBRANCH  23  25
ENDBRANCH  22  23
ENDBRANCH  19  22
ENDBRANCH  18  19
ENDBRANCH  17  18
ENDBRANCH   1  17
TORSDOF 11
