REMARK  Name = molecules/GOIQOQCNFWYSTQ-RXMQYKEDSA-N.pdb
REMARK                            x       y       z     vdW  Elec       q    Type
REMARK                         _______ _______ _______ _____ _____    ______ ____
ROOT
ATOM      1  C   LIG    1        1.067  -0.297   0.390  0.00  0.00    -0.017 A 
ATOM      2  C   LIG    1        1.834  -1.476   0.379  0.00  0.00    +0.019 A 
ATOM      3  I   LIG    1        0.855  -3.268   0.950  0.00  0.00    -0.043 I 
ATOM      4  C   LIG    1        3.157  -1.486   0.017  0.00  0.00    +0.032 A 
ATOM      5  C   LIG    1        3.806  -0.329  -0.359  0.00  0.00    +0.057 A 
ATOM      6  C   LIG    1        3.082   0.824  -0.355  0.00  0.00    +0.143 A 
ATOM      7  I   LIG    1        5.831  -0.328  -0.923  0.00  0.00    -0.040 I 
ATOM      8  C   LIG    1        1.729   0.834   0.017  0.00  0.00    +0.060 A 
ATOM      9  I   LIG    1        0.799   2.708   0.039  0.00  0.00    -0.040 I 
ENDROOT
BRANCH   6  10
ATOM     10  O   LIG    1        3.726   2.004  -0.734  0.00  0.00    -0.505 OA
ATOM     11  H   LIG    1        3.243   2.893  -0.751  0.00  0.00    +0.292 HD
ENDBRANCH   6  10
BRANCH   1  12
ATOM     12  C   LIG    1       -0.354  -0.346   0.724  0.00  0.00    +0.052 C 
BRANCH  12  13
ATOM     13  C   LIG    1       -1.312  -0.503  -0.394  0.00  0.00    +0.102 C 
BRANCH  13  14
ATOM     14  C   LIG    1       -2.691  -0.745   0.263  0.00  0.00    +0.011 C 
ATOM     15  C   LIG    1       -3.084   0.417   1.136  0.00  0.00    +0.004 C 
ENDBRANCH  13  14
BRANCH  13  16
ATOM     16  C   LIG    1       -1.377   0.493  -1.434  0.00  0.00    +0.308 C 
ATOM     17  O   LIG    1       -0.679   0.421  -2.477  0.00  0.00    -0.251 OA
BRANCH  16  18
ATOM     18  O   LIG    1       -2.228   1.582  -1.315  0.00  0.00    -0.480 OA
ATOM     19  H   LIG    1       -3.177   1.635  -1.600  0.00  0.00    +0.295 HD
ENDBRANCH  16  18
ENDBRANCH  13  16
ENDBRANCH  12  13
ENDBRANCH   1  12
TORSDOF 6
