REMARK  Name = molecules/GOTYRUGSSMKFNF-SNVBAGLBSA-N.pdb
REMARK                            x       y       z     vdW  Elec       q    Type
REMARK                         _______ _______ _______ _____ _____    ______ ____
ROOT
ATOM      1  O   LIG    1       -0.653   1.992  -0.148  0.00  0.00    -0.270 OA
ATOM      2  C   LIG    1        0.032   0.931  -0.051  0.00  0.00    +0.248 C 
ATOM      3  N   LIG    1       -0.362  -0.405   0.106  0.00  0.00    -0.282 N 
ATOM      4  C   LIG    1        0.788  -1.254   0.167  0.00  0.00    +0.146 C 
ATOM      5  C   LIG    1        1.940  -0.326   0.033  0.00  0.00    +0.003 A 
ATOM      6  C   LIG    1        3.316  -0.595   0.024  0.00  0.00    +0.030 A 
ATOM      7  C   LIG    1        4.221   0.435  -0.114  0.00  0.00    +0.023 A 
ATOM      8  C   LIG    1        3.788   1.738  -0.244  0.00  0.00    +0.003 A 
ATOM      9  C   LIG    1        2.431   1.970  -0.232  0.00  0.00    +0.013 A 
ATOM     10  C   LIG    1        1.488   0.947  -0.094  0.00  0.00    +0.043 A 
ENDROOT
BRANCH   3  11
ATOM     11  C   LIG    1       -1.759  -0.857   0.194  0.00  0.00    +0.163 C 
ATOM     12  C   LIG    1       -2.365  -0.314   1.428  0.00  0.00    +0.240 C 
ATOM     13  O   LIG    1       -2.219  -0.842   2.557  0.00  0.00    -0.273 OA
ATOM     14  N   LIG    1       -3.153   0.865   1.321  0.00  0.00    -0.255 N 
ATOM     15  H   LIG    1       -3.260   1.549   2.102  0.00  0.00    +0.158 HD
ATOM     16  C   LIG    1       -3.823   1.109   0.081  0.00  0.00    +0.219 C 
ATOM     17  O   LIG    1       -4.292   2.245  -0.157  0.00  0.00    -0.275 OA
ATOM     18  C   LIG    1       -3.907  -0.047  -0.849  0.00  0.00    +0.098 C 
ATOM     19  C   LIG    1       -2.514  -0.557  -1.057  0.00  0.00    +0.041 C 
ENDBRANCH   3  11
BRANCH   6  20
ATOM     20  N   LIG    1        3.818  -1.919   0.155  0.00  0.00    -0.358 N 
ATOM     21  H   LIG    1        4.704  -2.131   0.662  0.00  0.00    +0.142 HD
ATOM     22  H   LIG    1        3.303  -2.726  -0.261  0.00  0.00    +0.142 HD
ENDBRANCH   6  20
TORSDOF 2
