REMARK  Name = molecules/GOZBHBFUQHMKQB-UHFFFAOYSA-N.pdb
REMARK                            x       y       z     vdW  Elec       q    Type
REMARK                         _______ _______ _______ _____ _____    ______ ____
ROOT
ATOM      1  N   LIG    1        0.157  -0.005   0.109  0.00  0.00    -0.284 N 
ATOM      2  H   LIG    1       -0.260  -0.760   0.677  0.00  0.00    +0.155 HD
ATOM      3  C   LIG    1       -0.536   0.908  -0.705  0.00  0.00    +0.231 C 
ATOM      4  O   LIG    1        0.149   1.810  -1.315  0.00  0.00    -0.274 OA
ENDROOT
BRANCH   1   5
ATOM      5  C   LIG    1        1.598   0.069   0.239  0.00  0.00    +0.039 A 
ATOM      6  C   LIG    1        2.158   0.852   1.242  0.00  0.00    -0.029 A 
ATOM      7  C   LIG    1        1.259   1.596   2.183  0.00  0.00    +0.045 C 
ATOM      8  C   LIG    1        3.532   0.916   1.343  0.00  0.00    +0.008 A 
ATOM      9  C   LIG    1        4.326   0.217   0.468  0.00  0.00    -0.050 A 
ATOM     10  C   LIG    1        5.818   0.317   0.620  0.00  0.00    +0.044 C 
ATOM     11  C   LIG    1        3.745  -0.547  -0.510  0.00  0.00    +0.008 A 
ATOM     12  C   LIG    1        2.376  -0.632  -0.639  0.00  0.00    -0.029 A 
ATOM     13  C   LIG    1        1.753  -1.471  -1.713  0.00  0.00    +0.045 C 
ENDBRANCH   1   5
BRANCH   3  14
ATOM     14  C   LIG    1       -1.977   0.895  -0.892  0.00  0.00    +0.180 C 
BRANCH  14  15
ATOM     15  N   LIG    1       -2.727  -0.141  -0.280  0.00  0.00    -0.295 NA
BRANCH  15  16
ATOM     16  C   LIG    1       -4.143   0.280  -0.360  0.00  0.00    +0.081 C 
ATOM     17  C   LIG    1       -4.344   1.481   0.536  0.00  0.00    +0.020 C 
ENDBRANCH  15  16
BRANCH  15  18
ATOM     18  C   LIG    1       -2.567  -1.435  -0.896  0.00  0.00    +0.081 C 
ATOM     19  C   LIG    1       -3.304  -2.520  -0.171  0.00  0.00    +0.020 C 
ENDBRANCH  15  18
ENDBRANCH  14  15
ENDBRANCH   3  14
TORSDOF 5
