REMARK  Name = molecules/GPFAJKDEDBRFOS-FKQDBXSBSA-N.pdb
REMARK                            x       y       z     vdW  Elec       q    Type
REMARK                         _______ _______ _______ _____ _____    ______ ____
ROOT
ATOM      1  C   LIG    1       -1.789  -2.332   1.155  0.00  0.00    +0.178 C 
ATOM      2  C   LIG    1       -2.616  -1.665   2.182  0.00  0.00    +0.004 C 
ATOM      3  C   LIG    1       -3.472  -0.726   1.864  0.00  0.00    -0.023 C 
ATOM      4  C   LIG    1       -3.679  -0.270   0.506  0.00  0.00    +0.043 C 
ATOM      5  C   LIG    1       -3.832   1.212   0.310  0.00  0.00    +0.068 C 
ATOM      6  C   LIG    1       -2.571   2.013   0.440  0.00  0.00    +0.055 C 
ATOM      7  C   LIG    1       -1.358   1.290   0.061  0.00  0.00    -0.038 A 
ATOM      8  C   LIG    1       -0.087   1.822   0.101  0.00  0.00    +0.008 A 
ATOM      9  C   LIG    1        1.005   1.055  -0.257  0.00  0.00    +0.050 A 
ATOM     10  C   LIG    1        0.880  -0.283  -0.670  0.00  0.00    +0.162 A 
ATOM     11  C   LIG    1       -0.430  -0.807  -0.703  0.00  0.00    +0.167 A 
ATOM     12  O   LIG    1       -0.979  -2.054  -1.038  0.00  0.00    -0.481 OA
ATOM     13  C   LIG    1       -1.451  -0.003  -0.343  0.00  0.00    +0.012 A 
ATOM     14  N   LIG    1       -4.417   1.480  -0.982  0.00  0.00    -0.301 NA
ATOM     15  C   LIG    1       -5.775   1.941  -0.765  0.00  0.00    +0.105 C 
ATOM     16  C   LIG    1       -4.442   0.395  -1.887  0.00  0.00    +0.085 C 
ATOM     17  C   LIG    1       -3.264  -0.526  -1.861  0.00  0.00    +0.031 C 
ATOM     18  C   LIG    1       -2.708  -0.759  -0.491  0.00  0.00    +0.048 C 
ATOM     19  C   LIG    1       -2.210  -2.165  -0.257  0.00  0.00    +0.217 C 
ENDROOT
BRANCH   1  20
ATOM     20  O   LIG    1       -0.492  -1.784   1.314  0.00  0.00    -0.384 OA
ATOM     21  H   LIG    1       -0.228  -1.749   2.263  0.00  0.00    +0.210 HD
ENDBRANCH   1  20
BRANCH  10  22
ATOM     22  O   LIG    1        1.865  -1.093  -1.028  0.00  0.00    -0.487 OA
BRANCH  22  23
ATOM     23  C   LIG    1        3.173  -1.293  -1.212  0.00  0.00    +0.244 C 
BRANCH  23  24
ATOM     24  C   LIG    1        4.098  -1.188  -0.023  0.00  0.00    +0.125 C 
BRANCH  24  25
ATOM     25  N   LIG    1        4.146   0.073   0.611  0.00  0.00    -0.295 NA
ATOM     26  C   LIG    1        4.656   0.014   1.970  0.00  0.00    +0.112 C 
ATOM     27  C   LIG    1        6.160  -0.131   1.912  0.00  0.00    +0.175 C 
ATOM     28  O   LIG    1        6.734   0.928   1.246  0.00  0.00    -0.377 OA
ATOM     29  C   LIG    1        6.301   0.983  -0.070  0.00  0.00    +0.175 C 
ATOM     30  C   LIG    1        4.782   1.120  -0.145  0.00  0.00    +0.112 C 
ENDBRANCH  24  25
ENDBRANCH  23  24
ENDBRANCH  22  23
ENDBRANCH  10  22
TORSDOF 5
