REMARK  Name = molecules/GPTURHKXTUDRPC-UHFFFAOYSA-N.pdb
REMARK                            x       y       z     vdW  Elec       q    Type
REMARK                         _______ _______ _______ _____ _____    ______ ____
ROOT
ATOM      1  N   LIG    1        0.158   0.077  -0.990  0.00  0.00    -0.084 NA
ATOM      2  C   LIG    1       -0.983   0.027  -0.564  0.00  0.00    +0.117 C 
ATOM      3  C   LIG    1       -1.380  -0.958   0.446  0.00  0.00    +0.007 A 
ATOM      4  C   LIG    1       -2.398  -0.903   1.375  0.00  0.00    -0.038 A 
ATOM      5  C   LIG    1       -2.633  -1.931   2.266  0.00  0.00    +0.004 A 
ATOM      6  C   LIG    1       -1.835  -3.053   2.238  0.00  0.00    +0.000 A 
ATOM      7  C   LIG    1       -0.811  -3.118   1.310  0.00  0.00    +0.001 A 
ATOM      8  C   LIG    1       -3.360   0.246   1.530  0.00  0.00    +0.040 C 
ATOM      9  C   LIG    1       -4.074   0.544   0.242  0.00  0.00    +0.040 C 
ATOM     10  C   LIG    1       -3.249   1.234  -0.773  0.00  0.00    -0.038 A 
ATOM     11  C   LIG    1       -3.975   2.214  -1.414  0.00  0.00    +0.004 A 
ATOM     12  C   LIG    1       -3.403   2.996  -2.422  0.00  0.00    +0.000 A 
ATOM     13  C   LIG    1       -2.087   2.768  -2.768  0.00  0.00    +0.001 A 
ATOM     14  C   LIG    1       -1.351   1.778  -2.122  0.00  0.00    +0.010 A 
ATOM     15  C   LIG    1       -0.579  -2.090   0.421  0.00  0.00    +0.010 A 
ATOM     16  C   LIG    1       -1.932   1.018  -1.130  0.00  0.00    +0.007 A 
ENDROOT
BRANCH   1  17
ATOM     17  O   LIG    1        1.358  -0.401  -0.963  0.00  0.00    -0.392 OA
BRANCH  17  18
ATOM     18  C   LIG    1        2.530   0.025  -0.321  0.00  0.00    +0.278 C 
BRANCH  18  19
ATOM     19  C   LIG    1        3.701  -0.901  -0.615  0.00  0.00    +0.127 C 
BRANCH  19  20
ATOM     20  N   LIG    1        4.893  -0.468   0.038  0.00  0.00    -0.305 NA
ATOM     21  C   LIG    1        4.875  -0.573   1.463  0.00  0.00    +0.104 C 
ATOM     22  C   LIG    1        5.447   0.742  -0.476  0.00  0.00    +0.104 C 
ENDBRANCH  19  20
ENDBRANCH  18  19
ENDBRANCH  17  18
ENDBRANCH   1  17
TORSDOF 4
