REMARK  Name = molecules/GPUGLFZXYGTLBI-AYBZRNKSSA-N.pdb
REMARK                            x       y       z     vdW  Elec       q    Type
REMARK                         _______ _______ _______ _____ _____    ______ ____
ROOT
ATOM      1  C   LIG    1       -2.956  -0.830  -1.349  0.00  0.00    +0.005 C 
ATOM      2  C   LIG    1       -2.935  -0.512   0.134  0.00  0.00    -0.041 C 
ATOM      3  C   LIG    1       -4.097  -1.161   0.856  0.00  0.00    +0.010 C 
ATOM      4  C   LIG    1       -1.636  -0.986   0.680  0.00  0.00    -0.068 C 
ATOM      5  N   LIG    1       -0.499  -0.174   0.519  0.00  0.00    +0.379 N 
ATOM      6  C   LIG    1        0.030   0.119   1.866  0.00  0.00    -0.092 C 
ATOM      7  C   LIG    1       -0.642   1.030  -0.218  0.00  0.00    -0.071 C 
ATOM      8  C   LIG    1       -1.958   1.322  -0.836  0.00  0.00    -0.021 C 
ATOM      9  C   LIG    1       -3.092   0.975   0.101  0.00  0.00    -0.030 C 
ATOM     10  C   LIG    1       -3.070   1.673   1.397  0.00  0.00    +0.011 C 
ATOM     11  C   LIG    1       -4.380   1.319  -0.619  0.00  0.00    +0.011 C 
ATOM     12  C   LIG    1       -2.269   0.345  -1.979  0.00  0.00    +0.003 C 
ENDROOT
BRANCH   5  13
ATOM     13  C   LIG    1        0.580  -0.936  -0.116  0.00  0.00    -0.077 C 
BRANCH  13  14
ATOM     14  C   LIG    1        1.907  -0.263   0.125  0.00  0.00    -0.036 C 
BRANCH  14  15
ATOM     15  C   LIG    1        3.043  -1.040  -0.532  0.00  0.00    -0.078 C 
BRANCH  15  16
ATOM     16  N   LIG    1        4.306  -0.412  -0.311  0.00  0.00    +0.374 N 
ATOM     17  C   LIG    1        4.962  -0.850   0.904  0.00  0.00    -0.093 C 
ATOM     18  C   LIG    1        4.218   1.034  -0.244  0.00  0.00    -0.093 C 
ATOM     19  C   LIG    1        5.239  -0.717  -1.407  0.00  0.00    -0.093 C 
ENDBRANCH  15  16
ENDBRANCH  14  15
ENDBRANCH  13  14
ENDBRANCH   5  13
TORSDOF 4
