REMARK  Name = molecules/GPUVGQIASQNZET-CCEZHUSRSA-N.pdb
REMARK                            x       y       z     vdW  Elec       q    Type
REMARK                         _______ _______ _______ _____ _____    ______ ____
ROOT
ATOM      1  C   LIG    1       -0.893  -1.829   0.154  0.00  0.00    +0.168 C 
ATOM      2  C   LIG    1       -1.813  -1.368   0.967  0.00  0.00    +0.156 C 
ATOM      3  N   LIG    1       -2.698  -2.275   1.677  0.00  0.00    -0.197 N 
ATOM      4  C   LIG    1       -3.308  -1.874   2.930  0.00  0.00    +0.158 C 
ATOM      5  S   LIG    1       -2.978  -3.845   1.029  0.00  0.00    +0.075 S 
ATOM      6  O   LIG    1       -3.139  -4.795   2.195  0.00  0.00    -0.150 OA
ATOM      7  O   LIG    1       -4.200  -3.865   0.152  0.00  0.00    -0.150 OA
ATOM      8  C   LIG    1       -1.544  -4.257   0.133  0.00  0.00    +0.119 A 
ATOM      9  C   LIG    1       -1.302  -5.528  -0.208  0.00  0.00    +0.029 A 
ATOM     10  C   LIG    1       -0.189  -5.838  -1.001  0.00  0.00    +0.002 A 
ATOM     11  C   LIG    1        0.630  -4.833  -1.411  0.00  0.00    +0.001 A 
ATOM     12  C   LIG    1        0.388  -3.513  -1.060  0.00  0.00    +0.013 A 
ATOM     13  C   LIG    1       -0.732  -3.234  -0.266  0.00  0.00    +0.046 A 
ENDROOT
BRANCH   2  14
ATOM     14  C   LIG    1       -1.986   0.026   1.330  0.00  0.00    +0.269 C 
ATOM     15  O   LIG    1       -2.893   0.364   2.178  0.00  0.00    -0.268 OA
ATOM     16  N   LIG    1       -1.243   1.097   0.842  0.00  0.00    -0.265 N 
ATOM     17  H   LIG    1       -0.486   1.095   0.171  0.00  0.00    +0.157 HD
BRANCH  16  18
ATOM     18  C   LIG    1       -1.561   2.429   1.334  0.00  0.00    +0.125 A 
ATOM     19  N   LIG    1       -2.557   2.528   2.222  0.00  0.00    -0.240 NA
ATOM     20  C   LIG    1       -2.963   3.698   2.764  0.00  0.00    +0.113 A 
ATOM     21  C   LIG    1       -2.295   4.829   2.361  0.00  0.00    +0.020 A 
ATOM     22  C   LIG    1       -1.256   4.745   1.439  0.00  0.00    +0.005 A 
ATOM     23  C   LIG    1       -0.865   3.527   0.901  0.00  0.00    +0.044 A 
ENDBRANCH  16  18
ENDBRANCH   2  14
BRANCH   1  24
ATOM     24  O   LIG    1        0.031  -0.909  -0.405  0.00  0.00    -0.420 OA
BRANCH  24  25
ATOM     25  C   LIG    1        1.309  -0.820   0.163  0.00  0.00    +0.337 C 
ATOM     26  O   LIG    1        1.570  -1.552   1.133  0.00  0.00    -0.245 OA
BRANCH  25  27
ATOM     27  C   LIG    1        2.334   0.090  -0.335  0.00  0.00    +0.092 C 
ATOM     28  C   LIG    1        2.109   0.893  -1.370  0.00  0.00    +0.015 C 
BRANCH  28  29
ATOM     29  C   LIG    1        3.079   1.817  -1.914  0.00  0.00    -0.025 A 
ATOM     30  C   LIG    1        4.357   2.001  -1.447  0.00  0.00    +0.008 A 
ATOM     31  C   LIG    1        5.241   2.917  -2.030  0.00  0.00    +0.001 A 
ATOM     32  C   LIG    1        4.842   3.674  -3.110  0.00  0.00    +0.000 A 
ATOM     33  C   LIG    1        3.559   3.493  -3.581  0.00  0.00    +0.001 A 
ATOM     34  C   LIG    1        2.696   2.588  -3.001  0.00  0.00    +0.008 A 
ENDBRANCH  28  29
ENDBRANCH  25  27
ENDBRANCH  24  25
ENDBRANCH   1  24
TORSDOF 6
