REMARK  Name = molecules/GPXBXXGIAQBQNI-UHFFFAOYSA-N.pdb
REMARK                            x       y       z     vdW  Elec       q    Type
REMARK                         _______ _______ _______ _____ _____    ______ ____
ROOT
ATOM      1  C   LIG    1       -0.552  -0.052   0.287  0.00  0.00    +0.201 C 
ATOM      2  O   LIG    1       -1.280   0.133   1.327  0.00  0.00    -0.286 OA
ENDROOT
BRANCH   1   3
ATOM      3  C   LIG    1       -1.130   0.047  -1.040  0.00  0.00    +0.049 A 
ATOM      4  C   LIG    1       -2.507   0.141  -1.265  0.00  0.00    +0.030 A 
ATOM      5  C   LIG    1       -3.579   0.151  -0.404  0.00  0.00    +0.022 A 
ATOM      6  C   LIG    1       -4.867   0.254  -0.902  0.00  0.00    +0.001 A 
ATOM      7  C   LIG    1       -4.994   0.343  -2.264  0.00  0.00    +0.121 A 
ATOM      8  N   LIG    1       -3.922   0.332  -3.095  0.00  0.00    -0.237 NA
ATOM      9  C   LIG    1       -2.666   0.231  -2.629  0.00  0.00    +0.139 A 
ATOM     10  N   LIG    1       -1.447   0.193  -3.196  0.00  0.00    -0.345 N 
ATOM     11  H   LIG    1       -1.209   0.238  -4.211  0.00  0.00    +0.167 HD
ATOM     12  C   LIG    1       -0.496   0.082  -2.259  0.00  0.00    +0.096 A 
BRANCH   6  13
ATOM     13  C   LIG    1       -5.980   0.239   0.049  0.00  0.00    -0.016 A 
ATOM     14  C   LIG    1       -5.863  -0.500   1.230  0.00  0.00    +0.010 A 
ATOM     15  C   LIG    1       -6.886  -0.546   2.151  0.00  0.00    +0.020 A 
ATOM     16  C   LIG    1       -8.067   0.139   1.942  0.00  0.00    +0.041 A 
ATOM     17 CL   LIG    1       -9.358   0.067   3.145  0.00  0.00    -0.084 Cl
ATOM     18  C   LIG    1       -8.198   0.869   0.787  0.00  0.00    +0.020 A 
ATOM     19  C   LIG    1       -7.150   0.914  -0.157  0.00  0.00    +0.010 A 
ENDBRANCH   6  13
ENDBRANCH   1   3
BRANCH   1  20
ATOM     20  C   LIG    1        0.855  -0.361   0.548  0.00  0.00    +0.094 A 
ATOM     21  C   LIG    1        1.119  -1.543   1.256  0.00  0.00    +0.137 A 
ATOM     22  F   LIG    1        0.081  -2.339   1.619  0.00  0.00    -0.205 F 
ATOM     23  C   LIG    1        2.416  -1.861   1.560  0.00  0.00    +0.041 A 
ATOM     24  C   LIG    1        3.476  -1.027   1.177  0.00  0.00    +0.030 A 
ATOM     25  C   LIG    1        3.196   0.115   0.490  0.00  0.00    +0.084 A 
ATOM     26  C   LIG    1        1.877   0.467   0.164  0.00  0.00    +0.159 A 
ATOM     27  F   LIG    1        1.599   1.623  -0.520  0.00  0.00    -0.203 F 
BRANCH  25  28
ATOM     28  N   LIG    1        4.173   1.040   0.056  0.00  0.00    -0.218 N 
ATOM     29  H   LIG    1        4.001   1.466  -0.918  0.00  0.00    +0.173 HD
BRANCH  28  30
ATOM     30  S   LIG    1        5.566   1.534   0.874  0.00  0.00    +0.043 S 
ATOM     31  O   LIG    1        5.147   2.196   2.198  0.00  0.00    -0.155 OA
ATOM     32  O   LIG    1        6.215   2.672   0.093  0.00  0.00    -0.155 OA
BRANCH  30  33
ATOM     33  C   LIG    1        6.793   0.324   1.213  0.00  0.00    +0.188 C 
BRANCH  33  34
ATOM     34  C   LIG    1        7.444  -0.278   0.015  0.00  0.00    +0.021 C 
ATOM     35  C   LIG    1        6.560  -0.943  -0.980  0.00  0.00    +0.005 C 
ENDBRANCH  33  34
ENDBRANCH  30  33
ENDBRANCH  28  30
ENDBRANCH  25  28
ENDBRANCH   1  20
TORSDOF 7
