REMARK  Name = molecules/GPXLMGHLHQJAGZ-JTDSTZFVSA-N.pdb
REMARK                            x       y       z     vdW  Elec       q    Type
REMARK                         _______ _______ _______ _____ _____    ______ ____
ROOT
ATOM      1  N   LIG    1       -0.145  -1.113  -0.540  0.00  0.00    -0.298 N 
ATOM      2  H   LIG    1       -0.264  -0.148  -0.191  0.00  0.00    +0.150 HD
ATOM      3  C   LIG    1        1.079  -1.798  -0.639  0.00  0.00    +0.249 C 
ATOM      4  O   LIG    1        0.981  -2.942  -1.129  0.00  0.00    -0.270 OA
ENDROOT
BRANCH   1  11
ATOM      5  C   LIG    1       -2.617  -1.405  -0.351  0.00  0.00    +0.165 C 
ATOM      6  S   LIG    1       -2.663  -0.820   1.353  0.00  0.00    -0.127 S 
ATOM      7  C   LIG    1       -3.642   0.667   0.870  0.00  0.00    +0.042 C 
ATOM      8  C   LIG    1       -3.605   1.708   1.929  0.00  0.00    +0.025 C 
ATOM      9  C   LIG    1       -5.069   0.231   0.656  0.00  0.00    +0.025 C 
ATOM     10  CA  LIG    1       -2.930   1.008  -0.388  0.00  0.00    +0.201 C 
ATOM     11  CA  LIG    1       -1.353  -1.771  -0.983  0.00  0.00    +0.190 C 
ATOM     12  C   LIG    1       -1.949  -0.925  -2.095  0.00  0.00    +0.240 C 
ATOM     13  O   LIG    1       -1.957  -0.922  -3.338  0.00  0.00    -0.273 OA
ATOM     14  N   LIG    1       -2.492  -0.139  -1.063  0.00  0.00    -0.271 N 
BRANCH  10  15
ATOM     15  C   LIG    1       -3.747   1.869  -1.285  0.00  0.00    +0.327 C 
ATOM     16  O   LIG    1       -3.958   1.532  -2.462  0.00  0.00    -0.249 OA
BRANCH  15  17
ATOM     17  OXT LIG    1       -4.264   3.043  -0.795  0.00  0.00    -0.479 OA
ATOM     18  HXT LIG    1       -5.242   3.291  -0.793  0.00  0.00    +0.295 HD
ENDBRANCH  15  17
ENDBRANCH  10  15
ENDBRANCH   1  11
BRANCH   3  19
ATOM     19  C   LIG    1        2.290  -1.141  -0.188  0.00  0.00    +0.086 A 
ATOM     20  C   LIG    1        2.221  -0.271   0.906  0.00  0.00    +0.133 A 
ATOM     21  C   LIG    1        3.366   0.371   1.290  0.00  0.00    +0.047 A 
ATOM     22  C   LIG    1        4.571   0.203   0.657  0.00  0.00    +0.012 A 
ATOM     23  C   LIG    1        4.598  -0.661  -0.414  0.00  0.00    -0.017 A 
ATOM     24  C   LIG    1        5.805  -0.854  -1.093  0.00  0.00    +0.008 A 
ATOM     25  C   LIG    1        5.871  -1.701  -2.173  0.00  0.00    +0.001 A 
ATOM     26  C   LIG    1        4.757  -2.378  -2.614  0.00  0.00    +0.001 A 
ATOM     27  C   LIG    1        3.554  -2.198  -1.953  0.00  0.00    +0.009 A 
ATOM     28  C   LIG    1        3.487  -1.355  -0.875  0.00  0.00    -0.002 A 
BRANCH  20  29
ATOM     29  O   LIG    1        1.014  -0.112   1.538  0.00  0.00    -0.491 OA
BRANCH  29  30
ATOM     30  C   LIG    1        0.861   0.741   2.631  0.00  0.00    +0.226 C 
ATOM     31  C   LIG    1        1.156   2.182   2.369  0.00  0.00    +0.048 C 
ENDBRANCH  29  30
ENDBRANCH  20  29
ENDBRANCH   3  19
TORSDOF 6
