REMARK  Name = molecules/GQJSFWYQKNQCIK-APFRJGHOSA-N.pdb
REMARK                            x       y       z     vdW  Elec       q    Type
REMARK                         _______ _______ _______ _____ _____    ______ ____
ROOT
ATOM      1  C   LIG    1       -5.391  -1.288  -1.526  0.00  0.00    +0.043 C 
ATOM      2  C   LIG    1       -5.020  -0.386  -0.407  0.00  0.00    -0.040 C 
ATOM      3  C   LIG    1       -6.034   0.104   0.542  0.00  0.00    -0.041 C 
ATOM      4  C   LIG    1       -5.632   0.685   1.836  0.00  0.00    +0.036 C 
ATOM      5  C   LIG    1       -4.147   0.547   2.089  0.00  0.00    +0.013 C 
ATOM      6  C   LIG    1       -3.336   0.897   0.859  0.00  0.00    +0.024 C 
ATOM      7  C   LIG    1       -1.908   0.539   1.139  0.00  0.00    +0.010 C 
ATOM      8  C   LIG    1       -1.205   1.403   2.125  0.00  0.00    +0.009 C 
ATOM      9  C   LIG    1        0.264   1.032   1.889  0.00  0.00    +0.046 C 
ATOM     10  C   LIG    1        0.320   0.409   0.495  0.00  0.00    +0.190 C 
ATOM     11  C   LIG    1       -1.027   0.744  -0.100  0.00  0.00    +0.027 C 
ATOM     12  C   LIG    1       -0.986   2.183  -0.528  0.00  0.00    +0.019 C 
ATOM     13  C   LIG    1       -1.485  -0.169  -1.141  0.00  0.00    -0.016 C 
ATOM     14  C   LIG    1       -2.756  -0.512  -1.203  0.00  0.00    +0.000 C 
ATOM     15  C   LIG    1       -7.319   0.031   0.257  0.00  0.00    +0.050 C 
ATOM     16  C   LIG    1       -7.706  -0.547  -1.023  0.00  0.00    +0.157 C 
ATOM     17  O   LIG    1       -8.746  -0.193  -1.620  0.00  0.00    -0.293 OA
ATOM     18  C   LIG    1       -3.758  -0.020  -0.264  0.00  0.00    -0.041 C 
ATOM     19  C   LIG    1       -6.844  -1.580  -1.631  0.00  0.00    +0.083 C 
ENDROOT
BRANCH  10  20
ATOM     20  O   LIG    1        1.379   1.009  -0.182  0.00  0.00    -0.430 OA
BRANCH  20  21
ATOM     21  C   LIG    1        2.400   0.157  -0.664  0.00  0.00    +0.510 C 
ATOM     22  O   LIG    1        2.300  -1.075  -0.459  0.00  0.00    -0.203 OA
BRANCH  21  23
ATOM     23  O   LIG    1        3.481   0.648  -1.342  0.00  0.00    -0.434 OA
BRANCH  23  24
ATOM     24  C   LIG    1        4.511  -0.155  -1.825  0.00  0.00    +0.239 C 
BRANCH  24  25
ATOM     25  C   LIG    1        5.222  -0.819  -0.668  0.00  0.00    +0.027 C 
ATOM     26  C   LIG    1        5.646   0.282   0.265  0.00  0.00    +0.007 C 
ATOM     27  C   LIG    1        7.118   0.588   0.084  0.00  0.00    +0.000 C 
ATOM     28  C   LIG    1        7.819  -0.672   0.610  0.00  0.00    +0.000 C 
ATOM     29  C   LIG    1        7.568  -1.749  -0.383  0.00  0.00    +0.000 C 
ATOM     30  C   LIG    1        6.331  -1.678  -1.165  0.00  0.00    +0.007 C 
ENDBRANCH  24  25
ENDBRANCH  23  24
ENDBRANCH  21  23
ENDBRANCH  20  21
ENDBRANCH  10  20
TORSDOF 5
