REMARK  Name = molecules/GQPLMRYTRLFLPF-UHFFFAOYSA-N.pdb
REMARK                            x       y       z     vdW  Elec       q    Type
REMARK                         _______ _______ _______ _____ _____    ______ ____
ROOT
ATOM      1  N   LIG    1       -1.190   0.007   0.000  0.00  0.00    +0.012 NA
ATOM      2  N   LIG    1       -0.067   0.008   0.000  0.00  0.00    +0.067 NA
ATOM      3  O   LIG    1        1.257  -0.015   0.000  0.00  0.00    -0.079 OA
ENDROOT
TORSDOF 0
