REMARK  Name = molecules/GQSGZTBDVNUIQS-DGCLKSJQSA-N.pdb
REMARK                            x       y       z     vdW  Elec       q    Type
REMARK                         _______ _______ _______ _____ _____    ______ ____
ROOT
ATOM      1  O   LIG    1        1.154  -0.238  -0.199  0.00  0.00    -0.458 OA
ENDROOT
BRANCH   1   2
ATOM      2  C   LIG    1       -0.217  -0.438   0.046  0.00  0.00    +0.178 C 
ATOM      3  C   LIG    1       -0.782   0.888   0.523  0.00  0.00    +0.051 C 
ATOM      4  C   LIG    1       -2.229   0.765   0.940  0.00  0.00    -0.031 C 
ATOM      5  C   LIG    1       -2.296   0.359   2.381  0.00  0.00    +0.011 C 
ATOM      6  C   LIG    1       -2.866   2.126   0.748  0.00  0.00    +0.011 C 
ATOM      7  C   LIG    1       -2.984  -0.202   0.042  0.00  0.00    +0.010 C 
ATOM      8  C   LIG    1       -2.284  -0.165  -1.306  0.00  0.00    -0.010 C 
ATOM      9  C   LIG    1       -3.097  -0.850  -2.376  0.00  0.00    +0.007 C 
ATOM     10  C   LIG    1       -0.989  -0.928  -1.119  0.00  0.00    +0.048 C 
ENDBRANCH   1   2
BRANCH   1  11
ATOM     11  C   LIG    1        2.174  -0.821   0.499  0.00  0.00    +0.341 C 
ATOM     12  O   LIG    1        1.863  -1.598   1.437  0.00  0.00    -0.245 OA
BRANCH  11  13
ATOM     13  C   LIG    1        3.591  -0.597   0.224  0.00  0.00    +0.077 A 
ATOM     14  C   LIG    1        4.570  -1.218   0.969  0.00  0.00    +0.125 A 
ATOM     15  N   LIG    1        5.879  -1.042   0.751  0.00  0.00    -0.262 NA
ATOM     16  C   LIG    1        6.327  -0.234  -0.224  0.00  0.00    +0.111 A 
ATOM     17  C   LIG    1        5.373   0.410  -0.995  0.00  0.00    +0.020 A 
ATOM     18  C   LIG    1        4.022   0.239  -0.784  0.00  0.00    +0.018 A 
ENDBRANCH  11  13
ENDBRANCH   1  11
TORSDOF 3
