REMARK  Name = molecules/GROJOWHVXQYQGN-KGLIPLIRSA-N.pdb
REMARK                            x       y       z     vdW  Elec       q    Type
REMARK                         _______ _______ _______ _____ _____    ______ ____
ROOT
ATOM      1  C   LIG    1       -1.759   1.009   0.693  0.00  0.00    +0.152 C 
ENDROOT
BRANCH   1   2
ATOM      2  C   LIG    1       -0.553   1.017   1.543  0.00  0.00    +0.034 C 
BRANCH   2   3
ATOM      3  C   LIG    1        0.795   0.860   1.023  0.00  0.00    +0.006 C 
BRANCH   3   4
ATOM      4  C   LIG    1        1.261  -0.342   0.312  0.00  0.00    -0.011 C 
BRANCH   4   5
ATOM      5  C   LIG    1        1.161  -1.620   1.050  0.00  0.00    -0.000 C 
ATOM      6  C   LIG    1        1.967  -1.644   2.329  0.00  0.00    +0.004 C 
ENDBRANCH   4   5
BRANCH   4   7
ATOM      7  C   LIG    1        2.764  -0.036  -0.014  0.00  0.00    +0.003 C 
BRANCH   7   8
ATOM      8  C   LIG    1        3.358  -1.192  -0.746  0.00  0.00    +0.000 C 
BRANCH   8   9
ATOM      9  C   LIG    1        4.812  -0.915  -1.093  0.00  0.00    -0.003 C 
ATOM     10  C   LIG    1        4.921   0.313  -1.972  0.00  0.00    +0.004 C 
ENDBRANCH   8   9
ENDBRANCH   7   8
ENDBRANCH   4   7
ENDBRANCH   3   4
ENDBRANCH   2   3
ENDBRANCH   1   2
BRANCH   1  11
ATOM     11  O   LIG    1       -2.919   1.254   1.491  0.00  0.00    -0.213 OA
BRANCH  11  12
ATOM     12  S   LIG    1       -3.703   2.631   1.086  0.00  0.00    +0.208 S 
ATOM     13  O   LIG    1       -3.691   3.562   2.285  0.00  0.00    -0.118 OA
ATOM     14  O   LIG    1       -3.120   3.395  -0.047  0.00  0.00    -0.118 OA
BRANCH  12  15
ATOM     15  O   LIG    1       -5.305   2.288   0.720  0.00  0.00    -0.231 OA
ATOM     16  H   LIG    1       -5.561   2.621  -0.194  0.00  0.00    +0.247 HD
ENDBRANCH  12  15
ENDBRANCH  11  12
ENDBRANCH   1  11
BRANCH   1  17
ATOM     17  C   LIG    1       -2.045  -0.360   0.131  0.00  0.00    +0.037 C 
BRANCH  17  18
ATOM     18  C   LIG    1       -3.324  -0.323  -0.735  0.00  0.00    -0.015 C 
ATOM     19  C   LIG    1       -3.592  -1.716  -1.288  0.00  0.00    +0.007 C 
ATOM     20  C   LIG    1       -3.200   0.645  -1.875  0.00  0.00    +0.007 C 
ENDBRANCH  17  18
ENDBRANCH   1  17
TORSDOF 12
