REMARK  Name = molecules/GSEJCLTVZPLZKY-UHFFFAOYSA-N.pdb
REMARK                            x       y       z     vdW  Elec       q    Type
REMARK                         _______ _______ _______ _____ _____    ______ ____
ROOT
ATOM      1  N   LIG    1       -0.036  -0.216  -0.045  0.00  0.00    -0.296 NA
ENDROOT
BRANCH   1   2
ATOM      2  C   LIG    1       -0.535   0.626  -1.003  0.00  0.00    +0.112 C 
BRANCH   2   3
ATOM      3  C   LIG    1       -0.473   2.113  -0.844  0.00  0.00    +0.171 C 
BRANCH   3   4
ATOM      4  O   LIG    1       -1.131   2.576   0.288  0.00  0.00    -0.394 OA
ATOM      5  H   LIG    1       -1.147   3.562   0.239  0.00  0.00    +0.209 HD
ENDBRANCH   3   4
ENDBRANCH   2   3
ENDBRANCH   1   2
BRANCH   1   6
ATOM      6  C   LIG    1        1.363  -0.342   0.154  0.00  0.00    +0.112 C 
BRANCH   6   7
ATOM      7  C   LIG    1        2.141   0.799   0.685  0.00  0.00    +0.171 C 
BRANCH   7   8
ATOM      8  O   LIG    1        3.503   0.361   0.799  0.00  0.00    -0.394 OA
ATOM      9  H   LIG    1        3.426  -0.481   1.329  0.00  0.00    +0.209 HD
ENDBRANCH   7   8
ENDBRANCH   6   7
ENDBRANCH   1   6
BRANCH   1  10
ATOM     10  C   LIG    1       -0.646  -1.500   0.122  0.00  0.00    +0.112 C 
BRANCH  10  11
ATOM     11  C   LIG    1       -2.005  -1.589   0.648  0.00  0.00    +0.171 C 
BRANCH  11  12
ATOM     12  O   LIG    1       -2.392  -2.953   0.722  0.00  0.00    -0.394 OA
ATOM     13  H   LIG    1       -1.936  -3.364  -0.090  0.00  0.00    +0.209 HD
ENDBRANCH  11  12
ENDBRANCH  10  11
ENDBRANCH   1  10
TORSDOF 9
