REMARK  Name = molecules/GSNHKUDZZFZSJB-QUMGSSFMSA-N.pdb
REMARK                            x       y       z     vdW  Elec       q    Type
REMARK                         _______ _______ _______ _____ _____    ______ ____
ROOT
ATOM      1  C   LIG    1       -2.077  -0.848   0.324  0.00  0.00    +0.104 C 
ENDROOT
BRANCH   1   2
ATOM      2  C   LIG    1       -2.274  -2.307   0.292  0.00  0.00    -0.027 A 
ATOM      3  C   LIG    1       -3.023  -2.937   1.235  0.00  0.00    +0.005 A 
ATOM      4  C   LIG    1       -3.192  -4.301   1.183  0.00  0.00    +0.000 A 
ATOM      5  C   LIG    1       -2.600  -5.053   0.167  0.00  0.00    +0.000 A 
ATOM      6  C   LIG    1       -1.835  -4.426  -0.800  0.00  0.00    +0.000 A 
ATOM      7  C   LIG    1       -1.682  -3.055  -0.723  0.00  0.00    +0.005 A 
ENDBRANCH   1   2
BRANCH   1   9
ATOM      8  C   LIG    1       -3.838   0.754  -0.319  0.00  0.00    +0.217 C 
ATOM      9  N   LIG    1       -3.360  -0.223   0.581  0.00  0.00    -0.308 N 
ATOM     10  H   LIG    1       -3.930  -0.478   1.408  0.00  0.00    +0.149 HD
ATOM     11  O   LIG    1       -3.165   1.094  -1.342  0.00  0.00    -0.275 OA
BRANCH   8  19
ATOM     12  C   LIG    1       -5.166   2.142   1.250  0.00  0.00    +0.018 C 
ATOM     13  C   LIG    1       -6.602   2.524   1.544  0.00  0.00    +0.076 C 
ATOM     14  C   LIG    1       -7.288   3.071   0.299  0.00  0.00    +0.249 C 
ATOM     15  F   LIG    1       -8.153   4.087   0.667  0.00  0.00    -0.206 F 
ATOM     16  F   LIG    1       -8.049   2.073  -0.263  0.00  0.00    -0.206 F 
ATOM     17  C   LIG    1       -6.220   3.586  -0.632  0.00  0.00    +0.076 C 
ATOM     18  C   LIG    1       -5.444   2.422  -1.204  0.00  0.00    +0.018 C 
ATOM     19  C   LIG    1       -5.140   1.417  -0.099  0.00  0.00    +0.075 C 
ENDBRANCH   8  19
ENDBRANCH   1   9
BRANCH   1  20
ATOM     20  C   LIG    1       -1.141  -0.404   1.436  0.00  0.00    +0.042 C 
BRANCH  20  21
ATOM     21  C   LIG    1        0.252  -1.028   1.238  0.00  0.00    +0.087 C 
BRANCH  21  22
ATOM     22  N   LIG    1        0.852  -0.685   0.042  0.00  0.00    -0.296 NA
ATOM     23  C   LIG    1        1.289   0.628  -0.233  0.00  0.00    +0.059 C 
ATOM     24  C   LIG    1        2.639   1.008   0.303  0.00  0.00    +0.044 C 
ATOM     25  C   LIG    1        3.471  -0.182   0.729  0.00  0.00    +0.093 C 
ATOM     26  C   LIG    1        3.195  -1.428  -0.047  0.00  0.00    +0.044 C 
ATOM     27  C   LIG    1        1.486   0.527  -1.763  0.00  0.00    +0.020 C 
ATOM     28  C   LIG    1        1.825  -0.923  -2.012  0.00  0.00    +0.020 C 
ATOM     29  C   LIG    1        1.801  -1.505  -0.590  0.00  0.00    +0.059 C 
BRANCH  25  30
ATOM     30  N   LIG    1        4.863   0.118   0.891  0.00  0.00    -0.312 N 
ATOM     31  C   LIG    1        5.575   0.144   2.063  0.00  0.00    +0.131 A 
ATOM     32  C   LIG    1        4.988  -0.149   3.409  0.00  0.00    +0.088 C 
ATOM     33  N   LIG    1        6.844   0.465   1.808  0.00  0.00    -0.135 NA
ATOM     34  N   LIG    1        6.944   0.640   0.511  0.00  0.00    -0.134 NA
ATOM     35  C   LIG    1        5.721   0.427  -0.067  0.00  0.00    +0.136 A 
BRANCH  35  36
ATOM     36  C   LIG    1        5.538   0.556  -1.512  0.00  0.00    +0.051 C 
ATOM     37  C   LIG    1        6.107   1.884  -2.028  0.00  0.00    +0.015 C 
ATOM     38  C   LIG    1        6.428  -0.517  -2.157  0.00  0.00    +0.015 C 
ENDBRANCH  35  36
ENDBRANCH  25  30
ENDBRANCH  21  22
ENDBRANCH  20  21
ENDBRANCH   1  20
TORSDOF 8
