REMARK  Name = molecules/GTFUITFQDGVJSK-XGXHKTLJSA-N.pdb
REMARK                            x       y       z     vdW  Elec       q    Type
REMARK                         _______ _______ _______ _____ _____    ______ ____
ROOT
ATOM      1  C   LIG    1        2.034  -0.545   1.460  0.00  0.00    +0.015 C 
ATOM      2  C   LIG    1        1.741   0.114   0.148  0.00  0.00    +0.007 C 
ATOM      3  C   LIG    1        1.125   1.451   0.330  0.00  0.00    +0.010 C 
ATOM      4  C   LIG    1       -0.284   1.229   0.896  0.00  0.00    +0.005 C 
ATOM      5  C   LIG    1       -1.111   0.397  -0.089  0.00  0.00    -0.000 C 
ATOM      6  C   LIG    1       -2.535   0.383   0.268  0.00  0.00    +0.019 C 
ATOM      7  C   LIG    1       -3.275  -0.837  -0.054  0.00  0.00    -0.063 C 
ATOM      8  C   LIG    1       -4.599  -0.795   0.014  0.00  0.00    +0.045 C 
ATOM      9  C   LIG    1       -5.202   0.474   0.408  0.00  0.00    +0.156 C 
ATOM     10  O   LIG    1       -6.346   0.489   0.928  0.00  0.00    -0.293 OA
ATOM     11  C   LIG    1       -4.525   1.782   0.225  0.00  0.00    +0.079 C 
ATOM     12  C   LIG    1       -2.629  -2.117  -0.453  0.00  0.00    +0.031 C 
ATOM     13  C   LIG    1       -1.291  -1.827  -1.117  0.00  0.00    +0.008 C 
ATOM     14  C   LIG    1       -3.226   1.537  -0.471  0.00  0.00    +0.016 C 
ATOM     15  C   LIG    1       -0.478  -1.000  -0.154  0.00  0.00    -0.003 C 
ATOM     16  C   LIG    1        2.994   0.109  -0.687  0.00  0.00    +0.129 C 
ATOM     17  C   LIG    1        3.123  -1.369  -1.027  0.00  0.00    +0.043 C 
ATOM     18  C   LIG    1        1.730  -1.957  -0.906  0.00  0.00    +0.008 C 
ATOM     19  C   LIG    1        0.865  -0.778  -0.743  0.00  0.00    +0.002 C 
ENDROOT
BRANCH  16  20
ATOM     20  C   LIG    1        4.179   0.640  -0.006  0.00  0.00    +0.162 C 
ATOM     21  O   LIG    1        4.543   0.180   1.040  0.00  0.00    -0.295 OA
ATOM     22  C   LIG    1        4.941   1.762  -0.618  0.00  0.00    +0.089 C 
ENDBRANCH  16  20
BRANCH  16  23
ATOM     23  O   LIG    1        2.723   0.763  -1.890  0.00  0.00    -0.381 OA
ATOM     24  H   LIG    1        3.417   0.628  -2.572  0.00  0.00    +0.211 HD
ENDBRANCH  16  23
TORSDOF 2
