REMARK  Name = molecules/GTQLIPQFXVKRKJ-UNSMHXHVSA-N.pdb
REMARK                            x       y       z     vdW  Elec       q    Type
REMARK                         _______ _______ _______ _____ _____    ______ ____
ROOT
ATOM      1  C   LIG    1       -0.790  -0.219  -0.925  0.00  0.00    +0.122 C 
ATOM      2  C   LIG    1       -0.743  -0.781   0.483  0.00  0.00    +0.036 C 
ATOM      3  C   LIG    1        0.480  -0.322   1.249  0.00  0.00    +0.028 C 
ATOM      4  C   LIG    1        0.636   1.196   1.061  0.00  0.00    +0.058 C 
ATOM      5  C   LIG    1       -0.670   1.786   1.589  0.00  0.00    +0.020 C 
ATOM      6  C   LIG    1       -1.502   1.849   0.341  0.00  0.00    +0.021 C 
ATOM      7  N   LIG    1        0.705   1.475  -0.324  0.00  0.00    -0.292 NA
ATOM      8  C   LIG    1       -0.652   1.307  -0.769  0.00  0.00    +0.072 C 
ENDROOT
BRANCH   2   9
ATOM      9  C   LIG    1       -0.942  -2.225   0.550  0.00  0.00    -0.043 A 
ATOM     10  C   LIG    1       -2.019  -2.761   1.223  0.00  0.00    +0.007 A 
ATOM     11  C   LIG    1       -2.252  -4.109   1.317  0.00  0.00    +0.038 A 
ATOM     12  C   LIG    1       -1.401  -5.005   0.728  0.00  0.00    +0.123 A 
ATOM     13  F   LIG    1       -1.593  -6.354   0.795  0.00  0.00    -0.205 F 
ATOM     14  C   LIG    1       -0.309  -4.506   0.043  0.00  0.00    +0.038 A 
ATOM     15  C   LIG    1       -0.094  -3.145  -0.038  0.00  0.00    +0.007 A 
ENDBRANCH   2   9
BRANCH   1  16
ATOM     16  C   LIG    1        0.398  -0.613  -1.707  0.00  0.00    +0.312 C 
ATOM     17  O   LIG    1        0.249  -1.209  -2.788  0.00  0.00    -0.250 OA
BRANCH  16  18
ATOM     18  O   LIG    1        1.660  -0.327  -1.250  0.00  0.00    -0.468 OA
ATOM     19  C   LIG    1        2.853  -0.668  -1.933  0.00  0.00    +0.280 C 
ENDBRANCH  16  18
ENDBRANCH   1  16
BRANCH   7  20
ATOM     20  C   LIG    1        1.389   2.618  -0.769  0.00  0.00    +0.112 C 
BRANCH  20  21
ATOM     21  C   LIG    1        0.942   3.922  -0.273  0.00  0.00    -0.005 C 
ATOM     22  C   LIG    1        0.511   4.862  -1.093  0.00  0.00    +0.042 C 
ATOM     23  I   LIG    1       -0.147   6.758  -0.453  0.00  0.00    -0.053 I 
ENDBRANCH  20  21
ENDBRANCH   7  20
TORSDOF 5
