REMARK  Name = molecules/GUBGYTABKSRVRQ-XLOQQCSPSA-N.pdb
REMARK                            x       y       z     vdW  Elec       q    Type
REMARK                         _______ _______ _______ _____ _____    ______ ____
ROOT
ATOM      1  O   LIG    1       -0.024  -0.036   0.187  0.00  0.00    -0.340 OA
ENDROOT
BRANCH   1   4
ATOM      2  C   LIG    1       -2.704   0.596   1.034  0.00  0.00    +0.178 C 
ATOM      3  O   LIG    1       -1.687   1.341   0.510  0.00  0.00    -0.341 OA
ATOM      4  C   LIG    1       -0.941   0.698  -0.479  0.00  0.00    +0.282 C 
ATOM      5  C   LIG    1       -1.803  -0.043  -1.459  0.00  0.00    +0.201 C 
ATOM      6  C   LIG    1       -3.249   0.406  -1.343  0.00  0.00    +0.179 C 
ATOM      7  C   LIG    1       -3.790   0.403   0.041  0.00  0.00    +0.177 C 
BRANCH   6   8
ATOM      8  O   LIG    1       -4.067  -0.381  -2.166  0.00  0.00    -0.386 OA
ATOM      9  H   LIG    1       -4.880  -0.688  -1.689  0.00  0.00    +0.210 HD
ENDBRANCH   6   8
BRANCH   5  10
ATOM     10  O   LIG    1       -1.412   0.307  -2.752  0.00  0.00    -0.384 OA
ATOM     11  H   LIG    1       -1.058   1.236  -2.782  0.00  0.00    +0.210 HD
ENDBRANCH   5  10
BRANCH   7  12
ATOM     12  O   LIG    1       -4.455  -0.783   0.365  0.00  0.00    -0.386 OA
ATOM     13  H   LIG    1       -5.229  -0.584   0.914  0.00  0.00    +0.210 HD
ENDBRANCH   7  12
BRANCH   2  14
ATOM     14  C   LIG    1       -2.246  -0.693   1.677  0.00  0.00    +0.190 C 
BRANCH  14  15
ATOM     15  O   LIG    1       -3.376  -1.369   2.176  0.00  0.00    -0.392 OA
ATOM     16  H   LIG    1       -3.438  -2.284   1.855  0.00  0.00    +0.210 HD
ENDBRANCH  14  15
ENDBRANCH   2  14
ENDBRANCH   1   4
BRANCH   1  17
ATOM     17  C   LIG    1        1.280   0.277   0.118  0.00  0.00    +0.183 C 
ATOM     18  C   LIG    1        1.866   0.435   1.531  0.00  0.00    +0.179 C 
ATOM     19  C   LIG    1        3.268   0.940   1.387  0.00  0.00    +0.201 C 
ATOM     20  C   LIG    1        3.931   0.189   0.255  0.00  0.00    +0.279 C 
ATOM     21  O   LIG    1        3.301  -1.028   0.065  0.00  0.00    -0.341 OA
ATOM     22  C   LIG    1        2.023  -0.906  -0.476  0.00  0.00    +0.178 C 
BRANCH  18  23
ATOM     23  O   LIG    1        1.070   1.210   2.337  0.00  0.00    -0.386 OA
ATOM     24  H   LIG    1        1.023   0.800   3.239  0.00  0.00    +0.210 HD
ENDBRANCH  18  23
BRANCH  19  25
ATOM     25  O   LIG    1        4.007   0.775   2.570  0.00  0.00    -0.384 OA
ATOM     26  H   LIG    1        4.711   1.481   2.611  0.00  0.00    +0.210 HD
ENDBRANCH  19  25
BRANCH  20  27
ATOM     27  O   LIG    1        5.278  -0.105   0.566  0.00  0.00    -0.365 OA
ATOM     28  H   LIG    1        5.812  -0.037  -0.259  0.00  0.00    +0.213 HD
ENDBRANCH  20  27
BRANCH  22  29
ATOM     29  C   LIG    1        2.110  -0.778  -1.990  0.00  0.00    +0.190 C 
BRANCH  29  30
ATOM     30  O   LIG    1        2.723  -1.896  -2.553  0.00  0.00    -0.392 OA
ATOM     31  H   LIG    1        2.438  -2.670  -1.974  0.00  0.00    +0.210 HD
ENDBRANCH  29  30
ENDBRANCH  22  29
ENDBRANCH   1  17
TORSDOF 12
