REMARK  Name = molecules/GUBGYTABKSRVRQ-QUYVBRFLSA-N.pdb
REMARK                            x       y       z     vdW  Elec       q    Type
REMARK                         _______ _______ _______ _____ _____    ______ ____
ROOT
ATOM      1  O   LIG    1       -0.168   0.151  -0.206  0.00  0.00    -0.340 OA
ENDROOT
BRANCH   1   7
ATOM      2  O   LIG    1       -1.674  -0.463   1.394  0.00  0.00    -0.341 OA
ATOM      3  C   LIG    1       -2.778   0.313   1.275  0.00  0.00    +0.178 C 
ATOM      4  C   LIG    1       -2.959   1.064  -0.009  0.00  0.00    +0.177 C 
ATOM      5  C   LIG    1       -2.843   0.176  -1.198  0.00  0.00    +0.179 C 
ATOM      6  C   LIG    1       -2.036  -1.066  -0.892  0.00  0.00    +0.201 C 
ATOM      7  C   LIG    1       -1.024  -0.812   0.200  0.00  0.00    +0.282 C 
BRANCH   4   8
ATOM      8  O   LIG    1       -1.967   2.049  -0.092  0.00  0.00    -0.386 OA
ATOM      9  H   LIG    1       -2.308   2.861  -0.561  0.00  0.00    +0.210 HD
ENDBRANCH   4   8
BRANCH   6  10
ATOM     10  O   LIG    1       -1.455  -1.502  -2.069  0.00  0.00    -0.384 OA
ATOM     11  H   LIG    1       -0.882  -2.267  -1.894  0.00  0.00    +0.210 HD
ENDBRANCH   6  10
BRANCH   5  12
ATOM     12  O   LIG    1       -4.106  -0.222  -1.598  0.00  0.00    -0.386 OA
ATOM     13  H   LIG    1       -4.277  -1.187  -1.473  0.00  0.00    +0.210 HD
ENDBRANCH   5  12
BRANCH   3  14
ATOM     14  C   LIG    1       -4.068  -0.368   1.697  0.00  0.00    +0.190 C 
BRANCH  14  15
ATOM     15  O   LIG    1       -4.019  -0.763   3.034  0.00  0.00    -0.392 OA
ATOM     16  H   LIG    1       -4.225  -0.030   3.663  0.00  0.00    +0.210 HD
ENDBRANCH  14  15
ENDBRANCH   3  14
ENDBRANCH   1   7
BRANCH   1  17
ATOM     17  C   LIG    1        1.171  -0.086  -0.266  0.00  0.00    +0.183 C 
ATOM     18  C   LIG    1        1.967   0.725   0.742  0.00  0.00    +0.178 C 
ATOM     19  O   LIG    1        2.982   1.466   0.206  0.00  0.00    -0.341 OA
ATOM     20  C   LIG    1        3.939   0.725  -0.468  0.00  0.00    +0.279 C 
ATOM     21  C   LIG    1        3.311  -0.301  -1.391  0.00  0.00    +0.201 C 
ATOM     22  C   LIG    1        1.844   0.129  -1.593  0.00  0.00    +0.179 C 
BRANCH  20  23
ATOM     23  O   LIG    1        4.884   0.176   0.386  0.00  0.00    -0.365 OA
ATOM     24  H   LIG    1        5.554   0.841   0.654  0.00  0.00    +0.213 HD
ENDBRANCH  20  23
BRANCH  21  25
ATOM     25  O   LIG    1        3.973  -0.445  -2.581  0.00  0.00    -0.384 OA
ATOM     26  H   LIG    1        4.081   0.411  -3.033  0.00  0.00    +0.210 HD
ENDBRANCH  21  25
BRANCH  22  27
ATOM     27  O   LIG    1        1.375  -0.628  -2.631  0.00  0.00    -0.386 OA
ATOM     28  H   LIG    1        1.282  -0.132  -3.492  0.00  0.00    +0.210 HD
ENDBRANCH  22  27
BRANCH  18  29
ATOM     29  C   LIG    1        2.441  -0.193   1.841  0.00  0.00    +0.190 C 
BRANCH  29  30
ATOM     30  O   LIG    1        3.020   0.516   2.895  0.00  0.00    -0.392 OA
ATOM     31  H   LIG    1        3.339  -0.101   3.578  0.00  0.00    +0.210 HD
ENDBRANCH  29  30
ENDBRANCH  18  29
ENDBRANCH   1  17
TORSDOF 12
