REMARK  Name = molecules/GUCKKCMJTSNWCU-BQBZGAKWSA-N.pdb
REMARK                            x       y       z     vdW  Elec       q    Type
REMARK                         _______ _______ _______ _____ _____    ______ ____
ROOT
ATOM      1  CG  GLU A  1        0.142   0.205   0.507  0.00  0.00    +0.216 C 
ATOM      2  OD1 GLU A  1       -0.157   1.429   0.523  0.00  0.00    -0.276 OA
ATOM      3  N   GLU A  1       -0.844  -0.779   0.348  0.00  0.00    -0.302 N 
ATOM      4  H   GLU A  1       -0.618  -1.790   0.331  0.00  0.00    +0.150 HD
ENDROOT
BRANCH   1   5
ATOM      5  CB  GLU A  1        1.557  -0.169   0.660  0.00  0.00    +0.129 C 
BRANCH   5   6
ATOM      6  CA  GLU A  1        2.503   0.967   0.892  0.00  0.00    +0.190 C 
BRANCH   6   7
ATOM      7  N   GLU A  1        3.839   0.356   0.977  0.00  0.00    -0.302 N 
ATOM      8  H   GLU A  1        4.066  -0.361   1.690  0.00  0.00    +0.150 HD
ATOM      9  C   UNK A  0        4.840   0.758   0.060  0.00  0.00    +0.211 C 
ATOM     10  C   UNK A  0        6.191   0.141   0.146  0.00  0.00    +0.109 C 
ATOM     11  O   UNK A  0        4.602   1.642  -0.837  0.00  0.00    -0.276 OA
ENDBRANCH   6   7
BRANCH   6  12
ATOM     12  C   GLU A  1        2.253   1.545   2.237  0.00  0.00    +0.326 C 
ATOM     13  OXT GLU A  1        3.157   1.399   3.132  0.00  0.00    -0.249 OA
BRANCH  12  14
ATOM     14  O   GLU A  1        1.101   2.237   2.589  0.00  0.00    -0.479 OA
ATOM     15  H   GLU A  1        1.144   3.260   2.577  0.00  0.00    +0.295 HD
ENDBRANCH  12  14
ENDBRANCH   6  12
ENDBRANCH   5   6
ENDBRANCH   1   5
BRANCH   3  16
ATOM     16  CA  GLU A  1       -2.267  -0.467   0.193  0.00  0.00    +0.182 C 
BRANCH  16  17
ATOM     17  C   GLU A  1       -2.980  -1.216   1.224  0.00  0.00    +0.325 C 
ATOM     18  OXT GLU A  1       -2.336  -2.051   1.954  0.00  0.00    -0.249 OA
BRANCH  17  19
ATOM     19  O   GLU A  1       -4.340  -1.041   1.437  0.00  0.00    -0.479 OA
ATOM     20  H   GLU A  1       -4.869  -1.809   1.835  0.00  0.00    +0.295 HD
ENDBRANCH  17  19
ENDBRANCH  16  17
BRANCH  16  21
ATOM     21  CB  GLU A  1       -2.746  -0.783  -1.168  0.00  0.00    +0.045 C 
BRANCH  21  22
ATOM     22  CG  GLU A  1       -4.198  -0.460  -1.349  0.00  0.00    +0.123 C 
BRANCH  22  23
ATOM     23  CD  GLU A  1       -4.618  -0.752  -2.775  0.00  0.00    +0.305 C 
ATOM     24  OE2 GLU A  1       -4.865  -1.933  -3.081  0.00  0.00    -0.251 OA
BRANCH  23  25
ATOM     25  OE1 GLU A  1       -4.694   0.329  -3.631  0.00  0.00    -0.481 OA
ATOM     26  HE1 GLU A  1       -4.850   1.273  -3.300  0.00  0.00    +0.295 HD
ENDBRANCH  23  25
ENDBRANCH  22  23
ENDBRANCH  21  22
ENDBRANCH  16  21
ENDBRANCH   3  16
TORSDOF 12
