REMARK  Name = molecules/GUIBJJJLGSYNKE-UHFFFAOYSA-N.pdb
REMARK                            x       y       z     vdW  Elec       q    Type
REMARK                         _______ _______ _______ _____ _____    ______ ____
ROOT
ATOM      1  C   LIG    1       -0.153  -0.187  -0.570  0.00  0.00    +0.073 C 
ENDROOT
BRANCH   1   2
ATOM      2  C   LIG    1        0.308   1.246  -0.491  0.00  0.00    +0.017 C 
BRANCH   2   3
ATOM      3  C   LIG    1       -0.194   2.136  -1.546  0.00  0.00    +0.001 C 
BRANCH   3   4
ATOM      4  C   LIG    1        0.351   3.522  -1.397  0.00  0.00    +0.000 C 
BRANCH   4   5
ATOM      5  C   LIG    1       -0.044   4.149  -0.087  0.00  0.00    -0.000 C 
BRANCH   5   6
ATOM      6  C   LIG    1        0.488   5.571   0.031  0.00  0.00    -0.003 C 
ATOM      7  C   LIG    1       -0.093   6.372  -1.105  0.00  0.00    +0.004 C 
ENDBRANCH   5   6
ENDBRANCH   4   5
ENDBRANCH   3   4
ENDBRANCH   2   3
ENDBRANCH   1   2
BRANCH   1   8
ATOM      8  C   LIG    1        0.220  -0.800  -1.875  0.00  0.00    +0.246 C 
BRANCH   8   9
ATOM      9  O   LIG    1        1.530  -0.841  -2.231  0.00  0.00    -0.460 OA
BRANCH   9  10
ATOM     10  C   LIG    1        2.606  -1.542  -1.831  0.00  0.00    +0.341 C 
ATOM     11  O   LIG    1        2.491  -2.396  -0.948  0.00  0.00    -0.245 OA
BRANCH  10  12
ATOM     12  C   LIG    1        3.944  -1.320  -2.427  0.00  0.00    +0.077 A 
ATOM     13  C   LIG    1        5.014  -2.057  -1.991  0.00  0.00    +0.125 A 
ATOM     14  N   LIG    1        6.236  -1.869  -2.519  0.00  0.00    -0.262 NA
ATOM     15  C   LIG    1        6.449  -0.960  -3.486  0.00  0.00    +0.111 A 
ATOM     16  C   LIG    1        5.403  -0.190  -3.961  0.00  0.00    +0.020 A 
ATOM     17  C   LIG    1        4.152  -0.386  -3.416  0.00  0.00    +0.018 A 
ENDBRANCH  10  12
ENDBRANCH   9  10
ENDBRANCH   8   9
ENDBRANCH   1   8
BRANCH   1  18
ATOM     18  C   LIG    1       -1.672  -0.303  -0.487  0.00  0.00    +0.246 C 
BRANCH  18  19
ATOM     19  O   LIG    1       -2.073  -1.660  -0.530  0.00  0.00    -0.460 OA
BRANCH  19  20
ATOM     20  C   LIG    1       -3.388  -2.066  -0.474  0.00  0.00    +0.341 C 
ATOM     21  O   LIG    1       -4.258  -1.169  -0.379  0.00  0.00    -0.245 OA
BRANCH  20  22
ATOM     22  C   LIG    1       -3.809  -3.456  -0.517  0.00  0.00    +0.077 A 
ATOM     23  C   LIG    1       -5.159  -3.731  -0.452  0.00  0.00    +0.018 A 
ATOM     24  C   LIG    1       -5.634  -5.014  -0.487  0.00  0.00    +0.020 A 
ATOM     25  C   LIG    1       -4.714  -6.036  -0.591  0.00  0.00    +0.111 A 
ATOM     26  N   LIG    1       -3.416  -5.747  -0.652  0.00  0.00    -0.262 NA
ATOM     27  C   LIG    1       -2.911  -4.501  -0.621  0.00  0.00    +0.125 A 
ENDBRANCH  20  22
ENDBRANCH  19  20
ENDBRANCH  18  19
ENDBRANCH   1  18
BRANCH   1  28
ATOM     28  C   LIG    1        0.456  -0.912   0.584  0.00  0.00    +0.246 C 
BRANCH  28  29
ATOM     29  O   LIG    1       -0.031  -0.352   1.835  0.00  0.00    -0.460 OA
BRANCH  29  30
ATOM     30  C   LIG    1        0.447  -0.923   2.991  0.00  0.00    +0.341 C 
ATOM     31  O   LIG    1        1.271  -1.890   2.868  0.00  0.00    -0.245 OA
BRANCH  30  32
ATOM     32  C   LIG    1        0.068  -0.491   4.320  0.00  0.00    +0.077 A 
ATOM     33  C   LIG    1        0.598  -1.122   5.417  0.00  0.00    +0.125 A 
ATOM     34  N   LIG    1        0.271  -0.749   6.673  0.00  0.00    -0.262 NA
ATOM     35  C   LIG    1       -0.590   0.259   6.905  0.00  0.00    +0.111 A 
ATOM     36  C   LIG    1       -1.130   0.903   5.804  0.00  0.00    +0.020 A 
ATOM     37  C   LIG    1       -0.809   0.538   4.514  0.00  0.00    +0.018 A 
ENDBRANCH  30  32
ENDBRANCH  29  30
ENDBRANCH  28  29
ENDBRANCH   1  28
TORSDOF 17
