REMARK  Name = molecules/GUJRSXAPGDDABA-NSHDSACASA-N.pdb
REMARK                            x       y       z     vdW  Elec       q    Type
REMARK                         _______ _______ _______ _____ _____    ______ ____
ROOT
ATOM      1  C   LIG    1       -1.009   0.320  -0.553  0.00  0.00    +0.251 C 
ATOM      2  N   LIG    1       -0.113   1.192   0.061  0.00  0.00    -0.310 N 
ATOM      3  H   LIG    1       -0.402   1.512   1.049  0.00  0.00    +0.149 HD
ATOM      4  O   LIG    1       -0.675  -0.027  -1.747  0.00  0.00    -0.270 OA
ENDROOT
BRANCH   1   5
ATOM      5  C   LIG    1       -2.235  -0.251  -0.077  0.00  0.00    +0.121 A 
ATOM      6  C   LIG    1       -2.614  -0.199   1.236  0.00  0.00    +0.136 A 
ATOM      7  C   LIG    1       -3.824  -0.807   1.625  0.00  0.00    +0.048 A 
ATOM      8  C   LIG    1       -4.641  -1.454   0.732  0.00  0.00    +0.022 A 
ATOM      9  C   LIG    1       -4.258  -1.506  -0.589  0.00  0.00    +0.060 A 
ATOM     10 BR   LIG    1       -5.397  -2.406  -1.835  0.00  0.00    -0.046 Br
ATOM     11  C   LIG    1       -3.081  -0.916  -0.978  0.00  0.00    +0.150 A 
BRANCH   6  12
ATOM     12  O   LIG    1       -1.827   0.435   2.163  0.00  0.00    -0.494 OA
ATOM     13  C   LIG    1       -2.256   0.463   3.508  0.00  0.00    +0.277 C 
ENDBRANCH   6  12
BRANCH  11  14
ATOM     14  O   LIG    1       -2.697  -0.967  -2.300  0.00  0.00    -0.493 OA
ATOM     15  C   LIG    1       -3.151   0.103  -3.144  0.00  0.00    +0.277 C 
ENDBRANCH  11  14
ENDBRANCH   1   5
BRANCH   2  16
ATOM     16  C   LIG    1        1.103   1.741  -0.397  0.00  0.00    +0.123 C 
BRANCH  16  17
ATOM     17  C   LIG    1        2.267   0.912  -0.697  0.00  0.00    +0.074 C 
ATOM     18  N   LIG    1        2.720   0.125   0.461  0.00  0.00    -0.298 NA
ATOM     19  C   LIG    1        2.133  -1.184   0.297  0.00  0.00    +0.085 C 
ATOM     20  C   LIG    1        2.163  -1.445  -1.192  0.00  0.00    +0.017 C 
ATOM     21  C   LIG    1        2.316  -0.053  -1.787  0.00  0.00    +0.022 C 
BRANCH  18  22
ATOM     22  C   LIG    1        4.160  -0.007   0.379  0.00  0.00    +0.081 C 
ATOM     23  C   LIG    1        4.859   1.316   0.596  0.00  0.00    +0.020 C 
ENDBRANCH  18  22
ENDBRANCH  16  17
ENDBRANCH   2  16
TORSDOF 6
