REMARK  Name = molecules/GUTXTARXLVFHDK-UHFFFAOYSA-N.pdb
REMARK                            x       y       z     vdW  Elec       q    Type
REMARK                         _______ _______ _______ _____ _____    ______ ____
ROOT
ATOM      1  C   LIG    1        0.495  -0.630  -0.268  0.00  0.00    +0.141 C 
ATOM      2  C   LIG    1        0.943  -0.221   1.097  0.00  0.00    +0.068 C 
ATOM      3  C   LIG    1        2.423  -0.342   1.270  0.00  0.00    +0.088 C 
ATOM      4  N   LIG    1        3.112   0.466   0.366  0.00  0.00    -0.302 NA
ATOM      5  C   LIG    1        2.446   0.912  -0.805  0.00  0.00    +0.088 C 
ATOM      6  C   LIG    1        1.405  -0.028  -1.309  0.00  0.00    +0.068 C 
ENDROOT
BRANCH   1   7
ATOM      7  C   LIG    1        0.459  -2.096  -0.383  0.00  0.00    -0.004 A 
ATOM      8  C   LIG    1        0.665  -2.911   0.698  0.00  0.00    +0.009 A 
ATOM      9  C   LIG    1        0.632  -4.302   0.511  0.00  0.00    +0.020 A 
ATOM     10  C   LIG    1        0.403  -4.871  -0.711  0.00  0.00    +0.041 A 
ATOM     11 CL   LIG    1        0.364  -6.600  -0.971  0.00  0.00    -0.084 Cl
ATOM     12  C   LIG    1        0.192  -4.037  -1.820  0.00  0.00    +0.020 A 
ATOM     13  C   LIG    1        0.223  -2.675  -1.637  0.00  0.00    +0.009 A 
ENDBRANCH   1   7
BRANCH   4  14
ATOM     14  C   LIG    1        4.146   1.300   0.786  0.00  0.00    +0.084 C 
BRANCH  14  15
ATOM     15  C   LIG    1        5.403   1.263  -0.075  0.00  0.00    +0.019 C 
BRANCH  15  16
ATOM     16  C   LIG    1        5.971  -0.116   0.012  0.00  0.00    +0.048 C 
BRANCH  16  17
ATOM     17  C   LIG    1        7.203  -0.343  -0.744  0.00  0.00    +0.165 C 
ATOM     18  O   LIG    1        7.093  -1.011  -1.840  0.00  0.00    -0.219 OA
BRANCH  17  19
ATOM     19  C   LIG    1        8.539   0.100  -0.397  0.00  0.00    -0.009 A 
ATOM     20  C   LIG    1        8.703   0.893   0.717  0.00  0.00    +0.009 A 
ATOM     21  C   LIG    1        9.988   1.322   1.053  0.00  0.00    +0.039 A 
ATOM     22  C   LIG    1       11.082   0.972   0.304  0.00  0.00    +0.123 A 
ATOM     23  F   LIG    1       12.302   1.405   0.655  0.00  0.00    -0.205 F 
ATOM     24  C   LIG    1       10.888   0.167  -0.821  0.00  0.00    +0.039 A 
ATOM     25  C   LIG    1        9.637  -0.256  -1.158  0.00  0.00    +0.009 A 
ENDBRANCH  17  19
ENDBRANCH  16  17
ENDBRANCH  15  16
ENDBRANCH  14  15
ENDBRANCH   4  14
BRANCH   1  26
ATOM     26  O   LIG    1       -0.797  -0.044  -0.550  0.00  0.00    -0.453 OA
BRANCH  26  27
ATOM     27  C   LIG    1       -1.935  -0.296   0.123  0.00  0.00    +0.308 C 
ATOM     28  O   LIG    1       -1.938  -1.116   1.081  0.00  0.00    -0.251 OA
BRANCH  27  29
ATOM     29  C   LIG    1       -3.256   0.347  -0.178  0.00  0.00    +0.120 C 
BRANCH  29  30
ATOM     30  C   LIG    1       -3.429   1.604   0.620  0.00  0.00    +0.011 C 
BRANCH  30  31
ATOM     31  C   LIG    1       -4.726   2.251   0.279  0.00  0.00    +0.001 C 
BRANCH  31  32
ATOM     32  C   LIG    1       -5.949   1.451   0.581  0.00  0.00    +0.000 C 
BRANCH  32  33
ATOM     33  C   LIG    1       -7.142   2.290   0.154  0.00  0.00    +0.000 C 
BRANCH  33  34
ATOM     34  C   LIG    1       -8.436   1.606   0.458  0.00  0.00    -0.000 C 
BRANCH  34  35
ATOM     35  C   LIG    1       -8.634   0.273  -0.189  0.00  0.00    -0.000 C 
BRANCH  35  36
ATOM     36  C   LIG    1      -10.014  -0.278   0.178  0.00  0.00    -0.003 C 
ATOM     37  C   LIG    1      -10.167  -0.417   1.665  0.00  0.00    +0.004 C 
ENDBRANCH  35  36
ENDBRANCH  34  35
ENDBRANCH  33  34
ENDBRANCH  32  33
ENDBRANCH  31  32
ENDBRANCH  30  31
ENDBRANCH  29  30
ENDBRANCH  27  29
ENDBRANCH  26  27
ENDBRANCH   1  26
TORSDOF 16
