REMARK  Name = molecules/GUTZRTRUIMWMJZ-SSDOTTSWSA-N.pdb
REMARK                            x       y       z     vdW  Elec       q    Type
REMARK                         _______ _______ _______ _____ _____    ______ ____
ROOT
ATOM      1  O   LIG    1       -1.357  -0.855  -2.640  0.00  0.00    -0.153 OA
ATOM      2  S   LIG    1       -1.239  -1.360  -1.238  0.00  0.00    +0.062 S 
ATOM      3  C   LIG    1       -0.112  -0.411  -0.315  0.00  0.00    +0.128 A 
ATOM      4  C   LIG    1       -0.558   0.464   0.617  0.00  0.00    +0.057 A 
ATOM      5  C   LIG    1        0.376   1.210   1.340  0.00  0.00    +0.047 A 
ATOM      6  C   LIG    1        1.744   1.067   1.117  0.00  0.00    +0.069 A 
ATOM      7 CL   LIG    1        2.828   2.050   2.079  0.00  0.00    -0.081 Cl
ATOM      8  C   LIG    1        2.182   0.173   0.166  0.00  0.00    +0.125 A 
ATOM      9  N   LIG    1       -1.934   0.622   0.855  0.00  0.00    -0.323 N 
ATOM     10  H   LIG    1       -2.199   1.364   1.572  0.00  0.00    +0.148 HD
ATOM     11  C   LIG    1       -3.007  -0.080   0.263  0.00  0.00    +0.211 C 
ATOM     12  C   LIG    1        1.228  -0.542  -0.524  0.00  0.00    +0.060 A 
ATOM     13  N   LIG    1       -2.735  -1.266  -0.442  0.00  0.00    -0.166 NA
ATOM     14  H   LIG    1       -2.849  -2.099   0.176  0.00  0.00    +0.150 HD
ATOM     15  O   LIG    1       -0.764  -2.807  -1.224  0.00  0.00    -0.153 OA
ENDROOT
BRANCH  11  16
ATOM     16  C   LIG    1       -3.817   0.942  -0.550  0.00  0.00    +0.223 C 
ATOM     17 CL   LIG    1       -4.053   2.381   0.487  0.00  0.00    -0.080 Cl
ATOM     18 CL   LIG    1       -5.441   0.302  -0.914  0.00  0.00    -0.080 Cl
ATOM     19 CL   LIG    1       -2.954   1.411  -2.012  0.00  0.00    -0.080 Cl
ENDBRANCH  11  16
BRANCH   8  20
ATOM     20  S   LIG    1        3.901   0.019  -0.087  0.00  0.00    +0.057 S 
ATOM     21  O   LIG    1        4.564  -0.262   1.228  0.00  0.00    -0.153 OA
ATOM     22  O   LIG    1        4.410   1.381  -0.535  0.00  0.00    -0.153 OA
BRANCH  20  23
ATOM     23  N   LIG    1        4.290  -1.120  -1.291  0.00  0.00    -0.203 NA
ATOM     24  H   LIG    1        4.479  -2.082  -0.930  0.00  0.00    +0.144 HD
ATOM     25  H   LIG    1        5.157  -0.808  -1.786  0.00  0.00    +0.144 HD
ENDBRANCH  20  23
ENDBRANCH   8  20
TORSDOF 3
