REMARK  Name = molecules/GUYPYYARYIIWJZ-DYWPJHBNSA-N.pdb
REMARK                            x       y       z     vdW  Elec       q    Type
REMARK                         _______ _______ _______ _____ _____    ______ ____
ROOT
ATOM      1  C   LIG    1       -0.825   1.407   0.190  0.00  0.00    +0.165 C 
ATOM      2  O   LIG    1       -0.967   2.035   1.401  0.00  0.00    -0.332 OA
ATOM      3  C   LIG    1       -1.025   3.382   1.157  0.00  0.00    +0.166 C 
ATOM      4  C   LIG    1       -2.186   4.074   1.892  0.00  0.00    +0.074 C 
ATOM      5  C   LIG    1        0.238   4.081   1.667  0.00  0.00    +0.074 C 
ATOM      6  O   LIG    1       -1.218   3.622  -0.179  0.00  0.00    -0.343 OA
ATOM      7  C   LIG    1       -1.872   0.321  -0.012  0.00  0.00    +0.012 C 
ATOM      8  C   LIG    1       -2.136  -0.489   1.215  0.00  0.00    +0.044 C 
ATOM      9  C   LIG    1       -3.273  -1.450   0.883  0.00  0.00    +0.154 C 
ATOM     10  C   LIG    1       -4.488  -0.716   0.492  0.00  0.00    +0.153 C 
ATOM     11  F   LIG    1       -4.974  -0.041   1.613  0.00  0.00    -0.238 F 
ATOM     12  C   LIG    1       -5.618  -1.622   0.031  0.00  0.00    +0.044 C 
ATOM     13  C   LIG    1       -5.698  -2.843   0.826  0.00  0.00    -0.009 C 
ATOM     14  C   LIG    1       -6.742  -3.174   1.541  0.00  0.00    +0.047 C 
ATOM     15  C   LIG    1       -7.917  -2.318   1.589  0.00  0.00    +0.179 C 
ATOM     16  O   LIG    1       -8.930  -2.628   2.275  0.00  0.00    -0.288 OA
ATOM     17  C   LIG    1       -7.861  -1.101   0.816  0.00  0.00    +0.051 C 
ATOM     18  C   LIG    1       -6.815  -0.775   0.105  0.00  0.00    -0.053 C 
ATOM     19  C   LIG    1       -6.821   0.533  -0.641  0.00  0.00    +0.032 C 
ATOM     20  C   LIG    1       -5.508   1.219  -0.595  0.00  0.00    +0.011 C 
ATOM     21  C   LIG    1       -5.446  -1.965  -1.450  0.00  0.00    +0.023 C 
ATOM     22  C   LIG    1       -4.295   0.319  -0.586  0.00  0.00    +0.034 C 
ATOM     23  C   LIG    1       -3.101   1.185  -0.251  0.00  0.00    +0.007 C 
ATOM     24  C   LIG    1       -2.612   2.057  -1.342  0.00  0.00    +0.039 C 
ATOM     25  C   LIG    1       -1.526  -0.477  -1.214  0.00  0.00    +0.015 C 
ATOM     26  C   LIG    1       -1.191   2.409  -0.862  0.00  0.00    +0.162 C 
ENDROOT
BRANCH   1  27
ATOM     27  C   LIG    1        0.523   0.798   0.014  0.00  0.00    +0.205 C 
ATOM     28  O   LIG    1        0.903   0.345  -1.050  0.00  0.00    -0.291 OA
BRANCH  27  29
ATOM     29  C   LIG    1        1.440   0.732   1.171  0.00  0.00    +0.309 C 
BRANCH  29  30
ATOM     30  O   LIG    1        2.639   0.064   0.738  0.00  0.00    -0.457 OA
BRANCH  30  31
ATOM     31  C   LIG    1        3.654  -0.127   1.650  0.00  0.00    +0.312 C 
ATOM     32  O   LIG    1        3.487   0.292   2.822  0.00  0.00    -0.250 OA
BRANCH  31  33
ATOM     33  C   LIG    1        4.918  -0.818   1.234  0.00  0.00    +0.112 C 
ATOM     34  C   LIG    1        4.557  -2.207   0.766  0.00  0.00    +0.021 C 
BRANCH  33  35
ATOM     35  C   LIG    1        5.576  -0.015   0.143  0.00  0.00    +0.119 C 
BRANCH  35  36
ATOM     36  N   LIG    1        6.798  -0.705  -0.245  0.00  0.00    -0.311 N 
ATOM     37  H   LIG    1        7.076  -1.589   0.212  0.00  0.00    +0.149 HD
ATOM     38  C   LIG    1        7.623  -0.166  -1.257  0.00  0.00    +0.244 C 
ATOM     39  O   LIG    1        7.271   0.927  -1.812  0.00  0.00    -0.270 OA
BRANCH  38  40
ATOM     40  C   LIG    1        8.848  -0.799  -1.690  0.00  0.00    +0.037 A 
ATOM     41  C   LIG    1        9.225  -2.028  -1.212  0.00  0.00    +0.013 A 
ATOM     42  C   LIG    1       10.411  -2.649  -1.625  0.00  0.00    +0.001 A 
ATOM     43  C   LIG    1       11.197  -1.986  -2.531  0.00  0.00    +0.000 A 
ATOM     44  C   LIG    1       10.854  -0.747  -3.037  0.00  0.00    +0.001 A 
ATOM     45  C   LIG    1        9.686  -0.162  -2.616  0.00  0.00    +0.013 A 
ENDBRANCH  38  40
ENDBRANCH  35  36
ENDBRANCH  33  35
ENDBRANCH  31  33
ENDBRANCH  30  31
ENDBRANCH  29  30
ENDBRANCH  27  29
ENDBRANCH   1  27
BRANCH   9  46
ATOM     46  O   LIG    1       -2.860  -2.461   0.055  0.00  0.00    -0.389 OA
ATOM     47  H   LIG    1       -2.497  -3.242   0.532  0.00  0.00    +0.210 HD
ENDBRANCH   9  46
TORSDOF 9
