REMARK  Name = molecules/GVBNSPFBYXGREE-CXWAGAITSA-N.pdb
REMARK                            x       y       z     vdW  Elec       q    Type
REMARK                         _______ _______ _______ _____ _____    ______ ____
ROOT
ATOM      1  C   LIG    1       -0.960   0.228  -0.295  0.00  0.00    +0.258 C 
ATOM      2  C   LIG    1        0.202  -0.733  -0.591  0.00  0.00    +0.264 C 
ATOM      3  C   LIG    1       -0.081  -2.135  -0.160  0.00  0.00    +0.145 C 
ATOM      4  C   LIG    1       -0.256  -2.310   1.311  0.00  0.00    +0.059 C 
ATOM      5  C   LIG    1        1.101  -2.981  -0.589  0.00  0.00    +0.059 C 
ATOM      6  O   LIG    1       -1.273  -2.551  -0.815  0.00  0.00    -0.482 OA
ATOM      7  C   LIG    1       -2.366  -1.677  -0.920  0.00  0.00    +0.132 A 
ATOM      8  C   LIG    1       -3.576  -2.245  -1.286  0.00  0.00    +0.047 A 
ATOM      9  C   LIG    1       -4.680  -1.456  -1.408  0.00  0.00    +0.015 A 
ATOM     10  C   LIG    1       -4.591  -0.103  -1.168  0.00  0.00    +0.018 A 
ATOM     11  C   LIG    1       -3.360   0.458  -0.799  0.00  0.00    +0.149 A 
ATOM     12  O   LIG    1       -3.348   1.747  -0.588  0.00  0.00    -0.422 OA
ATOM     13  C   LIG    1       -4.394   2.520  -0.699  0.00  0.00    +0.337 A 
ATOM     14  O   LIG    1       -4.325   3.777  -0.480  0.00  0.00    -0.245 OA
ATOM     15  C   LIG    1       -5.622   2.020  -1.057  0.00  0.00    +0.092 A 
ATOM     16  C   LIG    1       -5.723   0.669  -1.299  0.00  0.00    +0.018 A 
ATOM     17  C   LIG    1       -2.241  -0.331  -0.674  0.00  0.00    +0.081 A 
ENDROOT
BRANCH   1  18
ATOM     18  O   LIG    1       -0.837   0.554   1.070  0.00  0.00    -0.453 OA
BRANCH  18  19
ATOM     19  C   LIG    1       -0.450   1.798   1.529  0.00  0.00    +0.305 C 
ATOM     20  C   LIG    1       -0.351   2.040   2.989  0.00  0.00    +0.136 C 
ATOM     21  O   LIG    1       -0.205   2.652   0.654  0.00  0.00    -0.251 OA
ENDBRANCH  18  19
ENDBRANCH   1  18
BRANCH   2  22
ATOM     22  O   LIG    1        1.335  -0.175   0.035  0.00  0.00    -0.453 OA
BRANCH  22  23
ATOM     23  C   LIG    1        2.417   0.302  -0.709  0.00  0.00    +0.310 C 
ATOM     24  O   LIG    1        2.292   0.191  -1.968  0.00  0.00    -0.251 OA
BRANCH  23  25
ATOM     25  C   LIG    1        3.619   0.892  -0.113  0.00  0.00    +0.094 C 
ATOM     26  C   LIG    1        4.568   1.294  -1.220  0.00  0.00    +0.019 C 
BRANCH  25  27
ATOM     27  C   LIG    1        4.353  -0.057   0.809  0.00  0.00    +0.011 C 
ATOM     28  C   LIG    1        5.561   0.662   1.354  0.00  0.00    +0.004 C 
ENDBRANCH  25  27
ENDBRANCH  23  25
ENDBRANCH  22  23
ENDBRANCH   2  22
TORSDOF 6
