REMARK  Name = molecules/GVDMJXQHPUYPHP-FYQPLNBISA-N.pdb
REMARK                            x       y       z     vdW  Elec       q    Type
REMARK                         _______ _______ _______ _____ _____    ______ ____
ROOT
ATOM      1  C   LIG    1       -2.098   0.840  -1.521  0.00  0.00    +0.020 C 
ATOM      2  C   LIG    1       -1.948   0.563  -0.055  0.00  0.00    +0.030 C 
ATOM      3  C   LIG    1       -1.216   1.625   0.614  0.00  0.00    -0.016 C 
ATOM      4  C   LIG    1        0.113   1.584   0.606  0.00  0.00    +0.000 C 
ATOM      5  C   LIG    1        0.831   0.476  -0.074  0.00  0.00    -0.041 C 
ATOM      6  C   LIG    1        2.144   0.540  -0.099  0.00  0.00    -0.040 C 
ATOM      7  C   LIG    1        2.989   1.601   0.416  0.00  0.00    +0.043 C 
ATOM      8  C   LIG    1        4.108   0.976   1.261  0.00  0.00    +0.083 C 
ATOM      9  C   LIG    1        4.886   0.165   0.300  0.00  0.00    +0.157 C 
ATOM     10  O   LIG    1        6.111   0.247   0.224  0.00  0.00    -0.293 OA
ATOM     11  C   LIG    1        4.136  -0.742  -0.558  0.00  0.00    +0.050 C 
ATOM     12  C   LIG    1        2.840  -0.584  -0.759  0.00  0.00    -0.041 C 
ATOM     13  C   LIG    1        2.074  -1.537  -1.604  0.00  0.00    +0.036 C 
ATOM     14  C   LIG    1        0.771  -1.898  -0.883  0.00  0.00    +0.013 C 
ATOM     15  C   LIG    1        0.027  -0.635  -0.664  0.00  0.00    +0.024 C 
ATOM     16  C   LIG    1       -3.292   0.240   0.526  0.00  0.00    +0.135 C 
ATOM     17  C   LIG    1       -3.387  -1.262   0.682  0.00  0.00    +0.049 C 
ATOM     18  C   LIG    1       -2.186  -1.758  -0.102  0.00  0.00    +0.009 C 
ATOM     19  C   LIG    1       -1.177  -0.735   0.213  0.00  0.00    +0.010 C 
ENDROOT
BRANCH  16  20
ATOM     20  C   LIG    1       -3.537   0.932   1.790  0.00  0.00    -0.070 C 
ATOM     21  C   LIG    1       -3.730   1.519   2.823  0.00  0.00    +0.007 C 
ENDBRANCH  16  20
BRANCH  16  22
ATOM     22  O   LIG    1       -4.295   0.610  -0.375  0.00  0.00    -0.376 OA
ATOM     23  H   LIG    1       -4.321  -0.049  -1.128  0.00  0.00    +0.211 HD
ENDBRANCH  16  22
TORSDOF 2
