REMARK  Name = molecules/GVEAYVLWDAFXET-XGHATYIMSA-N.pdb
REMARK                            x       y       z     vdW  Elec       q    Type
REMARK                         _______ _______ _______ _____ _____    ______ ____
ROOT
ATOM      1  C   LIG    1        2.404  -1.262  -1.577  0.00  0.00    +0.015 C 
ATOM      2  C   LIG    1        2.339  -1.040  -0.110  0.00  0.00    +0.007 C 
ATOM      3  C   LIG    1        3.670  -1.177   0.594  0.00  0.00    +0.170 C 
ATOM      4  C   LIG    1        4.272   0.176   0.527  0.00  0.00    -0.023 C 
ATOM      5  C   LIG    1        3.208   1.125  -0.016  0.00  0.00    -0.007 C 
ATOM      6  C   LIG    1        1.259  -1.898   0.471  0.00  0.00    +0.011 C 
ATOM      7  C   LIG    1       -0.095  -1.477   0.032  0.00  0.00    +0.005 C 
ATOM      8  C   LIG    1       -0.389  -0.011   0.189  0.00  0.00    -0.001 C 
ATOM      9  C   LIG    1       -1.654   0.407  -0.484  0.00  0.00    -0.027 C 
ATOM     10  C   LIG    1       -1.897   1.849  -0.053  0.00  0.00    -0.001 C 
ATOM     11  C   LIG    1       -0.767   2.769  -0.291  0.00  0.00    +0.004 C 
ATOM     12  C   LIG    1        0.544   2.198  -0.619  0.00  0.00    +0.004 C 
ATOM     13  C   LIG    1       -3.138   2.401  -0.710  0.00  0.00    +0.047 C 
ATOM     14  C   LIG    1       -4.385   1.588  -0.432  0.00  0.00    +0.164 C 
ATOM     15  C   LIG    1       -4.062   0.351   0.315  0.00  0.00    -0.024 C 
ATOM     16  C   LIG    1       -2.852  -0.405  -0.142  0.00  0.00    -0.004 C 
ATOM     17  C   LIG    1       -1.481   0.478  -2.009  0.00  0.00    +0.011 C 
ATOM     18  C   LIG    1        0.748   0.746  -0.491  0.00  0.00    -0.004 C 
ATOM     19  C   LIG    1        1.970   0.389   0.270  0.00  0.00    +0.000 C 
ENDROOT
BRANCH   4  20
ATOM     20  N   LIG    1        5.509   0.310  -0.141  0.00  0.00    +0.382 N 
ATOM     21  C   LIG    1        6.555  -0.419   0.530  0.00  0.00    -0.075 C 
ATOM     22  C   LIG    1        7.911   0.290   0.418  0.00  0.00    -0.018 C 
ATOM     23  C   LIG    1        7.939   1.545   1.256  0.00  0.00    -0.004 C 
ATOM     24  C   LIG    1        6.505   2.092   1.244  0.00  0.00    -0.018 C 
ATOM     25  C   LIG    1        5.893   1.731  -0.067  0.00  0.00    -0.075 C 
ATOM     26  C   LIG    1        5.529  -0.039  -1.524  0.00  0.00    -0.091 C 
ENDBRANCH   4  20
BRANCH  15  27
ATOM     27  N   LIG    1       -5.169  -0.568   0.468  0.00  0.00    +0.382 N 
ATOM     28  C   LIG    1       -6.071   0.013   1.452  0.00  0.00    -0.091 C 
ATOM     29  C   LIG    1       -4.660  -1.823   1.002  0.00  0.00    -0.075 C 
ATOM     30  C   LIG    1       -5.731  -2.823   1.323  0.00  0.00    -0.018 C 
ATOM     31  C   LIG    1       -6.767  -2.952   0.256  0.00  0.00    -0.004 C 
ATOM     32  C   LIG    1       -7.112  -1.678  -0.426  0.00  0.00    -0.018 C 
ATOM     33  C   LIG    1       -5.931  -0.782  -0.733  0.00  0.00    -0.075 C 
ENDBRANCH  15  27
BRANCH   3  34
ATOM     34  O   LIG    1        4.449  -2.216   0.078  0.00  0.00    -0.463 OA
BRANCH  34  35
ATOM     35  C   LIG    1        4.781  -3.372   0.810  0.00  0.00    +0.304 C 
ATOM     36  O   LIG    1        4.339  -3.437   1.974  0.00  0.00    -0.251 OA
ATOM     37  C   LIG    1        5.611  -4.447   0.219  0.00  0.00    +0.136 C 
ENDBRANCH  34  35
ENDBRANCH   3  34
BRANCH  14  38
ATOM     38  O   LIG    1       -5.183   2.424   0.407  0.00  0.00    -0.463 OA
BRANCH  38  39
ATOM     39  C   LIG    1       -6.352   3.025   0.047  0.00  0.00    +0.304 C 
ATOM     40  C   LIG    1       -7.063   3.865   1.046  0.00  0.00    +0.136 C 
ATOM     41  O   LIG    1       -6.803   2.863  -1.109  0.00  0.00    -0.251 OA
ENDBRANCH  38  39
ENDBRANCH  14  38
TORSDOF 6
