REMARK  Name = molecules/GVGLGOZIDCSQPN-PVHGPHFFSA-N.pdb
REMARK                            x       y       z     vdW  Elec       q    Type
REMARK                         _______ _______ _______ _____ _____    ______ ____
ROOT
ATOM      1  C   LIG    1       -0.957   1.982  -0.167  0.00  0.00    +0.240 C 
ATOM      2  C   LIG    1       -0.328   0.944   0.713  0.00  0.00    +0.229 C 
ATOM      3  O   LIG    1        1.109   0.925   0.603  0.00  0.00    -0.480 OA
ATOM      4  C   LIG    1        1.464  -0.051  -0.320  0.00  0.00    +0.167 A 
ATOM      5  C   LIG    1        0.405  -0.878  -0.468  0.00  0.00    +0.012 A 
ATOM      6  C   LIG    1        0.331  -1.976  -1.289  0.00  0.00    -0.038 A 
ATOM      7  C   LIG    1       -0.918  -2.748  -1.312  0.00  0.00    +0.055 C 
ATOM      8  C   LIG    1       -2.109  -2.063  -0.749  0.00  0.00    +0.068 C 
ATOM      9  N   LIG    1       -2.626  -2.683   0.451  0.00  0.00    -0.301 NA
ATOM     10  C   LIG    1       -2.182  -2.048   1.661  0.00  0.00    +0.085 C 
ATOM     11  C   LIG    1       -0.848  -1.373   1.556  0.00  0.00    +0.031 C 
ATOM     12  C   LIG    1       -4.079  -2.648   0.470  0.00  0.00    +0.105 C 
ATOM     13  C   LIG    1       -1.956  -0.601  -0.459  0.00  0.00    +0.043 C 
ATOM     14  C   LIG    1       -1.821   0.252  -1.664  0.00  0.00    -0.021 C 
ATOM     15  C   LIG    1        1.438  -2.265  -2.030  0.00  0.00    +0.008 A 
ATOM     16  C   LIG    1        2.577  -1.464  -1.939  0.00  0.00    +0.050 A 
ATOM     17  C   LIG    1        2.593  -0.354  -1.083  0.00  0.00    +0.173 A 
ATOM     18  C   LIG    1       -0.712  -0.459   0.384  0.00  0.00    +0.049 C 
ATOM     19  C   LIG    1       -1.344   1.474  -1.500  0.00  0.00    +0.017 C 
ENDROOT
BRANCH   1  20
ATOM     20  O   LIG    1       -0.110   3.083  -0.210  0.00  0.00    -0.454 OA
BRANCH  20  21
ATOM     21  C   LIG    1       -0.501   4.299   0.313  0.00  0.00    +0.305 C 
ATOM     22  O   LIG    1       -1.647   4.358   0.821  0.00  0.00    -0.251 OA
ATOM     23  C   LIG    1        0.389   5.506   0.282  0.00  0.00    +0.136 C 
ENDBRANCH  20  21
ENDBRANCH   1  20
BRANCH  17  24
ATOM     24  O   LIG    1        3.704   0.460  -0.969  0.00  0.00    -0.422 OA
BRANCH  24  25
ATOM     25  C   LIG    1        4.717   0.236  -0.043  0.00  0.00    +0.309 C 
ATOM     26  O   LIG    1        4.590  -0.764   0.715  0.00  0.00    -0.251 OA
ATOM     27  C   LIG    1        5.910   1.089   0.098  0.00  0.00    +0.136 C 
ENDBRANCH  24  25
ENDBRANCH  17  24
TORSDOF 4
