REMARK  Name = molecules/GVOUFPWUYJWQSK-UHFFFAOYSA-N.pdb
REMARK                            x       y       z     vdW  Elec       q    Type
REMARK                         _______ _______ _______ _____ _____    ______ ____
ROOT
ATOM      1  C   LIG    1       -0.040  -0.622   0.130  0.00  0.00    -0.011 C 
ATOM      2  C   LIG    1       -0.175  -1.832   0.582  0.00  0.00    -0.061 C 
ATOM      3  C   LIG    1        0.988  -2.587   1.109  0.00  0.00    +0.031 C 
ATOM      4  C   LIG    1        0.786  -4.090   0.916  0.00  0.00    +0.004 C 
ATOM      5  C   LIG    1       -0.477  -4.551   1.605  0.00  0.00    +0.001 C 
ATOM      6  C   LIG    1       -1.441  -3.442   1.859  0.00  0.00    +0.004 C 
ATOM      7  C   LIG    1       -1.466  -2.540   0.620  0.00  0.00    +0.031 C 
ENDROOT
BRANCH   1   8
ATOM      8  C   LIG    1        1.224   0.138   0.103  0.00  0.00    -0.017 A 
ATOM      9  C   LIG    1        2.011   0.220   1.208  0.00  0.00    +0.012 A 
ATOM     10  C   LIG    1        3.179   0.978   1.152  0.00  0.00    +0.047 A 
ATOM     11  C   LIG    1        3.591   1.661   0.028  0.00  0.00    +0.132 A 
ATOM     12  C   LIG    1        2.764   1.562  -1.099  0.00  0.00    +0.047 A 
ATOM     13  C   LIG    1        1.607   0.812  -1.048  0.00  0.00    +0.012 A 
BRANCH  11  14
ATOM     14  O   LIG    1        4.755   2.417  -0.027  0.00  0.00    -0.426 OA
BRANCH  14  15
ATOM     15  C   LIG    1        5.990   1.954  -0.399  0.00  0.00    +0.309 C 
ATOM     16  C   LIG    1        7.213   2.802  -0.445  0.00  0.00    +0.136 C 
ATOM     17  O   LIG    1        6.087   0.727  -0.723  0.00  0.00    -0.251 OA
ENDBRANCH  14  15
ENDBRANCH  11  14
ENDBRANCH   1   8
BRANCH   1  18
ATOM     18  C   LIG    1       -1.177   0.143  -0.400  0.00  0.00    -0.017 A 
ATOM     19  C   LIG    1       -1.331   1.439   0.042  0.00  0.00    +0.012 A 
ATOM     20  C   LIG    1       -2.389   2.230  -0.395  0.00  0.00    +0.047 A 
ATOM     21  C   LIG    1       -3.271   1.675  -1.280  0.00  0.00    +0.132 A 
ATOM     22  C   LIG    1       -3.105   0.377  -1.714  0.00  0.00    +0.047 A 
ATOM     23  C   LIG    1       -2.042  -0.430  -1.281  0.00  0.00    +0.012 A 
BRANCH  21  24
ATOM     24  O   LIG    1       -4.330   2.472  -1.713  0.00  0.00    -0.426 OA
BRANCH  24  25
ATOM     25  C   LIG    1       -5.549   2.478  -1.024  0.00  0.00    +0.309 C 
ATOM     26  O   LIG    1       -5.612   1.724  -0.006  0.00  0.00    -0.251 OA
ATOM     27  C   LIG    1       -6.713   3.311  -1.444  0.00  0.00    +0.136 C 
ENDBRANCH  24  25
ENDBRANCH  21  24
ENDBRANCH   1  18
TORSDOF 6
