REMARK  Name = molecules/GVTLAVKAVSKBKK-UHFFFAOYSA-N.pdb
REMARK                            x       y       z     vdW  Elec       q    Type
REMARK                         _______ _______ _______ _____ _____    ______ ____
ROOT
ATOM      1  C   LIG    1        1.477   0.323   0.397  0.00  0.00    +0.265 C 
ATOM      2  O   LIG    1        1.350   0.327   1.667  0.00  0.00    -0.268 OA
ATOM      3  N   LIG    1        0.448   0.820  -0.424  0.00  0.00    -0.297 N 
ATOM      4  H   LIG    1        0.525   0.828  -1.457  0.00  0.00    +0.150 HD
ENDROOT
BRANCH   1   5
ATOM      5  C   LIG    1        2.690  -0.199  -0.187  0.00  0.00    +0.143 A 
ATOM      6  N   LIG    1        3.648  -0.666   0.663  0.00  0.00    -0.247 NA
ATOM      7  C   LIG    1        4.814  -1.173   0.234  0.00  0.00    +0.131 A 
ATOM      8  C   LIG    1        4.990  -1.196  -1.134  0.00  0.00    +0.130 A 
ATOM      9  N   LIG    1        4.069  -0.746  -1.990  0.00  0.00    -0.259 NA
ATOM     10  C   LIG    1        2.893  -0.235  -1.538  0.00  0.00    +0.143 A 
ENDBRANCH   1   5
BRANCH   3  11
ATOM     11  C   LIG    1       -0.769   1.341   0.236  0.00  0.00    +0.192 C 
BRANCH  11  12
ATOM     12  N   LIG    1       -1.345   0.252   1.003  0.00  0.00    -0.283 NA
ATOM     13  C   LIG    1       -2.446   0.668   1.811  0.00  0.00    +0.114 C 
ATOM     14  C   LIG    1       -3.614   0.968   0.912  0.00  0.00    +0.175 C 
ATOM     15  O   LIG    1       -4.023  -0.241   0.351  0.00  0.00    -0.377 OA
ATOM     16  C   LIG    1       -3.041  -0.730  -0.482  0.00  0.00    +0.175 C 
ATOM     17  C   LIG    1       -1.702  -0.870   0.197  0.00  0.00    +0.114 C 
ENDBRANCH  11  12
ENDBRANCH   3  11
TORSDOF 3
