REMARK  Name = molecules/GWUSZQUVEVMBPI-UHFFFAOYSA-N.pdb
REMARK                            x       y       z     vdW  Elec       q    Type
REMARK                         _______ _______ _______ _____ _____    ______ ____
ROOT
ATOM      1  C   LIG    1       -3.687  -1.129   0.969  0.00  0.00    +0.138 C 
ATOM      2  N   LIG    1       -2.552  -1.063   0.097  0.00  0.00    -0.272 N 
ATOM      3  C   LIG    1       -1.775   0.155   0.191  0.00  0.00    +0.045 A 
ATOM      4  C   LIG    1       -2.523   1.230   0.592  0.00  0.00    +0.026 A 
ATOM      5  C   LIG    1       -1.901   2.462   0.597  0.00  0.00    +0.034 A 
ATOM      6  C   LIG    1       -0.568   2.644   0.215  0.00  0.00    +0.127 A 
ATOM      7  C   LIG    1        0.158   1.551  -0.182  0.00  0.00    +0.044 A 
ATOM      8  C   LIG    1       -0.447   0.314  -0.186  0.00  0.00    +0.024 A 
ATOM      9  C   LIG    1        0.458  -0.761  -0.565  0.00  0.00    +0.075 C 
ATOM     10  N   LIG    1        0.121  -1.798  -1.298  0.00  0.00    -0.273 NA
ATOM     11  C   LIG    1       -1.191  -2.121  -1.881  0.00  0.00    +0.238 C 
ATOM     12  C   LIG    1       -2.235  -2.107  -0.811  0.00  0.00    +0.241 C 
ATOM     13  O   LIG    1       -2.909  -3.132  -0.700  0.00  0.00    -0.273 OA
ENDROOT
BRANCH   9  14
ATOM     14  C   LIG    1        1.811  -0.669  -0.112  0.00  0.00    +0.001 A 
ATOM     15  C   LIG    1        2.370   0.198   0.764  0.00  0.00    +0.010 A 
ATOM     16  C   LIG    1        3.715   0.253   1.053  0.00  0.00    +0.001 A 
ATOM     17  C   LIG    1        4.579  -0.622   0.429  0.00  0.00    +0.000 A 
ATOM     18  C   LIG    1        4.062  -1.533  -0.474  0.00  0.00    +0.001 A 
ATOM     19  C   LIG    1        2.713  -1.554  -0.735  0.00  0.00    +0.010 A 
ENDBRANCH   9  14
BRANCH   6  20
ATOM     20  N   LIG    1        0.010   3.946   0.249  0.00  0.00    +0.056 N 
ATOM     21  O   LIG    1       -0.683   4.902   0.623  0.00  0.00    -0.126 OA
ATOM     22  O   LIG    1        1.307   4.167  -0.118  0.00  0.00    -0.126 OA
ENDBRANCH   6  20
TORSDOF 2
