REMARK  Name = molecules/GWWLWDURRGNSRS-UHFFFAOYSA-N.pdb
REMARK                            x       y       z     vdW  Elec       q    Type
REMARK                         _______ _______ _______ _____ _____    ______ ____
ROOT
ATOM      1  C   LIG    1        1.091  -0.760   0.264  0.00  0.00    -0.017 C 
ATOM      2  C   LIG    1       -0.145  -0.354   0.183  0.00  0.00    -0.014 C 
ATOM      3  C   LIG    1       -1.251  -1.366   0.175  0.00  0.00    -0.014 A 
ATOM      4  C   LIG    1       -0.977  -2.693   0.244  0.00  0.00    +0.009 A 
ATOM      5  C   LIG    1       -2.044  -3.601   0.241  0.00  0.00    +0.001 A 
ATOM      6  C   LIG    1       -3.354  -3.208   0.171  0.00  0.00    +0.000 A 
ATOM      7  C   LIG    1       -3.593  -1.857   0.103  0.00  0.00    +0.005 A 
ATOM      8  C   LIG    1       -2.551  -0.927   0.104  0.00  0.00    -0.030 A 
ATOM      9  C   LIG    1       -2.956   0.462   0.018  0.00  0.00    +0.016 C 
ATOM     10  C   LIG    1       -3.880   0.718   1.223  0.00  0.00    +0.021 C 
ATOM     11  C   LIG    1       -1.892   1.438   0.040  0.00  0.00    -0.030 A 
ATOM     12  C   LIG    1       -2.257   2.765  -0.002  0.00  0.00    +0.005 A 
ATOM     13  C   LIG    1       -1.334   3.780   0.026  0.00  0.00    +0.000 A 
ATOM     14  C   LIG    1       -0.022   3.394   0.100  0.00  0.00    +0.001 A 
ATOM     15  C   LIG    1        0.387   2.055   0.146  0.00  0.00    +0.009 A 
ATOM     16  C   LIG    1       -3.772   0.687  -1.265  0.00  0.00    +0.021 C 
ATOM     17  C   LIG    1       -0.566   1.041   0.114  0.00  0.00    -0.014 A 
ENDROOT
BRANCH   1  18
ATOM     18  C   LIG    1        2.409  -0.168   0.295  0.00  0.00    +0.043 C 
BRANCH  18  19
ATOM     19  C   LIG    1        3.495  -1.309   0.206  0.00  0.00    +0.088 C 
BRANCH  19  20
ATOM     20  N   LIG    1        4.808  -0.776   0.235  0.00  0.00    -0.308 NA
ATOM     21  C   LIG    1        5.249  -0.187   1.452  0.00  0.00    +0.104 C 
ATOM     22  C   LIG    1        5.192   0.006  -0.903  0.00  0.00    +0.104 C 
ENDBRANCH  19  20
ENDBRANCH  18  19
ENDBRANCH   1  18
TORSDOF 3
