REMARK  Name = molecules/GXDALQBWZGODGZ-UHFFFAOYSA-N.pdb
REMARK                            x       y       z     vdW  Elec       q    Type
REMARK                         _______ _______ _______ _____ _____    ______ ____
ROOT
ATOM      1  N   LIG    1       -2.054  -0.730  -0.068  0.00  0.00    -0.312 N 
ATOM      2  H   LIG    1       -2.411  -1.515   0.509  0.00  0.00    +0.149 HD
ENDROOT
BRANCH   1   4
ATOM      3  N   LIG    1       -4.316  -0.066  -0.866  0.00  0.00    -0.307 N 
ATOM      4  C   LIG    1       -2.985   0.048  -0.810  0.00  0.00    +0.197 A 
ATOM      5  N   LIG    1       -2.638   1.054  -1.617  0.00  0.00    -0.214 NA
ATOM      6  C   LIG    1       -3.713   1.593  -2.196  0.00  0.00    +0.091 A 
ATOM      7  C   LIG    1       -3.965   2.614  -3.090  0.00  0.00    +0.030 A 
ATOM      8  C   LIG    1       -5.242   2.925  -3.506  0.00  0.00    +0.002 A 
ATOM      9  C   LIG    1       -6.311   2.208  -3.025  0.00  0.00    +0.002 A 
ATOM     10  C   LIG    1       -6.071   1.170  -2.117  0.00  0.00    +0.028 A 
ATOM     11  C   LIG    1       -4.800   0.874  -1.715  0.00  0.00    +0.070 A 
BRANCH   3  12
ATOM     12  C   LIG    1       -5.151  -1.009  -0.151  0.00  0.00    +0.160 C 
BRANCH  12  13
ATOM     13  C   LIG    1       -5.596  -0.547   1.168  0.00  0.00    -0.027 A 
ATOM     14  C   LIG    1       -4.871  -0.875   2.288  0.00  0.00    +0.008 A 
ATOM     15  C   LIG    1       -5.266  -0.459   3.548  0.00  0.00    +0.038 A 
ATOM     16  C   LIG    1       -6.401   0.299   3.722  0.00  0.00    +0.123 A 
ATOM     17  F   LIG    1       -6.760   0.689   4.960  0.00  0.00    -0.205 F 
ATOM     18  C   LIG    1       -7.130   0.629   2.605  0.00  0.00    +0.038 A 
ATOM     19  C   LIG    1       -6.729   0.209   1.341  0.00  0.00    +0.008 A 
ENDBRANCH  12  13
ENDBRANCH   3  12
ENDBRANCH   1   4
BRANCH   1  20
ATOM     20  C   LIG    1       -0.620  -0.448  -0.116  0.00  0.00    +0.075 C 
ATOM     21  C   LIG    1        0.057  -1.335   0.873  0.00  0.00    +0.037 C 
ATOM     22  C   LIG    1        1.459  -1.753   0.403  0.00  0.00    +0.086 C 
ATOM     23  N   LIG    1        1.927  -0.674  -0.414  0.00  0.00    -0.302 NA
ATOM     24  C   LIG    1        1.277  -0.890  -1.718  0.00  0.00    +0.086 C 
ATOM     25  C   LIG    1       -0.186  -0.614  -1.536  0.00  0.00    +0.037 C 
BRANCH  23  26
ATOM     26  C   LIG    1        3.332  -0.526  -0.553  0.00  0.00    +0.089 C 
BRANCH  26  27
ATOM     27  C   LIG    1        3.958  -0.167   0.767  0.00  0.00    +0.050 C 
BRANCH  27  28
ATOM     28  C   LIG    1        5.411   0.014   0.682  0.00  0.00    -0.046 A 
ATOM     29  C   LIG    1        6.274  -1.032   0.886  0.00  0.00    +0.007 A 
ATOM     30  C   LIG    1        7.652  -0.835   0.799  0.00  0.00    +0.046 A 
ATOM     31  C   LIG    1        8.142   0.401   0.511  0.00  0.00    +0.120 A 
ATOM     32  C   LIG    1        7.292   1.472   0.302  0.00  0.00    +0.046 A 
ATOM     33  C   LIG    1        5.925   1.256   0.393  0.00  0.00    +0.007 A 
BRANCH  31  34
ATOM     34  O   LIG    1        9.524   0.647   0.413  0.00  0.00    -0.495 OA
ATOM     35  C   LIG    1       10.390  -0.430   0.624  0.00  0.00    +0.277 C 
ENDBRANCH  31  34
ENDBRANCH  27  28
ENDBRANCH  26  27
ENDBRANCH  23  26
ENDBRANCH   1  20
TORSDOF 8
