REMARK  Name = molecules/GXESHMAMLJKROZ-IAPPQJPRSA-N.pdb
REMARK                            x       y       z     vdW  Elec       q    Type
REMARK                         _______ _______ _______ _____ _____    ______ ____
ROOT
ATOM      1  C   LIG    1       -2.351   4.255  -0.500  0.00  0.00    +0.046 A 
ATOM      2  C   LIG    1       -3.598   4.638  -0.071  0.00  0.00    +0.117 A 
ATOM      3  C   LIG    1       -4.526   3.656   0.176  0.00  0.00    +0.049 A 
ATOM      4  C   LIG    1       -4.217   2.301  -0.001  0.00  0.00    -0.040 A 
ATOM      5  C   LIG    1       -5.333   1.337   0.331  0.00  0.00    +0.036 C 
ATOM      6  C   LIG    1       -4.563   0.110   0.878  0.00  0.00    +0.014 C 
ATOM      7  C   LIG    1       -3.760  -0.376  -0.344  0.00  0.00    +0.031 C 
ATOM      8  C   LIG    1       -2.602   0.459  -0.638  0.00  0.00    +0.057 C 
ATOM      9  C   LIG    1       -2.982   1.904  -0.428  0.00  0.00    -0.036 A 
ATOM     10  C   LIG    1       -2.066   2.916  -0.669  0.00  0.00    +0.008 A 
ENDROOT
BRANCH   7  11
ATOM     11  C   LIG    1       -3.671  -1.824  -0.396  0.00  0.00    -0.043 A 
ATOM     12  C   LIG    1       -4.890  -2.501  -0.232  0.00  0.00    +0.004 A 
ATOM     13  C   LIG    1       -4.978  -3.873  -0.265  0.00  0.00    +0.000 A 
ATOM     14  C   LIG    1       -3.845  -4.630  -0.464  0.00  0.00    +0.000 A 
ATOM     15  C   LIG    1       -2.654  -3.972  -0.625  0.00  0.00    +0.000 A 
ATOM     16  C   LIG    1       -2.561  -2.584  -0.593  0.00  0.00    +0.004 A 
ENDBRANCH   7  11
BRANCH   8  17
ATOM     17  C   LIG    1       -1.300   0.162  -0.055  0.00  0.00    -0.039 A 
ATOM     18  C   LIG    1       -1.039  -0.240   1.222  0.00  0.00    +0.008 A 
ATOM     19  C   LIG    1        0.258  -0.491   1.671  0.00  0.00    +0.046 A 
ATOM     20  C   LIG    1        1.332  -0.342   0.837  0.00  0.00    +0.121 A 
ATOM     21  C   LIG    1        1.107   0.061  -0.454  0.00  0.00    +0.046 A 
ATOM     22  C   LIG    1       -0.162   0.301  -0.874  0.00  0.00    +0.008 A 
BRANCH  20  23
ATOM     23  O   LIG    1        2.618  -0.588   1.263  0.00  0.00    -0.491 OA
BRANCH  23  24
ATOM     24  C   LIG    1        3.762  -0.447   0.440  0.00  0.00    +0.244 C 
BRANCH  24  25
ATOM     25  C   LIG    1        4.970  -0.824   1.260  0.00  0.00    +0.125 C 
BRANCH  25  26
ATOM     26  N   LIG    1        6.217  -0.729   0.574  0.00  0.00    -0.299 NA
ATOM     27  C   LIG    1        6.596   0.638   0.271  0.00  0.00    +0.084 C 
ATOM     28  C   LIG    1        7.852   0.404  -0.570  0.00  0.00    +0.017 C 
ATOM     29  C   LIG    1        7.663  -0.962  -1.192  0.00  0.00    +0.017 C 
ATOM     30  C   LIG    1        6.321  -1.470  -0.646  0.00  0.00    +0.084 C 
ENDBRANCH  25  26
ENDBRANCH  24  25
ENDBRANCH  23  24
ENDBRANCH  20  23
ENDBRANCH   8  17
BRANCH   2  31
ATOM     31  O   LIG    1       -3.871   5.986   0.094  0.00  0.00    -0.507 OA
ATOM     32  H   LIG    1       -3.713   6.478   0.972  0.00  0.00    +0.292 HD
ENDBRANCH   2  31
TORSDOF 7
