REMARK  Name = molecules/GXRZIMHKGDIBEW-UHFFFAOYSA-N.pdb
REMARK                            x       y       z     vdW  Elec       q    Type
REMARK                         _______ _______ _______ _____ _____    ______ ____
ROOT
ATOM      1  C   LIG    1        0.449   0.481   0.107  0.00  0.00    +0.174 C 
ATOM      2  C   LIG    1       -0.229  -0.009   1.335  0.00  0.00    +0.061 C 
ATOM      3  C   LIG    1       -1.400  -0.917   1.099  0.00  0.00    +0.005 C 
ATOM      4  C   LIG    1       -2.363  -0.487   0.058  0.00  0.00    +0.000 C 
ATOM      5  C   LIG    1       -1.755   0.514  -0.872  0.00  0.00    +0.005 C 
ATOM      6  C   LIG    1       -0.323   0.026  -1.143  0.00  0.00    +0.061 C 
ENDROOT
BRANCH   1   7
ATOM      7  C   LIG    1        0.389   1.963   0.047  0.00  0.00    -0.058 C 
ATOM      8  C   LIG    1        0.340   3.170   0.020  0.00  0.00    +0.008 C 
ENDBRANCH   1   7
BRANCH   1   9
ATOM      9  O   LIG    1        1.768   0.139  -0.068  0.00  0.00    -0.431 OA
BRANCH   9  10
ATOM     10  C   LIG    1        2.353  -1.074  -0.253  0.00  0.00    +0.399 C 
ATOM     11  O   LIG    1        1.579  -2.039  -0.266  0.00  0.00    -0.227 OA
ATOM     12  N   LIG    1        3.764  -1.150  -0.413  0.00  0.00    -0.295 N 
ATOM     13  H   LIG    1        4.385  -1.147   0.407  0.00  0.00    +0.148 HD
ATOM     14  H   LIG    1        4.198  -1.211  -1.362  0.00  0.00    +0.148 HD
ENDBRANCH   9  10
ENDBRANCH   1   9
TORSDOF 3
