REMARK  Name = molecules/GYDJEQRTZSCIOI-LJGSYFOKSA-N.pdb
REMARK                            x       y       z     vdW  Elec       q    Type
REMARK                         _______ _______ _______ _____ _____    ______ ____
ROOT
ATOM      1  C   LIG    1        1.124  -0.344  -0.299  0.00  0.00    +0.003 C 
ATOM      2  C   LIG    1        0.311  -1.444   0.290  0.00  0.00    +0.005 C 
ATOM      3  C   LIG    1       -1.069  -1.336  -0.379  0.00  0.00    +0.015 C 
ATOM      4  C   LIG    1       -1.675  -0.119   0.290  0.00  0.00    +0.098 C 
ATOM      5  C   LIG    1       -0.935   1.116  -0.106  0.00  0.00    +0.015 C 
ATOM      6  C   LIG    1        0.517   0.994  -0.284  0.00  0.00    +0.005 C 
ENDROOT
BRANCH   4   7
ATOM      7  C   LIG    1       -3.102  -0.007  -0.126  0.00  0.00    +0.308 C 
ATOM      8  O   LIG    1       -3.622  -0.842  -0.910  0.00  0.00    -0.251 OA
BRANCH   7   9
ATOM      9  O   LIG    1       -3.859   1.037   0.366  0.00  0.00    -0.480 OA
ATOM     10  H   LIG    1       -3.619   2.012   0.242  0.00  0.00    +0.295 HD
ENDBRANCH   7   9
ENDBRANCH   4   7
BRANCH   1  11
ATOM     11  C   LIG    1        2.474  -0.340   0.432  0.00  0.00    +0.081 C 
BRANCH  11  12
ATOM     12  N   LIG    1        3.265   0.724  -0.137  0.00  0.00    -0.330 NA
ATOM     13  H   LIG    1        4.143   0.881   0.366  0.00  0.00    +0.118 HD
ATOM     14  H   LIG    1        3.493   0.498  -1.142  0.00  0.00    +0.118 HD
ENDBRANCH  11  12
ENDBRANCH   1  11
TORSDOF 4
