REMARK  Name = molecules/GYJSIOWQEUTITA-RUZDIDTESA-N.pdb
REMARK                            x       y       z     vdW  Elec       q    Type
REMARK                         _______ _______ _______ _____ _____    ______ ____
ROOT
ATOM      1  C   LIG    1        0.625  -0.729   0.629  0.00  0.00    +0.136 A 
ATOM      2  C   LIG    1       -0.672  -0.860   1.075  0.00  0.00    +0.052 A 
ATOM      3  C   LIG    1       -1.509   0.222   1.275  0.00  0.00    -0.011 A 
ATOM      4  C   LIG    1       -0.991   1.494   1.007  0.00  0.00    +0.052 A 
ATOM      5  C   LIG    1        0.301   1.661   0.561  0.00  0.00    +0.136 A 
ATOM      6  C   LIG    1        1.088   0.545   0.379  0.00  0.00    +0.092 A 
ENDROOT
BRANCH   1   7
ATOM      7  O   LIG    1        1.373  -1.882   0.463  0.00  0.00    -0.422 OA
BRANCH   7   8
ATOM      8  C   LIG    1        2.127  -2.375   1.503  0.00  0.00    +0.344 C 
ATOM      9  O   LIG    1        2.131  -1.775   2.596  0.00  0.00    -0.245 OA
BRANCH   8  10
ATOM     10  C   LIG    1        2.904  -3.579   1.321  0.00  0.00    +0.059 A 
ATOM     11  C   LIG    1        3.685  -4.135   2.317  0.00  0.00    +0.015 A 
ATOM     12  C   LIG    1        4.409  -5.292   2.082  0.00  0.00    +0.004 A 
ATOM     13  C   LIG    1        4.383  -5.932   0.860  0.00  0.00    -0.050 A 
ATOM     14  C   LIG    1        5.174  -7.181   0.632  0.00  0.00    +0.044 C 
ATOM     15  C   LIG    1        3.605  -5.381  -0.136  0.00  0.00    +0.004 A 
ATOM     16  C   LIG    1        2.894  -4.235   0.111  0.00  0.00    +0.015 A 
ENDBRANCH   8  10
ENDBRANCH   7   8
ENDBRANCH   1   7
BRANCH   3  17
ATOM     17  C   LIG    1       -2.898   0.059   1.753  0.00  0.00    +0.158 C 
BRANCH  17  18
ATOM     18  O   LIG    1       -3.011  -0.842   2.807  0.00  0.00    -0.386 OA
ATOM     19  H   LIG    1       -2.122  -1.004   3.243  0.00  0.00    +0.210 HD
ENDBRANCH  17  18
BRANCH  17  20
ATOM     20  C   LIG    1       -3.877  -0.258   0.658  0.00  0.00    +0.117 C 
BRANCH  20  21
ATOM     21  N   LIG    1       -3.716  -1.559   0.085  0.00  0.00    -0.309 NA
ATOM     22  H   LIG    1       -2.796  -1.690  -0.393  0.00  0.00    +0.123 HD
BRANCH  21  23
ATOM     23  C   LIG    1       -4.752  -1.687  -0.954  0.00  0.00    +0.011 C 
ATOM     24  C   LIG    1       -6.117  -1.599  -0.288  0.00  0.00    +0.027 C 
ATOM     25  C   LIG    1       -4.643  -3.038  -1.604  0.00  0.00    +0.027 C 
ATOM     26  C   LIG    1       -4.608  -0.561  -1.928  0.00  0.00    +0.027 C 
ENDBRANCH  21  23
ENDBRANCH  20  21
ENDBRANCH  17  20
ENDBRANCH   3  17
BRANCH   5  27
ATOM     27  O   LIG    1        0.843   2.894   0.288  0.00  0.00    -0.422 OA
BRANCH  27  28
ATOM     28  C   LIG    1        0.804   3.531  -0.930  0.00  0.00    +0.344 C 
ATOM     29  O   LIG    1        0.236   2.966  -1.884  0.00  0.00    -0.245 OA
BRANCH  28  30
ATOM     30  C   LIG    1        1.435   4.842  -1.034  0.00  0.00    +0.059 A 
ATOM     31  C   LIG    1        2.055   5.439   0.042  0.00  0.00    +0.015 A 
ATOM     32  C   LIG    1        2.654   6.684  -0.059  0.00  0.00    +0.004 A 
ATOM     33  C   LIG    1        2.652   7.377  -1.248  0.00  0.00    -0.050 A 
ATOM     34  C   LIG    1        3.292   8.718  -1.373  0.00  0.00    +0.044 C 
ATOM     35  C   LIG    1        2.036   6.793  -2.334  0.00  0.00    +0.004 A 
ATOM     36  C   LIG    1        1.436   5.538  -2.222  0.00  0.00    +0.015 A 
ENDBRANCH  28  30
ENDBRANCH  27  28
ENDBRANCH   5  27
TORSDOF 11
