REMARK  Name = molecules/GZKDXUIWCNCNBJ-UHFFFAOYSA-N.pdb
REMARK                            x       y       z     vdW  Elec       q    Type
REMARK                         _______ _______ _______ _____ _____    ______ ____
ROOT
ATOM      1  C   LIG    1       -0.246   1.799   0.091  0.00  0.00    +0.109 A 
ATOM      2  C   LIG    1        0.566   1.911   1.198  0.00  0.00    +0.029 A 
ATOM      3  C   LIG    1        1.833   1.336   1.186  0.00  0.00    +0.005 A 
ATOM      4  C   LIG    1        2.320   0.648   0.096  0.00  0.00    -0.046 A 
ATOM      5  C   LIG    1        1.512   0.535  -1.010  0.00  0.00    +0.005 A 
ATOM      6  C   LIG    1        0.241   1.111  -1.002  0.00  0.00    +0.029 A 
ENDROOT
BRANCH   1   7
ATOM      7  S   LIG    1       -1.855   2.507   0.063  0.00  0.00    +0.076 S 
ATOM      8  O   LIG    1       -1.832   3.736   0.905  0.00  0.00    -0.150 OA
ATOM      9  O   LIG    1       -2.191   2.938  -1.352  0.00  0.00    -0.150 OA
BRANCH   7  10
ATOM     10  N   LIG    1       -3.030   1.388   0.635  0.00  0.00    -0.169 N 
ATOM     11  H   LIG    1       -2.892   0.944   1.563  0.00  0.00    +0.178 HD
ATOM     12  C   LIG    1       -4.153   1.096  -0.163  0.00  0.00    +0.319 C 
ATOM     13  N   LIG    1       -5.162   0.181   0.245  0.00  0.00    -0.295 N 
ATOM     14  H   LIG    1       -5.035  -0.284   1.194  0.00  0.00    +0.151 HD
ATOM     15  O   LIG    1       -4.283   1.653  -1.274  0.00  0.00    -0.251 OA
BRANCH  13  16
ATOM     16  C   LIG    1       -6.316  -0.117  -0.579  0.00  0.00    +0.074 C 
ATOM     17  C   LIG    1       -7.600   0.350   0.060  0.00  0.00    +0.022 C 
ATOM     18  C   LIG    1       -8.273  -0.658   0.920  0.00  0.00    +0.002 C 
ATOM     19  C   LIG    1       -8.359  -2.033   0.305  0.00  0.00    +0.000 C 
ATOM     20  C   LIG    1       -7.757  -2.076  -1.079  0.00  0.00    +0.002 C 
ATOM     21  C   LIG    1       -6.344  -1.550  -1.009  0.00  0.00    +0.022 C 
ENDBRANCH  13  16
ENDBRANCH   7  10
ENDBRANCH   1   7
BRANCH   4  22
ATOM     22  C   LIG    1        3.687   0.066   0.179  0.00  0.00    +0.054 C 
BRANCH  22  23
ATOM     23  C   LIG    1        4.700   1.051  -0.308  0.00  0.00    +0.109 C 
BRANCH  23  24
ATOM     24  N   LIG    1        6.015   0.476  -0.228  0.00  0.00    -0.310 N 
ATOM     25  C   LIG    1        6.551   0.089   1.015  0.00  0.00    +0.266 C 
ATOM     26  O   LIG    1        5.937   0.224   2.092  0.00  0.00    -0.268 OA
ATOM     27  H   LIG    1        6.583   0.340  -1.088  0.00  0.00    +0.149 HD
BRANCH  25  28
ATOM     28  C   LIG    1        7.910  -0.504   1.011  0.00  0.00    +0.168 A 
ATOM     29  N   LIG    1        8.607  -0.933   2.079  0.00  0.00    -0.073 NA
ATOM     30  O   LIG    1        9.770  -1.395   1.675  0.00  0.00    -0.359 OA
ATOM     31  C   LIG    1        9.902  -1.304   0.394  0.00  0.00    +0.135 A 
ATOM     32  C   LIG    1       11.047  -1.706  -0.459  0.00  0.00    +0.089 C 
ATOM     33  C   LIG    1        8.733  -0.738  -0.070  0.00  0.00    +0.080 A 
ENDBRANCH  25  28
ENDBRANCH  23  24
ENDBRANCH  22  23
ENDBRANCH   4  22
TORSDOF 7
