REMARK  Name = molecules/GZKLJWGUPQBVJQ-UHFFFAOYSA-N.pdb
REMARK                            x       y       z     vdW  Elec       q    Type
REMARK                         _______ _______ _______ _____ _____    ______ ____
ROOT
ATOM      1 CL   LIG    1       -2.557  -4.015  -3.734  0.00  0.00    -0.084 Cl
ATOM      2  C   LIG    1       -2.996  -2.792  -2.542  0.00  0.00    +0.042 A 
ATOM      3  C   LIG    1       -4.272  -2.836  -2.034  0.00  0.00    +0.022 A 
ATOM      4  C   LIG    1       -4.633  -1.896  -1.108  0.00  0.00    +0.028 A 
ATOM      5  C   LIG    1       -3.744  -0.928  -0.691  0.00  0.00    +0.054 A 
ATOM      6  N   LIG    1       -3.858   0.083   0.185  0.00  0.00    -0.316 N 
ATOM      7  C   LIG    1       -2.711   0.772   0.261  0.00  0.00    +0.096 A 
ATOM      8  C   LIG    1       -1.815   0.198  -0.591  0.00  0.00    -0.019 A 
ATOM      9  C   LIG    1       -2.456  -0.881  -1.202  0.00  0.00    +0.005 A 
ATOM     10  C   LIG    1       -2.100  -1.830  -2.134  0.00  0.00    +0.030 A 
ENDROOT
BRANCH   6  11
ATOM     11  C   LIG    1       -5.056   0.339   0.905  0.00  0.00    +0.047 A 
ATOM     12  C   LIG    1       -5.114   0.052   2.240  0.00  0.00    +0.029 A 
ATOM     13  C   LIG    1       -6.267   0.285   2.984  0.00  0.00    +0.040 A 
ATOM     14  C   LIG    1       -7.389   0.821   2.368  0.00  0.00    +0.124 A 
ATOM     15  F   LIG    1       -8.486   1.031   3.126  0.00  0.00    -0.205 F 
ATOM     16  C   LIG    1       -7.341   1.113   1.026  0.00  0.00    +0.040 A 
ATOM     17  C   LIG    1       -6.194   0.877   0.303  0.00  0.00    +0.029 A 
ENDBRANCH   6  11
BRANCH   8  18
ATOM     18  C   LIG    1       -0.406   0.558  -0.893  0.00  0.00    +0.023 C 
ATOM     19  C   LIG    1        0.047   1.791  -0.200  0.00  0.00    +0.023 C 
ATOM     20  C   LIG    1        1.471   1.918   0.151  0.00  0.00    +0.085 C 
ATOM     21  N   LIG    1        2.268   0.776  -0.287  0.00  0.00    -0.301 NA
ATOM     22  C   LIG    1        1.600  -0.365   0.294  0.00  0.00    +0.085 C 
ATOM     23  C   LIG    1        0.443  -0.653  -0.646  0.00  0.00    +0.023 C 
BRANCH  21  24
ATOM     24  C   LIG    1        3.641   0.927   0.034  0.00  0.00    +0.103 C 
BRANCH  24  25
ATOM     25  C   LIG    1        4.451  -0.213  -0.522  0.00  0.00    +0.124 C 
BRANCH  25  26
ATOM     26  N   LIG    1        5.861  -0.071  -0.220  0.00  0.00    -0.283 N 
ATOM     27  C   LIG    1        6.512  -0.592   0.954  0.00  0.00    +0.128 C 
ATOM     28  C   LIG    1        7.872   0.028   0.964  0.00  0.00    +0.124 C 
ATOM     29  N   LIG    1        8.103   0.545  -0.352  0.00  0.00    -0.298 N 
ATOM     30  H   LIG    1        9.014   0.829  -0.747  0.00  0.00    +0.150 HD
ATOM     31  C   LIG    1        6.835   0.587  -0.999  0.00  0.00    +0.302 C 
ATOM     32  O   LIG    1        6.654   1.154  -2.129  0.00  0.00    -0.253 OA
ENDBRANCH  25  26
ENDBRANCH  24  25
ENDBRANCH  21  24
ENDBRANCH   8  18
TORSDOF 5
