REMARK  Name = molecules/GZSOSUNBTXMUFQ-YFAPSIMESA-N.pdb
REMARK                            x       y       z     vdW  Elec       q    Type
REMARK                         _______ _______ _______ _____ _____    ______ ____
ROOT
ATOM      1  C   LIG    1       -0.339  -2.827  -0.096  0.00  0.00    +0.339 C 
ATOM      2  C   LIG    1       -0.102  -4.203   0.500  0.00  0.00    +0.214 C 
ATOM      3  C   LIG    1       -1.165  -5.127  -0.039  0.00  0.00    +0.180 C 
ATOM      4  C   LIG    1       -2.498  -4.453   0.319  0.00  0.00    +0.177 C 
ATOM      5  C   LIG    1       -2.576  -3.257  -0.616  0.00  0.00    +0.179 C 
ATOM      6  O   LIG    1       -1.351  -2.838  -1.048  0.00  0.00    -0.331 OA
ENDROOT
BRANCH   2   7
ATOM      7  O   LIG    1        1.158  -4.696   0.257  0.00  0.00    -0.383 OA
ATOM      8  H   LIG    1        1.441  -4.621  -0.688  0.00  0.00    +0.210 HD
ENDBRANCH   2   7
BRANCH   3   9
ATOM      9  O   LIG    1       -1.091  -6.409   0.444  0.00  0.00    -0.386 OA
ATOM     10  H   LIG    1       -0.114  -6.634   0.543  0.00  0.00    +0.210 HD
ENDBRANCH   3   9
BRANCH   4  11
ATOM     11  O   LIG    1       -3.513  -5.359   0.138  0.00  0.00    -0.386 OA
ATOM     12  H   LIG    1       -4.003  -5.279  -0.701  0.00  0.00    +0.210 HD
ENDBRANCH   4  11
BRANCH   1  13
ATOM     13  O   LIG    1       -0.529  -1.933   0.925  0.00  0.00    -0.461 OA
BRANCH  13  19
ATOM     14  O   LIG    1        2.281   3.049   3.500  0.00  0.00    -0.287 OA
ATOM     15  C   LIG    1        2.626   2.314   2.520  0.00  0.00    +0.197 A 
ATOM     16  C   LIG    1        1.866   1.250   2.096  0.00  0.00    +0.105 A 
ATOM     17  C   LIG    1        0.684   0.938   2.731  0.00  0.00    +0.135 A 
ATOM     18  C   LIG    1       -0.107  -0.119   2.339  0.00  0.00    +0.092 A 
ATOM     19  C   LIG    1        0.311  -0.908   1.248  0.00  0.00    +0.131 A 
ATOM     20  C   LIG    1        1.487  -0.576   0.638  0.00  0.00    +0.093 A 
ATOM     21  C   LIG    1        2.297   0.497   1.030  0.00  0.00    +0.146 A 
ATOM     22  O   LIG    1        3.413   0.765   0.405  0.00  0.00    -0.454 OA
ATOM     23  C   LIG    1        4.197   1.774   0.756  0.00  0.00    +0.139 A 
ATOM     24  C   LIG    1        3.792   2.544   1.820  0.00  0.00    +0.098 A 
BRANCH  23  25
ATOM     25  C   LIG    1        5.438   2.011   0.003  0.00  0.00    +0.021 A 
ATOM     26  C   LIG    1        6.320   3.024   0.285  0.00  0.00    +0.015 A 
ATOM     27  C   LIG    1        7.479   3.174  -0.488  0.00  0.00    +0.050 A 
ATOM     28  C   LIG    1        7.780   2.340  -1.533  0.00  0.00    +0.161 A 
ATOM     29  C   LIG    1        6.886   1.325  -1.808  0.00  0.00    +0.159 A 
ATOM     30  C   LIG    1        5.745   1.179  -1.047  0.00  0.00    +0.060 A 
BRANCH  29  31
ATOM     31  O   LIG    1        7.183   0.478  -2.864  0.00  0.00    -0.503 OA
ATOM     32  H   LIG    1        6.542  -0.277  -3.087  0.00  0.00    +0.292 HD
ENDBRANCH  29  31
BRANCH  28  33
ATOM     33  O   LIG    1        8.944   2.518  -2.283  0.00  0.00    -0.491 OA
ATOM     34  C   LIG    1        9.823   3.577  -1.953  0.00  0.00    +0.277 C 
ENDBRANCH  28  33
ENDBRANCH  23  25
BRANCH  17  35
ATOM     35  O   LIG    1        0.317   1.749   3.803  0.00  0.00    -0.506 OA
ATOM     36  H   LIG    1       -0.532   1.553   4.286  0.00  0.00    +0.292 HD
ENDBRANCH  17  35
ENDBRANCH  13  19
ENDBRANCH   1  13
BRANCH   5  37
ATOM     37  C   LIG    1       -3.476  -2.166  -0.087  0.00  0.00    +0.197 C 
BRANCH  37  38
ATOM     38  O   LIG    1       -3.686  -1.266  -1.098  0.00  0.00    -0.346 OA
BRANCH  38  39
ATOM     39  C   LIG    1       -4.520  -0.199  -0.718  0.00  0.00    +0.282 C 
ATOM     40  C   LIG    1       -3.702   1.053  -0.823  0.00  0.00    +0.201 C 
ATOM     41  C   LIG    1       -4.429   1.983  -1.772  0.00  0.00    +0.179 C 
ATOM     42  C   LIG    1       -5.836   2.128  -1.208  0.00  0.00    +0.174 C 
ATOM     43  C   LIG    1       -6.512   0.787  -1.392  0.00  0.00    +0.149 C 
ATOM     44  C   LIG    1       -7.529   0.537  -0.303  0.00  0.00    +0.041 C 
ATOM     45  O   LIG    1       -5.615  -0.247  -1.559  0.00  0.00    -0.343 OA
BRANCH  40  46
ATOM     46  O   LIG    1       -3.600   1.726   0.399  0.00  0.00    -0.384 OA
ATOM     47  H   LIG    1       -3.825   1.146   1.165  0.00  0.00    +0.210 HD
ENDBRANCH  40  46
BRANCH  42  48
ATOM     48  O   LIG    1       -6.467   3.144  -1.884  0.00  0.00    -0.387 OA
ATOM     49  H   LIG    1       -6.262   3.994  -1.381  0.00  0.00    +0.210 HD
ENDBRANCH  42  48
BRANCH  41  50
ATOM     50  O   LIG    1       -3.794   3.184  -1.960  0.00  0.00    -0.386 OA
ATOM     51  H   LIG    1       -3.618   3.575  -1.068  0.00  0.00    +0.210 HD
ENDBRANCH  41  50
ENDBRANCH  38  39
ENDBRANCH  37  38
ENDBRANCH   5  37
TORSDOF 15
