REMARK  Name = molecules/GZUITABIAKMVPG-UHFFFAOYSA-N.pdb
REMARK                            x       y       z     vdW  Elec       q    Type
REMARK                         _______ _______ _______ _____ _____    ______ ____
ROOT
ATOM      1  C   LIG    1       -4.312   0.512  -0.074  0.00  0.00    +0.045 A 
ATOM      2  C   LIG    1       -5.201  -0.507  -0.145  0.00  0.00    +0.031 A 
ATOM      3  S   LIG    1       -5.975  -0.215  -1.679  0.00  0.00    -0.087 S 
ATOM      4  C   LIG    1       -5.144   1.177  -2.150  0.00  0.00    +0.024 A 
ATOM      5  C   LIG    1       -5.196   2.015  -3.293  0.00  0.00    +0.061 A 
ATOM      6  C   LIG    1       -4.359   3.091  -3.388  0.00  0.00    +0.118 A 
ATOM      7  C   LIG    1       -3.481   3.347  -2.381  0.00  0.00    +0.046 A 
ATOM      8  C   LIG    1       -3.448   2.525  -1.283  0.00  0.00    +0.013 A 
ATOM      9  C   LIG    1       -4.279   1.404  -1.128  0.00  0.00    +0.001 A 
ENDROOT
BRANCH   2  10
ATOM     10  C   LIG    1       -5.459  -1.679   0.698  0.00  0.00    -0.010 A 
ATOM     11  C   LIG    1       -5.441  -1.750   2.058  0.00  0.00    +0.012 A 
ATOM     12  C   LIG    1       -5.556  -2.927   2.787  0.00  0.00    +0.046 A 
ATOM     13  C   LIG    1       -5.695  -4.112   2.110  0.00  0.00    +0.117 A 
ATOM     14  C   LIG    1       -5.722  -4.113   0.737  0.00  0.00    +0.046 A 
ATOM     15  C   LIG    1       -5.604  -2.914   0.042  0.00  0.00    +0.012 A 
BRANCH  13  16
ATOM     16  O   LIG    1       -5.804  -5.276   2.880  0.00  0.00    -0.507 OA
ATOM     17  H   LIG    1       -6.723  -5.611   3.167  0.00  0.00    +0.292 HD
ENDBRANCH  13  16
ENDBRANCH   2  10
BRANCH   1  18
ATOM     18  C   LIG    1       -3.343   0.672   1.050  0.00  0.00    +0.195 C 
ATOM     19  O   LIG    1       -3.772   0.942   2.187  0.00  0.00    -0.287 OA
BRANCH  18  20
ATOM     20  C   LIG    1       -1.890   0.534   0.867  0.00  0.00    +0.023 A 
ATOM     21  C   LIG    1       -1.056   0.718   1.966  0.00  0.00    +0.015 A 
ATOM     22  C   LIG    1        0.293   0.721   1.846  0.00  0.00    +0.046 A 
ATOM     23  C   LIG    1        0.935   0.539   0.599  0.00  0.00    +0.121 A 
ATOM     24  C   LIG    1        0.125   0.353  -0.494  0.00  0.00    +0.046 A 
ATOM     25  C   LIG    1       -1.254   0.358  -0.320  0.00  0.00    +0.015 A 
BRANCH  23  26
ATOM     26  O   LIG    1        2.258   0.573   0.554  0.00  0.00    -0.491 OA
BRANCH  26  27
ATOM     27  C   LIG    1        3.349   0.510  -0.230  0.00  0.00    +0.244 C 
BRANCH  27  28
ATOM     28  C   LIG    1        4.604   0.657   0.652  0.00  0.00    +0.125 C 
BRANCH  28  29
ATOM     29  N   LIG    1        5.829   0.681   0.018  0.00  0.00    -0.299 NA
ATOM     30  C   LIG    1        6.936   0.737   0.901  0.00  0.00    +0.084 C 
ATOM     31  C   LIG    1        7.704  -0.598   0.890  0.00  0.00    +0.015 C 
ATOM     32  C   LIG    1        8.168  -0.938  -0.493  0.00  0.00    +0.002 C 
ATOM     33  C   LIG    1        7.561   0.034  -1.480  0.00  0.00    +0.015 C 
ATOM     34  C   LIG    1        6.050   0.088  -1.242  0.00  0.00    +0.084 C 
ENDBRANCH  28  29
ENDBRANCH  27  28
ENDBRANCH  26  27
ENDBRANCH  23  26
ENDBRANCH  18  20
ENDBRANCH   1  18
BRANCH   6  35
ATOM     35  O   LIG    1       -4.396   3.916  -4.494  0.00  0.00    -0.507 OA
ATOM     36  H   LIG    1       -5.050   4.713  -4.410  0.00  0.00    +0.292 HD
ENDBRANCH   6  35
TORSDOF 9
