REMARK  Name = molecules/HAWPXGHAZFHHAD-UHFFFAOYSA-N.pdb
REMARK                            x       y       z     vdW  Elec       q    Type
REMARK                         _______ _______ _______ _____ _____    ______ ____
ROOT
ATOM      1  C   LIG    1       -0.255  -1.738   0.342  0.00  0.00    +0.105 C 
ATOM      2  N   LIG    1        0.083  -0.465  -0.280  0.00  0.00    -0.303 NA
ENDROOT
BRANCH   2   3
ATOM      3  C   LIG    1        1.354  -0.107   0.382  0.00  0.00    +0.100 C 
BRANCH   3   4
ATOM      4  C   LIG    1        2.023   1.089  -0.175  0.00  0.00    +0.124 C 
ATOM      5 CL   LIG    1        2.382   0.732  -1.903  0.00  0.00    -0.124 Cl
ENDBRANCH   3   4
ENDBRANCH   2   3
BRANCH   2   6
ATOM      6  C   LIG    1       -0.839   0.576   0.080  0.00  0.00    +0.100 C 
BRANCH   6   7
ATOM      7  C   LIG    1       -2.229   0.426  -0.446  0.00  0.00    +0.124 C 
ATOM      8 CL   LIG    1       -2.271   0.370  -2.223  0.00  0.00    -0.124 Cl
ENDBRANCH   6   7
ENDBRANCH   2   6
TORSDOF 4
