REMARK  Name = molecules/HAYYBYPASCDWEQ-UHFFFAOYSA-N.pdb
REMARK                            x       y       z     vdW  Elec       q    Type
REMARK                         _______ _______ _______ _____ _____    ______ ____
ROOT
ATOM      1  N   LIG    1        1.985  -1.056  -0.591  0.00  0.00    -0.264 N 
ATOM      2  C   LIG    1        0.704  -1.372  -0.167  0.00  0.00    +0.251 C 
ATOM      3  O   LIG    1        0.598  -2.582   0.313  0.00  0.00    -0.270 OA
ATOM      4  H   LIG    1        2.736  -1.856  -0.429  0.00  0.00    +0.157 HD
ENDROOT
BRANCH   1   8
ATOM      5  C   LIG    1        6.176   0.032  -1.562  0.00  0.00    -0.042 A 
ATOM      6  C   LIG    1        4.931  -0.393  -1.162  0.00  0.00    +0.017 A 
ATOM      7  C   LIG    1        3.807   0.276  -1.624  0.00  0.00    +0.042 A 
ATOM      8  C   LIG    1        2.443   0.037  -1.361  0.00  0.00    +0.155 A 
ATOM      9  N   LIG    1        1.822   0.989  -2.071  0.00  0.00    -0.157 NA
ATOM     10  N   LIG    1        2.669   1.762  -2.723  0.00  0.00    -0.275 N 
ATOM     11  H   LIG    1        2.405   2.564  -3.336  0.00  0.00    +0.189 HD
ATOM     12  C   LIG    1        3.921   1.354  -2.474  0.00  0.00    +0.068 A 
ATOM     13  C   LIG    1        5.178   1.789  -2.883  0.00  0.00    +0.028 A 
ATOM     14  C   LIG    1        6.288   1.116  -2.417  0.00  0.00    +0.006 A 
BRANCH   5  15
ATOM     15  C   LIG    1        7.374  -0.672  -1.075  0.00  0.00    +0.070 C 
BRANCH  15  22
ATOM     16  C   LIG    1        7.955  -0.125   2.623  0.00  0.00    +0.126 A 
ATOM     17  F   LIG    1        7.556  -0.611   3.821  0.00  0.00    -0.205 F 
ATOM     18  C   LIG    1        8.869   0.910   2.627  0.00  0.00    +0.076 A 
ATOM     19  C   LIG    1        9.290   1.425   1.407  0.00  0.00    +0.126 A 
ATOM     20  F   LIG    1       10.185   2.439   1.444  0.00  0.00    -0.205 F 
ATOM     21  C   LIG    1        8.792   0.897   0.227  0.00  0.00    +0.042 A 
ATOM     22  C   LIG    1        7.881  -0.134   0.207  0.00  0.00    -0.038 A 
ATOM     23  C   LIG    1        7.468  -0.639   1.417  0.00  0.00    +0.042 A 
ENDBRANCH  15  22
ENDBRANCH   5  15
ENDBRANCH   1   8
BRANCH   2  24
ATOM     24  C   LIG    1       -0.504  -0.616  -0.166  0.00  0.00    +0.058 A 
ATOM     25  C   LIG    1       -1.752  -1.249  -0.032  0.00  0.00    +0.041 A 
ATOM     26  C   LIG    1       -2.860  -0.459   0.177  0.00  0.00    +0.046 A 
ATOM     27  C   LIG    1       -2.825   0.931   0.261  0.00  0.00    +0.032 A 
ATOM     28  C   LIG    1       -1.585   1.495   0.121  0.00  0.00    +0.024 A 
ATOM     29  C   LIG    1       -0.433   0.779  -0.086  0.00  0.00    +0.017 A 
BRANCH  27  30
ATOM     30  N   LIG    1       -3.967   1.720   0.487  0.00  0.00    -0.327 N 
ATOM     31  C   LIG    1       -3.830   3.140   0.752  0.00  0.00    +0.120 C 
ATOM     32  C   LIG    1       -5.061   3.553   1.553  0.00  0.00    +0.103 C 
ATOM     33  N   LIG    1       -6.237   3.439   0.726  0.00  0.00    -0.302 NA
ATOM     34  C   LIG    1       -6.357   2.188   0.059  0.00  0.00    +0.103 C 
ATOM     35  C   LIG    1       -6.396   4.577  -0.158  0.00  0.00    +0.105 C 
ATOM     36  C   LIG    1       -5.308   1.178   0.469  0.00  0.00    +0.120 C 
ENDBRANCH  27  30
BRANCH  25  37
ATOM     37  N   LIG    1       -1.890  -2.662  -0.211  0.00  0.00    -0.340 N 
ATOM     38  H   LIG    1       -1.055  -3.146  -0.648  0.00  0.00    +0.146 HD
BRANCH  37  39
ATOM     39  C   LIG    1       -3.011  -3.481   0.054  0.00  0.00    +0.075 C 
ATOM     40  C   LIG    1       -3.591  -3.421   1.436  0.00  0.00    +0.050 C 
ATOM     41  C   LIG    1       -4.247  -4.799   1.681  0.00  0.00    +0.161 C 
ATOM     42  O   LIG    1       -4.785  -5.230   0.483  0.00  0.00    -0.380 OA
ATOM     43  C   LIG    1       -5.300  -4.210  -0.311  0.00  0.00    +0.161 C 
ATOM     44  C   LIG    1       -4.108  -3.489  -0.959  0.00  0.00    +0.050 C 
ENDBRANCH  37  39
ENDBRANCH  25  37
ENDBRANCH   2  24
TORSDOF 7
