REMARK  Name = molecules/HBOMLICNUCNMMY-XLPZGREQSA-N.pdb
REMARK                            x       y       z     vdW  Elec       q    Type
REMARK                         _______ _______ _______ _____ _____    ______ ____
ROOT
ATOM      1  C   LIG    1       -0.279  -0.412   0.551  0.00  0.00    +0.226 C 
ATOM      2  C   LIG    1       -0.823   0.751   1.357  0.00  0.00    +0.087 C 
ATOM      3  C   LIG    1       -2.226   0.912   0.798  0.00  0.00    +0.178 C 
ATOM      4  C   LIG    1       -2.428  -0.476   0.198  0.00  0.00    +0.173 C 
ATOM      5  O   LIG    1       -1.209  -0.628  -0.483  0.00  0.00    -0.349 OA
ENDROOT
BRANCH   1   8
ATOM      6  O   LIG    1        0.277   1.691  -0.993  0.00  0.00    -0.246 OA
ATOM      7  C   LIG    1        1.255   0.930  -0.743  0.00  0.00    +0.331 A 
ATOM      8  N   LIG    1        1.045  -0.149   0.030  0.00  0.00    -0.274 N 
ATOM      9  C   LIG    1        2.093  -0.952   0.290  0.00  0.00    +0.101 A 
ATOM     10  C   LIG    1        3.352  -0.674  -0.225  0.00  0.00    +0.030 A 
ATOM     11  C   LIG    1        4.517  -1.557   0.058  0.00  0.00    +0.051 C 
ATOM     12  C   LIG    1        3.551   0.440  -1.018  0.00  0.00    +0.257 A 
ATOM     13  O   LIG    1        4.694   0.707  -1.495  0.00  0.00    -0.267 OA
ATOM     14  N   LIG    1        2.476   1.214  -1.252  0.00  0.00    -0.275 N 
ATOM     15  H   LIG    1        2.632   2.057  -1.853  0.00  0.00    +0.173 HD
ENDBRANCH   1   8
BRANCH   3  16
ATOM     16  N   LIG    1       -3.195   1.216   1.806  0.00  0.00    -0.104 NA
ATOM     17  N   LIG    1       -3.579   2.392   1.983  0.00  0.00    -0.167 NA
ATOM     18  N   LIG    1       -3.811   3.601   2.054  0.00  0.00    +0.068 NA
ENDBRANCH   3  16
BRANCH   4  19
ATOM     19  C   LIG    1       -3.600  -0.510  -0.749  0.00  0.00    +0.189 C 
BRANCH  19  20
ATOM     20  O   LIG    1       -3.571  -1.751  -1.390  0.00  0.00    -0.392 OA
ATOM     21  H   LIG    1       -3.234  -2.465  -0.813  0.00  0.00    +0.210 HD
ENDBRANCH  19  20
ENDBRANCH   4  19
TORSDOF 4
