REMARK  Name = molecules/HCDMJFOHIXMBOV-UHFFFAOYSA-N.pdb
REMARK                            x       y       z     vdW  Elec       q    Type
REMARK                         _______ _______ _______ _____ _____    ______ ____
ROOT
ATOM      1  C   LIG    1        0.258  -0.652  -0.663  0.00  0.00    +0.055 A 
ATOM      2  N   LIG    1       -0.085   0.603  -0.079  0.00  0.00    -0.254 N 
ATOM      3  C   LIG    1       -1.476   0.762   0.279  0.00  0.00    +0.314 C 
ATOM      4  O   LIG    1       -1.893   1.825   0.798  0.00  0.00    -0.252 OA
ATOM      5  N   LIG    1       -2.454  -0.247   0.076  0.00  0.00    -0.245 N 
ATOM      6  C   LIG    1       -2.115  -1.488  -0.516  0.00  0.00    +0.154 C 
ATOM      7  C   LIG    1       -0.683  -1.627  -0.858  0.00  0.00    +0.011 A 
ATOM      8  C   LIG    1       -0.265  -2.837  -1.427  0.00  0.00    +0.120 A 
ATOM      9  N   LIG    1        1.005  -3.043  -1.772  0.00  0.00    -0.237 NA
ATOM     10  C   LIG    1        1.935  -2.090  -1.584  0.00  0.00    +0.140 A 
ATOM     11  N   LIG    1        3.256  -2.028  -1.843  0.00  0.00    -0.342 N 
ATOM     12  C   LIG    1        3.731  -0.836  -1.475  0.00  0.00    +0.032 A 
ATOM     13  C   LIG    1        2.683  -0.065  -0.945  0.00  0.00    +0.035 A 
ATOM     14  H   LIG    1        3.760  -2.845  -2.275  0.00  0.00    +0.167 HD
ATOM     15  C   LIG    1        1.575  -0.861  -1.020  0.00  0.00    +0.041 A 
ENDROOT
BRANCH   5  16
ATOM     16  C   LIG    1       -3.813  -0.037   0.472  0.00  0.00    +0.116 A 
ATOM     17  C   LIG    1       -4.440  -0.871   1.367  0.00  0.00    +0.189 A 
ATOM     18  F   LIG    1       -3.788  -1.925   1.897  0.00  0.00    -0.200 F 
ATOM     19  C   LIG    1       -5.757  -0.668   1.760  0.00  0.00    +0.161 A 
ATOM     20  C   LIG    1       -6.438   0.398   1.233  0.00  0.00    +0.097 A 
ATOM     21  C   LIG    1       -5.813   1.243   0.330  0.00  0.00    +0.161 A 
ATOM     22  C   LIG    1       -4.497   1.029  -0.054  0.00  0.00    +0.189 A 
ATOM     23  F   LIG    1       -3.905   1.883  -0.951  0.00  0.00    -0.200 F 
BRANCH  19  24
ATOM     24  O   LIG    1       -6.362  -1.521   2.658  0.00  0.00    -0.492 OA
ATOM     25  C   LIG    1       -7.700  -1.339   3.081  0.00  0.00    +0.277 C 
ENDBRANCH  19  24
BRANCH  21  26
ATOM     26  O   LIG    1       -6.475   2.346  -0.235  0.00  0.00    -0.492 OA
ATOM     27  C   LIG    1       -7.819   2.618   0.122  0.00  0.00    +0.277 C 
ENDBRANCH  21  26
ENDBRANCH   5  16
BRANCH   2  28
ATOM     28  C   LIG    1        0.765   1.694   0.206  0.00  0.00    +0.112 C 
ATOM     29  C   LIG    1        0.855   2.685  -0.958  0.00  0.00    +0.025 C 
ENDBRANCH   2  28
BRANCH  12  30
ATOM     30  C   LIG    1        5.149  -0.402  -1.610  0.00  0.00    +0.137 C 
BRANCH  30  31
ATOM     31  N   LIG    1        5.911  -0.856  -0.490  0.00  0.00    -0.292 NA
ATOM     32  C   LIG    1        5.423  -0.337   0.759  0.00  0.00    +0.113 C 
ATOM     33  C   LIG    1        6.600  -0.166   1.710  0.00  0.00    +0.175 C 
ATOM     34  O   LIG    1        7.454   0.807   1.220  0.00  0.00    -0.377 OA
ATOM     35  C   LIG    1        7.799   0.649  -0.104  0.00  0.00    +0.175 C 
ATOM     36  C   LIG    1        7.326  -0.694  -0.614  0.00  0.00    +0.113 C 
ENDBRANCH  30  31
ENDBRANCH  12  30
TORSDOF 6
