REMARK  Name = molecules/HCFDWZZGGLSKEP-QGZVFWFLSA-N.pdb
REMARK                            x       y       z     vdW  Elec       q    Type
REMARK                         _______ _______ _______ _____ _____    ______ ____
ROOT
ATOM      1  C   LIG    1       -0.547   0.383  -0.182  0.00  0.00    +0.133 C 
ATOM      2  C   LIG    1       -0.112   0.341  -1.603  0.00  0.00    +0.053 C 
ENDROOT
BRANCH   1   5
ATOM      3  C   LIG    1       -1.451  -2.825   1.518  0.00  0.00    +0.111 A 
ATOM      4  N   LIG    1       -0.895  -1.629   1.270  0.00  0.00    -0.257 NA
ATOM      5  C   LIG    1       -1.138  -0.970   0.148  0.00  0.00    +0.077 A 
ATOM      6  C   LIG    1       -1.988  -1.533  -0.791  0.00  0.00    +0.026 A 
ATOM      7  C   LIG    1       -2.572  -2.771  -0.553  0.00  0.00    +0.003 A 
ATOM      8  C   LIG    1       -2.305  -3.438   0.621  0.00  0.00    +0.020 A 
ENDBRANCH   1   5
BRANCH   1   9
ATOM      9  C   LIG    1       -1.700   1.388  -0.140  0.00  0.00    -0.010 A 
ATOM     10  C   LIG    1       -2.838   1.104   0.563  0.00  0.00    +0.007 A 
ATOM     11  C   LIG    1       -3.885   2.025   0.596  0.00  0.00    +0.000 A 
ATOM     12  C   LIG    1       -3.762   3.221  -0.086  0.00  0.00    +0.000 A 
ATOM     13  C   LIG    1       -2.602   3.499  -0.796  0.00  0.00    +0.000 A 
ATOM     14  C   LIG    1       -1.564   2.565  -0.818  0.00  0.00    +0.007 A 
ENDBRANCH   1   9
BRANCH   1  15
ATOM     15  O   LIG    1        0.331   0.847   0.733  0.00  0.00    -0.362 OA
BRANCH  15  16
ATOM     16  C   LIG    1        1.444   0.180   1.071  0.00  0.00    +0.177 C 
BRANCH  16  17
ATOM     17  C   LIG    1        2.440  -0.122  -0.004  0.00  0.00    +0.112 C 
BRANCH  17  18
ATOM     18  N   LIG    1        3.599  -0.848   0.546  0.00  0.00    -0.306 NA
ATOM     19  C   LIG    1        4.340  -0.001   1.456  0.00  0.00    +0.104 C 
ATOM     20  C   LIG    1        4.510  -1.116  -0.578  0.00  0.00    +0.104 C 
ENDBRANCH  17  18
ENDBRANCH  16  17
ENDBRANCH  15  16
ENDBRANCH   1  15
TORSDOF 6
