REMARK  Name = molecules/HCYAFALTSJYZDH-UHFFFAOYSA-N.pdb
REMARK                            x       y       z     vdW  Elec       q    Type
REMARK                         _______ _______ _______ _____ _____    ______ ____
ROOT
ATOM      1  N   LIG    1       -0.412  -0.081   0.290  0.00  0.00    -0.300 N 
ATOM      2  C   LIG    1       -1.247   1.091   0.146  0.00  0.00    +0.037 A 
ATOM      3  C   LIG    1       -0.569   2.228   0.527  0.00  0.00    +0.024 A 
ATOM      4  C   LIG    1       -1.166   3.475   0.480  0.00  0.00    +0.002 A 
ATOM      5  C   LIG    1       -2.462   3.591   0.043  0.00  0.00    +0.000 A 
ATOM      6  C   LIG    1       -3.172   2.489  -0.346  0.00  0.00    +0.005 A 
ATOM      7  C   LIG    1       -2.569   1.228  -0.298  0.00  0.00    -0.026 A 
ATOM      8  C   LIG    1       -3.497   0.170  -0.774  0.00  0.00    +0.042 C 
ATOM      9  C   LIG    1       -3.438  -0.978   0.190  0.00  0.00    +0.042 C 
ATOM     10  C   LIG    1       -2.251  -1.826  -0.048  0.00  0.00    -0.026 A 
ATOM     11  C   LIG    1       -2.553  -3.126  -0.333  0.00  0.00    +0.005 A 
ATOM     12  C   LIG    1       -1.522  -4.022  -0.584  0.00  0.00    +0.000 A 
ATOM     13  C   LIG    1       -0.209  -3.615  -0.549  0.00  0.00    +0.002 A 
ATOM     14  C   LIG    1        0.081  -2.278  -0.256  0.00  0.00    +0.024 A 
ATOM     15  C   LIG    1       -0.912  -1.381  -0.006  0.00  0.00    +0.037 A 
ENDROOT
BRANCH   1  16
ATOM     16  C   LIG    1        0.925   0.024   0.712  0.00  0.00    +0.112 C 
BRANCH  16  17
ATOM     17  C   LIG    1        2.036   0.274  -0.217  0.00  0.00    +0.034 C 
BRANCH  17  18
ATOM     18  C   LIG    1        3.386   0.300   0.537  0.00  0.00    +0.082 C 
BRANCH  18  19
ATOM     19  N   LIG    1        4.472   0.546  -0.382  0.00  0.00    -0.319 NA
ATOM     20  C   LIG    1        5.720   0.573   0.298  0.00  0.00    +0.101 C 
ATOM     21  H   LIG    1        4.276   1.384  -0.963  0.00  0.00    +0.122 HD
ENDBRANCH  18  19
ENDBRANCH  17  18
ENDBRANCH  16  17
ENDBRANCH   1  16
TORSDOF 4
