REMARK  Name = molecules/HCYFGRCYSCXKNQ-UHFFFAOYSA-N.pdb
REMARK                            x       y       z     vdW  Elec       q    Type
REMARK                         _______ _______ _______ _____ _____    ______ ____
ROOT
ATOM      1  N   LIG    1        1.507  -0.891   0.410  0.00  0.00    -0.314 N 
ATOM      2  C   LIG    1        0.305  -0.266   0.295  0.00  0.00    +0.152 A 
ATOM      3  C   LIG    1       -0.099   1.007   0.562  0.00  0.00    +0.282 A 
ATOM      4  O   LIG    1        0.732   1.841   1.006  0.00  0.00    -0.265 OA
ATOM      5  N   LIG    1       -1.371   1.400   0.363  0.00  0.00    -0.262 N 
ATOM      6  C   LIG    1       -1.792   2.777   0.656  0.00  0.00    +0.157 C 
ATOM      7  C   LIG    1       -2.236   0.488  -0.111  0.00  0.00    +0.333 A 
ATOM      8  O   LIG    1       -3.437   0.848  -0.302  0.00  0.00    -0.246 OA
ATOM      9  N   LIG    1       -1.911  -0.780  -0.397  0.00  0.00    -0.280 N 
ATOM     10  C   LIG    1       -2.898  -1.737  -0.914  0.00  0.00    +0.155 C 
ATOM     11  C   LIG    1       -0.634  -1.152  -0.190  0.00  0.00    +0.168 A 
ATOM     12  N   LIG    1        0.010  -2.328  -0.370  0.00  0.00    -0.218 NA
ATOM     13  C   LIG    1        1.299  -2.155  -0.005  0.00  0.00    +0.202 A 
ENDROOT
BRANCH   1  14
ATOM     14  C   LIG    1        2.757  -0.367   0.867  0.00  0.00    +0.243 C 
BRANCH  14  15
ATOM     15  C   LIG    1        3.577   0.212  -0.215  0.00  0.00    +0.325 C 
ATOM     16  O   LIG    1        4.695   0.710   0.022  0.00  0.00    -0.249 OA
BRANCH  15  17
ATOM     17  O   LIG    1        3.098   0.200  -1.506  0.00  0.00    -0.479 OA
ATOM     18  H   LIG    1        3.647   0.425  -2.323  0.00  0.00    +0.295 HD
ENDBRANCH  15  17
ENDBRANCH  14  15
ENDBRANCH   1  14
TORSDOF 3
