REMARK  Name = molecules/HCZKYJDFEPMADG-TXEJJXNPSA-N.pdb
REMARK                            x       y       z     vdW  Elec       q    Type
REMARK                         _______ _______ _______ _____ _____    ______ ____
ROOT
ATOM      1  C   LIG    1        0.777  -0.521   0.537  0.00  0.00    -0.007 C 
ATOM      2  C   LIG    1        1.290  -1.520  -0.456  0.00  0.00    +0.008 C 
ENDROOT
BRANCH   1   3
ATOM      3  C   LIG    1       -0.721  -0.564   0.605  0.00  0.00    -0.007 C 
ATOM      4  C   LIG    1       -1.205  -1.940   1.025  0.00  0.00    +0.008 C 
BRANCH   3   5
ATOM      5  C   LIG    1       -1.376  -0.177  -0.684  0.00  0.00    +0.038 C 
BRANCH   5   6
ATOM      6  C   LIG    1       -2.848  -0.248  -0.523  0.00  0.00    -0.043 A 
ATOM      7  C   LIG    1       -3.553   0.862  -0.093  0.00  0.00    +0.052 A 
ATOM      8  C   LIG    1       -4.924   0.837   0.068  0.00  0.00    +0.158 A 
ATOM      9  C   LIG    1       -5.589  -0.319  -0.206  0.00  0.00    +0.158 A 
ATOM     10  C   LIG    1       -4.920  -1.431  -0.632  0.00  0.00    +0.049 A 
ATOM     11  C   LIG    1       -3.530  -1.411  -0.797  0.00  0.00    +0.007 A 
BRANCH   8  12
ATOM     12  O   LIG    1       -5.572   1.975   0.499  0.00  0.00    -0.503 OA
ATOM     13  H   LIG    1       -5.094   2.833   0.705  0.00  0.00    +0.292 HD
ENDBRANCH   8  12
BRANCH   9  14
ATOM     14  O   LIG    1       -6.981  -0.385  -0.054  0.00  0.00    -0.503 OA
ATOM     15  H   LIG    1       -7.488   0.429   0.260  0.00  0.00    +0.292 HD
ENDBRANCH   9  14
ENDBRANCH   5   6
ENDBRANCH   3   5
ENDBRANCH   1   3
BRANCH   1  16
ATOM     16  C   LIG    1        1.232   0.871   0.199  0.00  0.00    +0.038 C 
BRANCH  16  17
ATOM     17  C   LIG    1        2.724   0.936   0.127  0.00  0.00    -0.043 A 
ATOM     18  C   LIG    1        3.513   1.228   1.216  0.00  0.00    +0.052 A 
ATOM     19  C   LIG    1        4.892   1.281   1.124  0.00  0.00    +0.158 A 
ATOM     20  C   LIG    1        5.505   1.036  -0.099  0.00  0.00    +0.158 A 
ATOM     21  C   LIG    1        4.693   0.747  -1.173  0.00  0.00    +0.049 A 
ATOM     22  C   LIG    1        3.328   0.692  -1.087  0.00  0.00    +0.007 A 
BRANCH  19  23
ATOM     23  O   LIG    1        5.671   1.577   2.234  0.00  0.00    -0.503 OA
ATOM     24  H   LIG    1        6.659   1.614   2.162  0.00  0.00    +0.292 HD
ENDBRANCH  19  23
BRANCH  20  25
ATOM     25  O   LIG    1        6.908   1.086  -0.213  0.00  0.00    -0.503 OA
ATOM     26  H   LIG    1        7.288   0.898  -1.125  0.00  0.00    +0.292 HD
ENDBRANCH  20  25
ENDBRANCH  16  17
ENDBRANCH   1  16
TORSDOF 9
