REMARK  Name = molecules/HDGFUOKLIQJQCS-UHFFFAOYSA-O.pdb
REMARK                            x       y       z     vdW  Elec       q    Type
REMARK                         _______ _______ _______ _____ _____    ______ ____
ROOT
ATOM      1  C   LIG    1       -1.575  -0.340  -0.312  0.00  0.00    +0.095 C 
ENDROOT
BRANCH   1   2
ATOM      2  C   LIG    1       -2.297  -1.511   0.201  0.00  0.00    -0.028 A 
ATOM      3  C   LIG    1       -2.122  -1.882   1.510  0.00  0.00    +0.005 A 
ATOM      4  C   LIG    1       -2.804  -2.986   1.980  0.00  0.00    +0.000 A 
ATOM      5  C   LIG    1       -3.645  -3.725   1.197  0.00  0.00    +0.000 A 
ATOM      6  C   LIG    1       -3.838  -3.377  -0.113  0.00  0.00    +0.000 A 
ATOM      7  C   LIG    1       -3.138  -2.252  -0.578  0.00  0.00    +0.005 A 
ENDBRANCH   1   2
BRANCH   1   8
ATOM      8  C   LIG    1       -2.242   0.959  -0.001  0.00  0.00    -0.028 A 
ATOM      9  C   LIG    1       -2.884   1.111   1.191  0.00  0.00    +0.005 A 
ATOM     10  C   LIG    1       -3.496   2.336   1.492  0.00  0.00    +0.000 A 
ATOM     11  C   LIG    1       -3.457   3.383   0.599  0.00  0.00    +0.000 A 
ATOM     12  C   LIG    1       -2.800   3.191  -0.594  0.00  0.00    +0.000 A 
ATOM     13  C   LIG    1       -2.204   2.000  -0.887  0.00  0.00    +0.005 A 
ENDBRANCH   1   8
BRANCH   1  14
ATOM     14  C   LIG    1       -1.636  -0.394  -1.828  0.00  0.00    +0.225 C 
ATOM     15  N   LIG    1       -2.893  -0.030  -2.406  0.00  0.00    -0.328 N 
ATOM     16  H   LIG    1       -3.706   0.303  -1.848  0.00  0.00    +0.145 HD
ATOM     17  H   LIG    1       -3.006  -0.104  -3.456  0.00  0.00    +0.145 HD
ATOM     18  O   LIG    1       -0.659  -0.727  -2.519  0.00  0.00    -0.275 OA
ENDBRANCH   1  14
BRANCH   1  19
ATOM     19  C   LIG    1       -0.154  -0.394   0.122  0.00  0.00    +0.007 C 
BRANCH  19  20
ATOM     20  C   LIG    1        0.709   0.728  -0.378  0.00  0.00    -0.074 C 
BRANCH  20  21
ATOM     21  N   LIG    1        2.076   0.644   0.064  0.00  0.00    +0.378 N 
ATOM     22  C   LIG    1        2.119   1.307   1.381  0.00  0.00    -0.092 C 
ATOM     23  C   LIG    1        2.518  -0.712   0.300  0.00  0.00    -0.075 C 
ATOM     24  C   LIG    1        3.953  -0.715   0.740  0.00  0.00    -0.018 C 
ATOM     25  C   LIG    1        4.930  -0.441  -0.347  0.00  0.00    -0.002 C 
ATOM     26  C   LIG    1        4.325  -0.475  -1.726  0.00  0.00    -0.002 C 
ATOM     27  C   LIG    1        3.427   0.679  -1.999  0.00  0.00    -0.018 C 
ATOM     28  C   LIG    1        2.924   1.402  -0.795  0.00  0.00    -0.075 C 
ENDBRANCH  20  21
ENDBRANCH  19  20
ENDBRANCH   1  19
TORSDOF 6
