REMARK  Name = molecules/HDOZVRUNCMBHFH-UHFFFAOYSA-N.pdb
REMARK                            x       y       z     vdW  Elec       q    Type
REMARK                         _______ _______ _______ _____ _____    ______ ____
ROOT
ATOM      1  C   LIG    1       -0.668  -0.265  -0.240  0.00  0.00    +0.129 C 
ATOM      2  C   LIG    1       -1.062  -1.142   0.827  0.00  0.00    +0.032 A 
ATOM      3  C   LIG    1       -1.783  -0.901   1.978  0.00  0.00    +0.023 A 
ATOM      4  C   LIG    1       -2.072  -1.881   2.905  0.00  0.00    +0.017 A 
ATOM      5  C   LIG    1       -1.605  -3.158   2.646  0.00  0.00    +0.021 A 
ATOM      6  C   LIG    1       -0.882  -3.441   1.510  0.00  0.00    +0.042 A 
ATOM      7 CL   LIG    1       -0.309  -5.088   1.225  0.00  0.00    -0.084 Cl
ATOM      8  S   LIG    1       -2.464   0.642   2.498  0.00  0.00    -0.088 S 
ATOM      9  C   LIG    1       -2.990   1.556   1.056  0.00  0.00    +0.020 A 
ATOM     10  C   LIG    1       -4.116   2.294   1.338  0.00  0.00    +0.015 A 
ATOM     11  C   LIG    1       -4.662   3.063   0.340  0.00  0.00    +0.001 A 
ATOM     12  C   LIG    1       -4.105   3.101  -0.916  0.00  0.00    +0.001 A 
ATOM     13  C   LIG    1       -2.977   2.350  -1.165  0.00  0.00    +0.009 A 
ATOM     14  C   LIG    1       -2.392   1.555  -0.175  0.00  0.00    -0.008 A 
ATOM     15  C   LIG    1       -0.615  -2.429   0.607  0.00  0.00    +0.032 A 
ATOM     16  C   LIG    1       -1.211   0.848  -0.658  0.00  0.00    +0.055 C 
ENDROOT
BRANCH   1  17
ATOM     17  O   LIG    1        0.467  -0.652  -0.942  0.00  0.00    -0.490 OA
BRANCH  17  18
ATOM     18  C   LIG    1        1.750  -0.221  -0.486  0.00  0.00    +0.244 C 
BRANCH  18  19
ATOM     19  C   LIG    1        2.809  -0.777  -1.421  0.00  0.00    +0.124 C 
BRANCH  19  20
ATOM     20  N   LIG    1        4.102  -0.341  -0.958  0.00  0.00    -0.305 NA
ATOM     21  C   LIG    1        4.146   1.091  -0.730  0.00  0.00    +0.104 C 
ATOM     22  C   LIG    1        5.183  -0.808  -1.769  0.00  0.00    +0.104 C 
ENDBRANCH  19  20
ENDBRANCH  18  19
ENDBRANCH  17  18
ENDBRANCH   1  17
TORSDOF 4
