REMARK  Name = molecules/HEAHZSUCFKFERC-BFHHXVSESA-N.pdb
REMARK                            x       y       z     vdW  Elec       q    Type
REMARK                         _______ _______ _______ _____ _____    ______ ____
ROOT
ATOM      1  C   LIG    1       -0.306  -0.933  -0.977  0.00  0.00    +0.008 A 
ATOM      2  C   LIG    1        0.910  -1.135  -0.407  0.00  0.00    +0.008 A 
ATOM      3  C   LIG    1        1.239  -0.410   0.717  0.00  0.00    -0.025 A 
ATOM      4  C   LIG    1        0.336   0.496   1.229  0.00  0.00    +0.008 A 
ATOM      5  C   LIG    1       -0.892   0.677   0.623  0.00  0.00    +0.008 A 
ATOM      6  C   LIG    1       -1.257  -0.028  -0.495  0.00  0.00    -0.025 A 
ENDROOT
BRANCH   3   7
ATOM      7  C   LIG    1        2.497  -0.569   1.404  0.00  0.00    +0.015 C 
ATOM      8  C   LIG    1        3.663  -0.596   0.795  0.00  0.00    -0.000 C 
ATOM      9  C   LIG    1        4.955  -0.761   1.472  0.00  0.00    +0.168 C 
ATOM     10  O   LIG    1        5.140  -0.967   2.690  0.00  0.00    -0.292 OA
ATOM     11  C   LIG    1        5.982  -0.624   0.358  0.00  0.00    +0.061 C 
ATOM     12  C   LIG    1        5.798  -1.893  -0.458  0.00  0.00    +0.017 C 
ATOM     13  C   LIG    1        4.486  -1.680  -1.222  0.00  0.00    +0.010 C 
ATOM     14  C   LIG    1        5.292   0.367  -0.496  0.00  0.00    -0.014 C 
ATOM     15  C   LIG    1        5.015   1.652   0.246  0.00  0.00    +0.012 C 
ATOM     16  C   LIG    1        5.839   0.571  -1.882  0.00  0.00    +0.012 C 
ATOM     17  C   LIG    1        3.949  -0.431  -0.622  0.00  0.00    +0.029 C 
BRANCH  11  18
ATOM     18  C   LIG    1        7.312  -0.418   0.884  0.00  0.00    +0.213 C 
BRANCH  18  19
ATOM     19  S   LIG    1        8.681  -0.211  -0.155  0.00  0.00    +0.081 S 
ATOM     20  O   LIG    1        9.918  -0.091   0.729  0.00  0.00    -0.147 OA
ATOM     21  O   LIG    1        8.931  -1.486  -0.962  0.00  0.00    -0.147 OA
BRANCH  19  22
ATOM     22  O   LIG    1        8.670   1.116  -1.139  0.00  0.00    -0.254 OA
ATOM     23  H   LIG    1        9.573   1.401  -1.429  0.00  0.00    +0.244 HD
ENDBRANCH  19  22
ENDBRANCH  18  19
ENDBRANCH  11  18
ENDBRANCH   3   7
BRANCH   6  24
ATOM     24  C   LIG    1       -2.531   0.112  -1.166  0.00  0.00    +0.015 C 
ATOM     25  C   LIG    1       -3.668   0.269  -0.548  0.00  0.00    -0.000 C 
ATOM     26  C   LIG    1       -3.945   0.338   0.880  0.00  0.00    +0.029 C 
ATOM     27  C   LIG    1       -4.408   1.736   1.208  0.00  0.00    +0.010 C 
ATOM     28  C   LIG    1       -5.775   1.837   0.557  0.00  0.00    +0.017 C 
ATOM     29  C   LIG    1       -5.981   0.502  -0.107  0.00  0.00    +0.061 C 
ATOM     30  C   LIG    1       -5.297  -0.397   0.941  0.00  0.00    -0.014 C 
ATOM     31  C   LIG    1       -5.935  -0.238   2.303  0.00  0.00    +0.012 C 
ATOM     32  C   LIG    1       -5.173  -1.814   0.490  0.00  0.00    +0.012 C 
ATOM     33  C   LIG    1       -5.000   0.416  -1.206  0.00  0.00    +0.168 C 
ATOM     34  O   LIG    1       -5.140   0.448  -2.453  0.00  0.00    -0.292 OA
BRANCH  29  35
ATOM     35  C   LIG    1       -7.352   0.109  -0.377  0.00  0.00    +0.213 C 
BRANCH  35  36
ATOM     36  S   LIG    1       -8.256   0.949  -1.595  0.00  0.00    +0.081 S 
ATOM     37  O   LIG    1       -8.369   2.409  -1.400  0.00  0.00    -0.147 OA
ATOM     38  O   LIG    1       -7.665   0.720  -2.984  0.00  0.00    -0.147 OA
BRANCH  36  39
ATOM     39  O   LIG    1       -9.840   0.331  -1.730  0.00  0.00    -0.254 OA
ATOM     40  H   LIG    1      -10.363   0.515  -0.920  0.00  0.00    +0.244 HD
ENDBRANCH  36  39
ENDBRANCH  35  36
ENDBRANCH  29  35
ENDBRANCH   6  24
TORSDOF 8
