REMARK  Name = molecules/HEAUOKZIVMZVQL-VWLOTQADSA-N.pdb
REMARK                            x       y       z     vdW  Elec       q    Type
REMARK                         _______ _______ _______ _____ _____    ______ ____
ROOT
ATOM      1  C   LIG    1       -1.504   1.367  -0.727  0.00  0.00    +0.069 A 
ATOM      2  C   LIG    1       -0.146   1.462  -0.676  0.00  0.00    +0.265 A 
ATOM      3  O   LIG    1        0.452   2.556  -0.388  0.00  0.00    -0.267 OA
ATOM      4  N   LIG    1        0.564   0.341  -0.943  0.00  0.00    -0.259 N 
ATOM      5  C   LIG    1       -0.069  -0.800  -1.242  0.00  0.00    +0.333 A 
ATOM      6  N   LIG    1       -1.446  -0.919  -1.301  0.00  0.00    -0.293 N 
ATOM      7  O   LIG    1        0.631  -1.811  -1.486  0.00  0.00    -0.246 OA
ATOM      8  C   LIG    1       -2.155   0.177  -1.039  0.00  0.00    +0.034 A 
ATOM      9  C   LIG    1       -3.660   0.141  -1.057  0.00  0.00    +0.064 C 
ENDROOT
BRANCH   1  15
ATOM     10  C   LIG    1       -3.505   4.412  -1.320  0.00  0.00    +0.004 A 
ATOM     11  C   LIG    1       -4.005   4.729  -0.068  0.00  0.00    +0.048 A 
ATOM     12  C   LIG    1       -3.645   3.896   0.966  0.00  0.00    +0.156 A 
ATOM     13  C   LIG    1       -2.828   2.799   0.779  0.00  0.00    +0.173 A 
ATOM     14  F   LIG    1       -2.500   1.995   1.858  0.00  0.00    -0.201 F 
ATOM     15  C   LIG    1       -2.356   2.522  -0.477  0.00  0.00    +0.028 A 
ATOM     16  C   LIG    1       -2.691   3.326  -1.534  0.00  0.00    +0.012 A 
BRANCH  12  17
ATOM     17  O   LIG    1       -4.122   4.169   2.254  0.00  0.00    -0.492 OA
ATOM     18  C   LIG    1       -4.954   5.285   2.428  0.00  0.00    +0.277 C 
ENDBRANCH  12  17
ENDBRANCH   1  15
BRANCH   4  19
ATOM     19  C   LIG    1        1.989   0.443  -0.918  0.00  0.00    +0.153 C 
BRANCH  19  20
ATOM     20  C   LIG    1        2.710   0.321   0.355  0.00  0.00    +0.104 C 
BRANCH  20  21
ATOM     21  C   LIG    1        2.462  -0.964   1.034  0.00  0.00    -0.029 A 
ATOM     22  C   LIG    1        1.650  -1.048   2.155  0.00  0.00    +0.005 A 
ATOM     23  C   LIG    1        1.473  -2.255   2.784  0.00  0.00    +0.000 A 
ATOM     24  C   LIG    1        2.078  -3.422   2.347  0.00  0.00    +0.000 A 
ATOM     25  C   LIG    1        2.881  -3.317   1.232  0.00  0.00    +0.000 A 
ATOM     26  C   LIG    1        3.071  -2.107   0.584  0.00  0.00    +0.005 A 
ENDBRANCH  20  21
BRANCH  20  27
ATOM     27  N   LIG    1        4.136   0.426   0.087  0.00  0.00    -0.308 NA
ATOM     28  H   LIG    1        4.492  -0.318  -0.532  0.00  0.00    +0.123 HD
BRANCH  27  29
ATOM     29  C   LIG    1        4.588   1.674  -0.414  0.00  0.00    +0.082 C 
BRANCH  29  30
ATOM     30  C   LIG    1        6.072   1.490  -0.770  0.00  0.00    +0.026 C 
BRANCH  30  31
ATOM     31  C   LIG    1        6.872   1.099   0.435  0.00  0.00    +0.121 C 
BRANCH  31  32
ATOM     32  C   LIG    1        8.316   0.912   0.079  0.00  0.00    +0.305 C 
ATOM     33  O   LIG    1        8.751   1.060  -1.081  0.00  0.00    -0.251 OA
BRANCH  32  34
ATOM     34  O   LIG    1        9.190   0.561   1.087  0.00  0.00    -0.481 OA
ATOM     35  H   LIG    1       10.181   0.763   1.017  0.00  0.00    +0.295 HD
ENDBRANCH  32  34
ENDBRANCH  31  32
ENDBRANCH  30  31
ENDBRANCH  29  30
ENDBRANCH  27  29
ENDBRANCH  20  27
ENDBRANCH  19  20
ENDBRANCH   4  19
BRANCH   6  36
ATOM     36  C   LIG    1       -1.977  -2.181  -1.752  0.00  0.00    +0.165 C 
BRANCH  36  37
ATOM     37  C   LIG    1       -2.614  -3.061  -0.774  0.00  0.00    +0.019 A 
ATOM     38  C   LIG    1       -2.026  -3.350   0.433  0.00  0.00    +0.129 A 
ATOM     39  C   LIG    1       -2.649  -4.107   1.436  0.00  0.00    +0.039 A 
ATOM     40  C   LIG    1       -3.897  -4.580   1.205  0.00  0.00    +0.003 A 
ATOM     41  C   LIG    1       -4.496  -4.299   0.001  0.00  0.00    +0.013 A 
ATOM     42  F   LIG    1       -0.787  -2.922   0.766  0.00  0.00    -0.205 F 
ATOM     43  C   LIG    1       -3.909  -3.555  -1.014  0.00  0.00    +0.062 A 
BRANCH  43  44
ATOM     44  C   LIG    1       -4.609  -3.379  -2.316  0.00  0.00    +0.418 C 
ATOM     45  F   LIG    1       -5.734  -4.217  -2.285  0.00  0.00    -0.166 F 
ATOM     46  F   LIG    1       -5.059  -2.153  -2.614  0.00  0.00    -0.166 F 
ATOM     47  F   LIG    1       -3.829  -3.950  -3.344  0.00  0.00    -0.166 F 
ENDBRANCH  43  44
ENDBRANCH  36  37
ENDBRANCH   6  36
TORSDOF 14
