REMARK  Name = molecules/HEBKCHPVOIAQTA-SCDXWVJYSA-N.pdb
REMARK                            x       y       z     vdW  Elec       q    Type
REMARK                         _______ _______ _______ _____ _____    ______ ____
ROOT
ATOM      1  C   LIG    1        0.171  -0.100   0.907  0.00  0.00    +0.176 C 
ENDROOT
BRANCH   1   2
ATOM      2  O   LIG    1        0.135   1.188   1.405  0.00  0.00    -0.387 OA
ATOM      3  H   LIG    1       -0.227   1.131   2.331  0.00  0.00    +0.210 HD
ENDBRANCH   1   2
BRANCH   1   4
ATOM      4  C   LIG    1       -1.215  -0.602   0.651  0.00  0.00    +0.171 C 
BRANCH   4   5
ATOM      5  O   LIG    1       -1.135  -1.905   0.146  0.00  0.00    -0.387 OA
ATOM      6  H   LIG    1       -1.723  -2.051  -0.627  0.00  0.00    +0.210 HD
ENDBRANCH   4   5
BRANCH   4   7
ATOM      7  C   LIG    1       -2.035   0.278  -0.235  0.00  0.00    +0.189 C 
BRANCH   7   8
ATOM      8  O   LIG    1       -3.325  -0.291  -0.295  0.00  0.00    -0.392 OA
ATOM      9  H   LIG    1       -3.683  -0.226  -1.202  0.00  0.00    +0.210 HD
ENDBRANCH   7   8
ENDBRANCH   4   7
ENDBRANCH   1   4
BRANCH   1  10
ATOM     10  C   LIG    1        1.066  -0.200  -0.294  0.00  0.00    +0.171 C 
BRANCH  10  11
ATOM     11  O   LIG    1        0.650   0.629  -1.334  0.00  0.00    -0.387 OA
ATOM     12  H   LIG    1        0.999   1.534  -1.119  0.00  0.00    +0.210 HD
ENDBRANCH  10  11
BRANCH  10  13
ATOM     13  C   LIG    1        2.494   0.182   0.028  0.00  0.00    +0.189 C 
BRANCH  13  14
ATOM     14  O   LIG    1        3.232  -0.033  -1.156  0.00  0.00    -0.392 OA
ATOM     15  H   LIG    1        3.001   0.692  -1.813  0.00  0.00    +0.210 HD
ENDBRANCH  13  14
ENDBRANCH  10  13
ENDBRANCH   1  10
TORSDOF 9
