REMARK  Name = molecules/HEDRZPFGACZZDS-UHFFFAOYSA-N.pdb
REMARK                            x       y       z     vdW  Elec       q    Type
REMARK                         _______ _______ _______ _____ _____    ______ ____
ROOT
ATOM      1  C   LIG    1       -0.003  -0.014   0.139  0.00  0.00    +0.261 C 
ATOM      2 CL   LIG    1       -1.073  -1.321  -0.435  0.00  0.00    -0.087 Cl
ATOM      3 CL   LIG    1        1.663  -0.283  -0.440  0.00  0.00    -0.087 Cl
ATOM      4 CL   LIG    1       -0.570   1.549  -0.504  0.00  0.00    -0.087 Cl
ENDROOT
TORSDOF 0
