REMARK  Name = molecules/HEDXEAAVEOJUCR-UHFFFAOYSA-N.pdb
REMARK                            x       y       z     vdW  Elec       q    Type
REMARK                         _______ _______ _______ _____ _____    ______ ____
ROOT
ATOM      1  C   LIG    1       -0.002  -0.671  -0.893  0.00  0.00    -0.001 C 
ENDROOT
BRANCH   1   2
ATOM      2  C   LIG    1        1.302  -0.289  -0.300  0.00  0.00    +0.089 A 
ATOM      3  O   LIG    1        1.964  -0.967   0.608  0.00  0.00    -0.470 OA
ATOM      4  C   LIG    1        3.087  -0.359   0.925  0.00  0.00    +0.195 A 
ATOM      5  C   LIG    1        3.200   0.802   0.193  0.00  0.00    +0.041 A 
ATOM      6  C   LIG    1        2.063   0.842  -0.584  0.00  0.00    +0.043 A 
ENDBRANCH   1   2
BRANCH   1   8
ATOM      7  C   LIG    1       -0.771   0.600   1.000  0.00  0.00    -0.092 C 
ATOM      8  N   LIG    1       -1.125  -0.159  -0.171  0.00  0.00    +0.379 N 
ATOM      9  C   LIG    1       -2.028  -1.224   0.274  0.00  0.00    -0.092 C 
ATOM     10  C   LIG    1       -1.918   0.648  -1.107  0.00  0.00    -0.092 C 
ENDBRANCH   1   8
TORSDOF 2
