REMARK  Name = molecules/HEFNNWSXXWATRW-JTQLQIEISA-N.pdb
REMARK                            x       y       z     vdW  Elec       q    Type
REMARK                         _______ _______ _______ _____ _____    ______ ____
ROOT
ATOM      1  C   LIG    1       -0.790  -0.369   0.767  0.00  0.00    -0.047 A 
ATOM      2  C   LIG    1       -0.013   0.756   0.581  0.00  0.00    +0.004 A 
ATOM      3  C   LIG    1        1.299   0.656   0.134  0.00  0.00    +0.005 A 
ATOM      4  C   LIG    1        1.837  -0.575  -0.129  0.00  0.00    -0.034 A 
ATOM      5  C   LIG    1        1.095  -1.714   0.045  0.00  0.00    +0.005 A 
ATOM      6  C   LIG    1       -0.220  -1.589   0.495  0.00  0.00    +0.004 A 
ENDROOT
BRANCH   4   7
ATOM      7  C   LIG    1        3.237  -0.704  -0.607  0.00  0.00    +0.124 C 
ATOM      8  C   LIG    1        4.186  -0.127   0.442  0.00  0.00    +0.024 C 
BRANCH   7   9
ATOM      9  C   LIG    1        3.437   0.074  -1.841  0.00  0.00    +0.312 C 
ATOM     10  O   LIG    1        3.800  -0.510  -2.899  0.00  0.00    -0.250 OA
BRANCH   9  11
ATOM     11  O   LIG    1        3.244   1.437  -1.902  0.00  0.00    -0.480 OA
ATOM     12  H   LIG    1        3.811   2.114  -1.411  0.00  0.00    +0.295 HD
ENDBRANCH   9  11
ENDBRANCH   7   9
ENDBRANCH   4   7
BRANCH   1  13
ATOM     13  C   LIG    1       -2.188  -0.230   1.245  0.00  0.00    +0.038 C 
BRANCH  13  15
ATOM     14  C   LIG    1       -2.905   1.104  -0.744  0.00  0.00    +0.007 C 
ATOM     15  C   LIG    1       -3.179  -0.092   0.106  0.00  0.00    -0.013 C 
ATOM     16  C   LIG    1       -4.551   0.057   0.729  0.00  0.00    +0.007 C 
ENDBRANCH  13  15
ENDBRANCH   1  13
TORSDOF 5
