REMARK  Name = molecules/HEFNNWSXXWATRW-SNVBAGLBSA-N.pdb
REMARK                            x       y       z     vdW  Elec       q    Type
REMARK                         _______ _______ _______ _____ _____    ______ ____
ROOT
ATOM      1  C   LIG    1        1.832  -0.205  -0.661  0.00  0.00    -0.034 A 
ATOM      2  C   LIG    1        1.280  -0.265   0.603  0.00  0.00    +0.005 A 
ATOM      3  C   LIG    1       -0.091  -0.473   0.769  0.00  0.00    +0.004 A 
ATOM      4  C   LIG    1       -0.902  -0.619  -0.329  0.00  0.00    -0.047 A 
ATOM      5  C   LIG    1       -0.330  -0.555  -1.583  0.00  0.00    +0.004 A 
ATOM      6  C   LIG    1        1.024  -0.350  -1.766  0.00  0.00    +0.005 A 
ENDROOT
BRANCH   1   7
ATOM      7  C   LIG    1        3.292   0.018  -0.779  0.00  0.00    +0.124 C 
ATOM      8  C   LIG    1        3.750   1.276  -0.102  0.00  0.00    +0.024 C 
BRANCH   7   9
ATOM      9  C   LIG    1        3.992  -1.122  -0.131  0.00  0.00    +0.312 C 
ATOM     10  O   LIG    1        4.779  -1.864  -0.774  0.00  0.00    -0.250 OA
BRANCH   9  11
ATOM     11  O   LIG    1        3.799  -1.406   1.212  0.00  0.00    -0.480 OA
ATOM     12  H   LIG    1        4.178  -0.780   1.914  0.00  0.00    +0.295 HD
ENDBRANCH   9  11
ENDBRANCH   7   9
ENDBRANCH   1   7
BRANCH   4  13
ATOM     13  C   LIG    1       -2.337  -0.836  -0.150  0.00  0.00    +0.038 C 
BRANCH  13  14
ATOM     14  C   LIG    1       -3.142   0.435  -0.101  0.00  0.00    -0.013 C 
ATOM     15  C   LIG    1       -2.735   1.250   1.105  0.00  0.00    +0.007 C 
ATOM     16  C   LIG    1       -4.602   0.060   0.088  0.00  0.00    +0.007 C 
ENDBRANCH  13  14
ENDBRANCH   4  13
TORSDOF 5
