REMARK  Name = molecules/HFNKQEVNSGCOJV-OAHLLOKOSA-N.pdb
REMARK                            x       y       z     vdW  Elec       q    Type
REMARK                         _______ _______ _______ _____ _____    ______ ____
ROOT
ATOM      1  C   LIG    1        1.599  -0.769  -0.011  0.00  0.00    +0.039 A 
ATOM      2  C   LIG    1        1.377  -1.396   1.196  0.00  0.00    +0.144 A 
ATOM      3  N   LIG    1        0.037  -1.610   1.278  0.00  0.00    -0.179 NA
ATOM      4  N   LIG    1       -0.555  -1.151   0.196  0.00  0.00    -0.267 N 
ATOM      5  C   LIG    1        0.369  -0.626  -0.621  0.00  0.00    +0.118 A 
ENDROOT
BRANCH   1   6
ATOM      6  C   LIG    1        2.891  -0.359  -0.500  0.00  0.00    +0.086 A 
ATOM      7  C   LIG    1        3.780   0.298   0.341  0.00  0.00    +0.045 A 
ATOM      8  C   LIG    1        3.683   0.680   1.674  0.00  0.00    +0.031 A 
ATOM      9  C   LIG    1        4.864   1.303   2.005  0.00  0.00    +0.085 A 
ATOM     10  N   LIG    1        5.634   1.291   0.904  0.00  0.00    -0.346 N 
ATOM     11  H   LIG    1        6.598   1.694   0.844  0.00  0.00    +0.167 HD
ATOM     12  C   LIG    1        5.010   0.692  -0.117  0.00  0.00    +0.142 A 
ATOM     13  N   LIG    1        5.339   0.433  -1.387  0.00  0.00    -0.218 NA
ATOM     14  C   LIG    1        4.483  -0.204  -2.209  0.00  0.00    +0.224 A 
ATOM     15  N   LIG    1        3.292  -0.586  -1.768  0.00  0.00    -0.235 NA
ENDBRANCH   1   6
BRANCH   4  16
ATOM     16  C   LIG    1       -1.985  -1.223  -0.032  0.00  0.00    +0.124 C 
BRANCH  16  17
ATOM     17  C   LIG    1       -2.384   0.041  -0.753  0.00  0.00    +0.015 C 
ATOM     18  C   LIG    1       -2.009   1.201   0.169  0.00  0.00    +0.005 C 
ATOM     19  C   LIG    1       -3.232   2.063   0.286  0.00  0.00    +0.000 C 
ATOM     20  C   LIG    1       -4.186   1.640  -0.794  0.00  0.00    +0.000 C 
ATOM     21  C   LIG    1       -3.862   0.163  -0.943  0.00  0.00    +0.005 C 
ENDBRANCH  16  17
BRANCH  16  22
ATOM     22  C   LIG    1       -2.243  -2.462  -0.853  0.00  0.00    +0.145 C 
BRANCH  22  23
ATOM     23  C   LIG    1       -3.635  -2.662  -1.158  0.00  0.00    +0.065 C 
ATOM     24  N   LIG    1       -4.737  -2.833  -1.416  0.00  0.00    -0.196 NA
ENDBRANCH  22  23
ENDBRANCH  16  22
ENDBRANCH   4  16
TORSDOF 5
