REMARK  Name = molecules/HGBFRHCDYZJRAO-LLVKDONJSA-N.pdb
REMARK                            x       y       z     vdW  Elec       q    Type
REMARK                         _______ _______ _______ _____ _____    ______ ____
ROOT
ATOM      1  O   LIG    1        1.576  -3.344   0.845  0.00  0.00    -0.153 OA
ATOM      2  S   LIG    1        0.561  -2.336   0.371  0.00  0.00    +0.062 S 
ATOM      3  N   LIG    1       -0.802  -2.447   1.403  0.00  0.00    -0.170 NA
ATOM      4  C   LIG    1       -1.632  -1.254   1.343  0.00  0.00    +0.160 C 
ATOM      5  N   LIG    1       -0.866  -0.111   1.693  0.00  0.00    -0.326 N 
ATOM      6  H   LIG    1       -1.234   0.548   2.420  0.00  0.00    +0.148 HD
ATOM      7  C   LIG    1        0.412   0.216   1.122  0.00  0.00    +0.056 A 
ATOM      8  C   LIG    1        0.854   1.534   1.241  0.00  0.00    +0.047 A 
ATOM      9  C   LIG    1        2.069   1.877   0.705  0.00  0.00    +0.069 A 
ATOM     10 CL   LIG    1        2.674   3.520   0.826  0.00  0.00    -0.081 Cl
ATOM     11  C   LIG    1        2.839   0.914   0.054  0.00  0.00    +0.125 A 
ATOM     12  C   LIG    1        2.384  -0.386  -0.053  0.00  0.00    +0.060 A 
ATOM     13  H   LIG    1       -1.350  -3.316   1.275  0.00  0.00    +0.150 HD
ATOM     14  C   LIG    1        1.170  -0.715   0.485  0.00  0.00    +0.128 A 
ATOM     15  O   LIG    1        0.209  -2.703  -1.053  0.00  0.00    -0.153 OA
ENDROOT
BRANCH  11  16
ATOM     16  S   LIG    1        4.377   1.386  -0.614  0.00  0.00    +0.057 S 
ATOM     17  O   LIG    1        5.233   1.907   0.504  0.00  0.00    -0.153 OA
ATOM     18  O   LIG    1        4.174   2.452  -1.652  0.00  0.00    -0.153 OA
BRANCH  16  19
ATOM     19  N   LIG    1        5.106   0.033  -1.347  0.00  0.00    -0.203 NA
ATOM     20  H   LIG    1        6.097  -0.108  -1.133  0.00  0.00    +0.144 HD
ATOM     21  H   LIG    1        4.867   0.035  -2.364  0.00  0.00    +0.144 HD
ENDBRANCH  16  19
ENDBRANCH  11  16
BRANCH   4  22
ATOM     22  C   LIG    1       -2.324  -1.106   0.033  0.00  0.00    +0.042 C 
BRANCH  22  23
ATOM     23  C   LIG    1       -3.206   0.076  -0.132  0.00  0.00    -0.014 C 
ATOM     24  C   LIG    1       -2.574   1.416  -0.003  0.00  0.00    +0.007 C 
ATOM     25  C   LIG    1       -3.776  -0.015  -1.560  0.00  0.00    +0.007 C 
ENDBRANCH  22  23
ENDBRANCH   4  22
TORSDOF 4
