REMARK  Name = molecules/HGGAKXAHAYOLDJ-FHZUQPTBSA-N.pdb
REMARK                            x       y       z     vdW  Elec       q    Type
REMARK                         _______ _______ _______ _____ _____    ______ ____
ROOT
ATOM      1  C   LIG    1       -0.335  -0.702  -0.689  0.00  0.00    +0.134 C 
ATOM      2  C   LIG    1       -1.161  -0.193   0.197  0.00  0.00    +0.044 C 
ATOM      3  S   LIG    1       -0.105   0.884   1.242  0.00  0.00    -0.101 S 
ATOM      4  C   LIG    1        1.430  -0.047   0.810  0.00  0.00    +0.158 C 
ATOM      5  C   LIG    1        2.575   0.784   0.373  0.00  0.00    +0.135 C 
ATOM      6  C   LIG    1        2.358   0.118  -0.937  0.00  0.00    +0.229 C 
ATOM      7  O   LIG    1        3.058  -0.049  -1.959  0.00  0.00    -0.275 OA
ATOM      8  N   LIG    1        1.012  -0.278  -0.590  0.00  0.00    -0.251 N 
ENDROOT
BRANCH   2   9
ATOM      9  C   LIG    1       -2.580  -0.298   0.477  0.00  0.00    +0.157 C 
ATOM     10  C   LIG    1       -3.307   1.045   0.241  0.00  0.00    +0.039 C 
ATOM     11  C   LIG    1       -4.739   0.556   0.357  0.00  0.00    +0.031 C 
ATOM     12  C   LIG    1       -4.626  -0.819  -0.262  0.00  0.00    +0.161 C 
ATOM     13  O   LIG    1       -3.335  -1.238  -0.116  0.00  0.00    -0.371 OA
ENDBRANCH   2   9
BRANCH   1  14
ATOM     14  C   LIG    1       -0.740  -1.647  -1.758  0.00  0.00    +0.352 C 
ATOM     15  O   LIG    1       -1.904  -2.028  -1.895  0.00  0.00    -0.244 OA
BRANCH  14  16
ATOM     16  O   LIG    1        0.231  -2.128  -2.650  0.00  0.00    -0.476 OA
ATOM     17  H   LIG    1        0.417  -1.617  -3.499  0.00  0.00    +0.295 HD
ENDBRANCH  14  16
ENDBRANCH   1  14
BRANCH   5  18
ATOM     18  C   LIG    1        3.915   0.301   0.942  0.00  0.00    +0.126 C 
ATOM     19  C   LIG    1        5.039   1.181   0.466  0.00  0.00    +0.038 C 
BRANCH  18  20
ATOM     20  O   LIG    1        3.844   0.231   2.337  0.00  0.00    -0.391 OA
ATOM     21  H   LIG    1        4.371  -0.528   2.660  0.00  0.00    +0.210 HD
ENDBRANCH  18  20
ENDBRANCH   5  18
TORSDOF 5
