REMARK  Name = molecules/HGKAMARNFGKMLC-MOPGFXCFSA-N.pdb
REMARK                            x       y       z     vdW  Elec       q    Type
REMARK                         _______ _______ _______ _____ _____    ______ ____
ROOT
ATOM      1  C   LIG    1       -1.258  -0.083  -0.515  0.00  0.00    +0.224 C 
ATOM      2  O   LIG    1       -0.043  -0.184   0.117  0.00  0.00    -0.334 OA
ATOM      3  C   LIG    1        0.957  -0.116  -0.852  0.00  0.00    +0.165 C 
ATOM      4  C   LIG    1        0.286   0.771  -1.881  0.00  0.00    +0.197 C 
ATOM      5  O   LIG    1       -1.024   0.311  -1.829  0.00  0.00    -0.338 OA
ENDROOT
BRANCH   3   6
ATOM      6  C   LIG    1        2.227   0.495  -0.298  0.00  0.00    +0.085 C 
ATOM      7  C   LIG    1        2.687  -0.407   0.850  0.00  0.00    +0.021 C 
ATOM      8  C   LIG    1        3.755   0.393   1.577  0.00  0.00    +0.003 C 
ATOM      9  C   LIG    1        4.876   0.670   0.641  0.00  0.00    +0.015 C 
ATOM     10  C   LIG    1        4.587   0.416  -0.796  0.00  0.00    +0.081 C 
ATOM     11  N   LIG    1        3.270   0.585  -1.234  0.00  0.00    -0.311 NA
ATOM     12  H   LIG    1        3.086   1.004  -2.141  0.00  0.00    +0.122 HD
ENDBRANCH   3   6
BRANCH   1  13
ATOM     13  C   LIG    1       -2.114   0.981   0.100  0.00  0.00    +0.016 A 
ATOM     14  C   LIG    1       -1.652   1.529   1.286  0.00  0.00    +0.009 A 
ATOM     15  C   LIG    1       -2.391   2.508   1.903  0.00  0.00    +0.000 A 
ATOM     16  C   LIG    1       -3.588   2.948   1.349  0.00  0.00    +0.000 A 
ATOM     17  C   LIG    1       -4.020   2.389   0.177  0.00  0.00    +0.000 A 
ATOM     18  C   LIG    1       -3.293   1.398  -0.469  0.00  0.00    +0.009 A 
ENDBRANCH   1  13
BRANCH   1  19
ATOM     19  C   LIG    1       -1.928  -1.400  -0.445  0.00  0.00    +0.016 A 
ATOM     20  C   LIG    1       -1.610  -2.228   0.628  0.00  0.00    +0.009 A 
ATOM     21  C   LIG    1       -2.169  -3.469   0.803  0.00  0.00    +0.000 A 
ATOM     22  C   LIG    1       -3.082  -3.899  -0.134  0.00  0.00    +0.000 A 
ATOM     23  C   LIG    1       -3.401  -3.082  -1.200  0.00  0.00    +0.000 A 
ATOM     24  C   LIG    1       -2.849  -1.843  -1.381  0.00  0.00    +0.009 A 
ENDBRANCH   1  19
TORSDOF 3
