REMARK  Name = molecules/HGWPFSBHDACWNL-VNIVASGNSA-N.pdb
REMARK                            x       y       z     vdW  Elec       q    Type
REMARK                         _______ _______ _______ _____ _____    ______ ____
ROOT
ATOM      1  C   LIG    1        1.092  -0.882   1.579  0.00  0.00    +0.317 C 
ATOM      2  O   LIG    1        0.375  -1.019   2.603  0.00  0.00    -0.250 OA
ENDROOT
BRANCH   1   3
ATOM      3  O   LIG    1        0.424  -0.618   0.392  0.00  0.00    -0.461 OA
BRANCH   3   9
ATOM      4  C   LIG    1       -4.892   0.198  -0.810  0.00  0.00    -0.040 C 
ATOM      5  N   LIG    1       -3.573  -0.101  -0.269  0.00  0.00    +0.424 N 
ATOM      6  O   LIG    1       -3.720  -0.533   0.968  0.00  0.00    -0.291 OA
ATOM      7  C   LIG    1       -2.776   1.099  -0.402  0.00  0.00    -0.020 C 
ATOM      8  C   LIG    1       -1.330   0.895  -0.098  0.00  0.00    +0.034 C 
ATOM      9  C   LIG    1       -1.005  -0.512   0.361  0.00  0.00    +0.174 C 
ATOM     10  C   LIG    1       -1.585  -1.470  -0.626  0.00  0.00    +0.034 C 
ATOM     11  C   LIG    1       -2.888   1.300  -1.922  0.00  0.00    -0.011 C 
ATOM     12  C   LIG    1       -2.693  -0.132  -2.392  0.00  0.00    -0.011 C 
ATOM     13  C   LIG    1       -2.928  -1.006  -1.172  0.00  0.00    -0.020 C 
ENDBRANCH   3   9
ENDBRANCH   1   3
BRANCH   1  14
ATOM     14  C   LIG    1        2.548  -1.006   1.696  0.00  0.00    +0.153 C 
BRANCH  14  15
ATOM     15  C   LIG    1        3.286   0.197   1.296  0.00  0.00    -0.032 A 
ATOM     16  C   LIG    1        4.135   0.851   2.151  0.00  0.00    +0.004 A 
ATOM     17  C   LIG    1        4.816   1.993   1.724  0.00  0.00    +0.000 A 
ATOM     18  C   LIG    1        4.657   2.480   0.465  0.00  0.00    +0.000 A 
ATOM     19  C   LIG    1        3.809   1.833  -0.405  0.00  0.00    +0.000 A 
ATOM     20  C   LIG    1        3.133   0.698   0.023  0.00  0.00    +0.004 A 
ENDBRANCH  14  15
BRANCH  14  21
ATOM     21  C   LIG    1        3.074  -2.205   0.900  0.00  0.00    +0.175 C 
BRANCH  21  22
ATOM     22  O   LIG    1        2.481  -3.371   1.397  0.00  0.00    -0.394 OA
ATOM     23  H   LIG    1        1.875  -3.765   0.732  0.00  0.00    +0.209 HD
ENDBRANCH  21  22
ENDBRANCH  14  21
ENDBRANCH   1  14
TORSDOF 6
