REMARK  Name = molecules/HHFOOWPWAXNJNY-SECBINFHSA-N.pdb
REMARK                            x       y       z     vdW  Elec       q    Type
REMARK                         _______ _______ _______ _____ _____    ______ ____
ROOT
ATOM      1  C   LIG    1       -0.396   0.225   0.398  0.00  0.00    +0.175 C 
ATOM      2  O   LIG    1        0.433  -0.005   1.508  0.00  0.00    -0.345 OA
ATOM      3  C   LIG    1        1.727  -0.120   1.101  0.00  0.00    +0.197 C 
ATOM      4  C   LIG    1        1.663  -0.291  -0.374  0.00  0.00    +0.173 C 
ATOM      5  O   LIG    1        0.362  -0.139  -0.741  0.00  0.00    -0.340 OA
ENDROOT
BRANCH   1   6
ATOM      6  C   LIG    1       -1.571  -0.688   0.407  0.00  0.00    +0.043 C 
ATOM      7  C   LIG    1       -1.079  -2.159   0.544  0.00  0.00    +0.012 C 
ATOM      8  C   LIG    1       -2.361  -0.639  -0.855  0.00  0.00    +0.012 C 
ENDBRANCH   1   6
BRANCH   1   9
ATOM      9  C   LIG    1       -0.763   1.668   0.339  0.00  0.00    +0.043 C 
ATOM     10  C   LIG    1        0.479   2.547   0.641  0.00  0.00    +0.012 C 
ATOM     11  C   LIG    1       -1.497   2.195  -0.832  0.00  0.00    +0.012 C 
ENDBRANCH   1   9
BRANCH   4  12
ATOM     12  C   LIG    1        2.213  -1.672  -0.768  0.00  0.00    +0.189 C 
BRANCH  12  13
ATOM     13  O   LIG    1        3.557  -1.739  -0.354  0.00  0.00    -0.392 OA
ATOM     14  H   LIG    1        3.856  -2.683  -0.268  0.00  0.00    +0.210 HD
ENDBRANCH  12  13
ENDBRANCH   4  12
TORSDOF 4
