REMARK  Name = molecules/HHJUWIANJFBDHT-ZVTSDNJWSA-N.pdb
REMARK                            x       y       z     vdW  Elec       q    Type
REMARK                         _______ _______ _______ _____ _____    ______ ____
ROOT
ATOM      1  C   LIG    1       -3.962   2.279   0.451  0.00  0.00    +0.034 C 
ATOM      2  C   LIG    1       -3.920   1.749   1.844  0.00  0.00    +0.168 C 
ATOM      3  C   LIG    1       -4.152   0.291   2.004  0.00  0.00    +0.187 C 
ATOM      4  C   LIG    1       -4.302  -0.482   0.747  0.00  0.00    +0.128 C 
ATOM      5  N   LIG    1       -3.905  -1.872   0.901  0.00  0.00    -0.325 N 
ATOM      6  C   LIG    1       -4.718  -3.013   1.292  0.00  0.00    +0.129 C 
ATOM      7  C   LIG    1       -2.499  -1.971   0.590  0.00  0.00    +0.037 A 
ATOM      8  C   LIG    1       -1.545  -2.920   0.884  0.00  0.00    +0.069 A 
ATOM      9  C   LIG    1       -0.224  -2.797   0.505  0.00  0.00    +0.126 A 
ATOM     10  C   LIG    1        0.159  -1.673  -0.199  0.00  0.00    +0.017 A 
ATOM     11  C   LIG    1       -0.811  -0.735  -0.484  0.00  0.00    +0.014 A 
ATOM     12  C   LIG    1       -2.162  -0.844  -0.107  0.00  0.00    -0.016 A 
ATOM     13  C   LIG    1       -3.377  -0.026  -0.316  0.00  0.00    +0.037 C 
ATOM     14  C   LIG    1       -3.960  -0.449  -1.698  0.00  0.00    +0.030 C 
ATOM     15  C   LIG    1       -3.207   0.486  -2.605  0.00  0.00    +0.086 C 
ATOM     16  N   LIG    1       -3.281   1.734  -1.851  0.00  0.00    -0.294 NA
ATOM     17  C   LIG    1       -4.443   2.419  -2.284  0.00  0.00    +0.111 C 
ATOM     18  C   LIG    1       -5.562   2.480  -1.330  0.00  0.00    -0.015 C 
ATOM     19  C   LIG    1       -5.360   2.416  -0.037  0.00  0.00    -0.019 C 
ATOM     20  C   LIG    1       -3.161   1.430  -0.466  0.00  0.00    +0.082 C 
ENDROOT
BRANCH  10  21
ATOM     21  C   LIG    1        1.590  -1.565  -0.679  0.00  0.00    +0.136 C 
ATOM     22  C   LIG    1        2.531  -1.694   0.489  0.00  0.00    +0.042 A 
ATOM     23  C   LIG    1        2.942  -0.771   1.364  0.00  0.00    -0.016 A 
ATOM     24  C   LIG    1        3.822  -1.424   2.243  0.00  0.00    +0.003 A 
ATOM     25  C   LIG    1        4.552  -0.999   3.347  0.00  0.00    +0.010 A 
ATOM     26  C   LIG    1        5.363  -1.847   4.066  0.00  0.00    +0.001 A 
ATOM     27  C   LIG    1        5.441  -3.163   3.660  0.00  0.00    +0.002 A 
ATOM     28  C   LIG    1        4.745  -3.643   2.578  0.00  0.00    +0.026 A 
ATOM     29  C   LIG    1        3.938  -2.751   1.881  0.00  0.00    +0.047 A 
ATOM     30  C   LIG    1        2.650   0.699   1.443  0.00  0.00    +0.053 C 
ATOM     31  C   LIG    1        3.746   1.570   0.960  0.00  0.00    +0.089 C 
ATOM     32  N   LIG    1        4.654   1.182  -0.054  0.00  0.00    -0.299 NA
ATOM     33  C   LIG    1        4.263   0.074  -0.911  0.00  0.00    +0.088 C 
ATOM     34  C   LIG    1        2.951   0.514  -1.386  0.00  0.00    +0.008 C 
ATOM     35  C   LIG    1        3.321   1.202  -2.727  0.00  0.00    +0.041 C 
ATOM     36  C   LIG    1        4.312   2.271  -2.316  0.00  0.00    +0.079 C 
ATOM     37  C   LIG    1        4.915   2.262  -1.002  0.00  0.00    +0.119 C 
ATOM     38  N   LIG    1        3.134  -2.871   0.805  0.00  0.00    -0.357 N 
ATOM     39  H   LIG    1        3.085  -3.815   0.313  0.00  0.00    +0.166 HD
ATOM     40  C   LIG    1        1.756  -0.293  -1.390  0.00  0.00    +0.034 C 
BRANCH  36  41
ATOM     41  C   LIG    1        3.660   3.653  -2.517  0.00  0.00    +0.032 C 
ATOM     42  C   LIG    1        3.263   3.907  -3.937  0.00  0.00    +0.007 C 
ENDBRANCH  36  41
BRANCH  36  43
ATOM     43  O   LIG    1        5.331   2.235  -3.302  0.00  0.00    -0.387 OA
ATOM     44  H   LIG    1        4.910   1.948  -4.140  0.00  0.00    +0.210 HD
ENDBRANCH  36  43
BRANCH  21  45
ATOM     45  C   LIG    1        1.735  -2.659  -1.666  0.00  0.00    +0.323 C 
ATOM     46  O   LIG    1        2.045  -2.293  -2.855  0.00  0.00    -0.249 OA
BRANCH  45  47
ATOM     47  O   LIG    1        1.588  -3.997  -1.493  0.00  0.00    -0.467 OA
ATOM     48  C   LIG    1        1.774  -4.888  -2.571  0.00  0.00    +0.280 C 
ENDBRANCH  45  47
ENDBRANCH  21  45
ENDBRANCH  10  21
BRANCH   3  49
ATOM     49  C   LIG    1       -3.080  -0.247   2.870  0.00  0.00    +0.247 C 
ATOM     50  O   LIG    1       -3.392  -0.844   3.928  0.00  0.00    -0.273 OA
ATOM     51  N   LIG    1       -1.690  -0.139   2.602  0.00  0.00    -0.327 N 
ATOM     52  H   LIG    1       -0.971  -0.842   2.801  0.00  0.00    +0.145 HD
ATOM     53  H   LIG    1       -1.367   0.764   2.152  0.00  0.00    +0.145 HD
ENDBRANCH   3  49
BRANCH   1  54
ATOM     54  C   LIG    1       -3.329   3.667   0.452  0.00  0.00    +0.012 C 
ATOM     55  C   LIG    1       -4.070   4.619   1.359  0.00  0.00    +0.005 C 
ENDBRANCH   1  54
BRANCH   2  56
ATOM     56  O   LIG    1       -4.853   2.512   2.586  0.00  0.00    -0.387 OA
ATOM     57  H   LIG    1       -5.731   2.035   2.617  0.00  0.00    +0.210 HD
ENDBRANCH   2  56
BRANCH   3  58
ATOM     58  O   LIG    1       -5.382   0.148   2.727  0.00  0.00    -0.375 OA
ATOM     59  H   LIG    1       -5.163   0.349   3.676  0.00  0.00    +0.211 HD
ENDBRANCH   3  58
BRANCH   9  60
ATOM     60  O   LIG    1        0.664  -3.830   0.863  0.00  0.00    -0.495 OA
ATOM     61  C   LIG    1        0.246  -4.949   1.571  0.00  0.00    +0.277 C 
ENDBRANCH   9  60
TORSDOF 10
