REMARK  Name = molecules/HHPZZKDXAFJLOH-QZIXMDIESA-N.pdb
REMARK                            x       y       z     vdW  Elec       q    Type
REMARK                         _______ _______ _______ _____ _____    ______ ____
ROOT
ATOM      1  F   LIG    1       -2.402   0.369   1.700  0.00  0.00    -0.238 F 
ATOM      2  C   LIG    1       -2.192  -0.150   0.427  0.00  0.00    +0.153 C 
ATOM      3  C   LIG    1       -1.322  -1.355   0.580  0.00  0.00    +0.154 C 
ATOM      4  C   LIG    1        0.070  -0.984   1.005  0.00  0.00    +0.044 C 
ATOM      5  C   LIG    1        0.729  -0.001   0.098  0.00  0.00    +0.009 C 
ATOM      6  C   LIG    1        1.902   0.694   0.665  0.00  0.00    +0.133 C 
ATOM      7  C   LIG    1        2.014   1.893  -0.296  0.00  0.00    +0.043 C 
ATOM      8  C   LIG    1        0.584   2.175  -0.725  0.00  0.00    +0.008 C 
ATOM      9  C   LIG    1       -0.227   1.224   0.105  0.00  0.00    +0.004 C 
ATOM     10  C   LIG    1        0.970  -0.444  -1.298  0.00  0.00    +0.015 C 
ATOM     11  C   LIG    1       -3.547  -0.472  -0.134  0.00  0.00    +0.044 C 
ATOM     12  C   LIG    1       -4.099  -1.728   0.386  0.00  0.00    -0.009 C 
ATOM     13  C   LIG    1       -5.226  -1.746   1.052  0.00  0.00    +0.047 C 
ATOM     14  C   LIG    1       -6.017  -0.557   1.336  0.00  0.00    +0.179 C 
ATOM     15  O   LIG    1       -7.103  -0.611   1.984  0.00  0.00    -0.288 OA
ATOM     16  C   LIG    1       -5.504   0.703   0.840  0.00  0.00    +0.051 C 
ATOM     17  C   LIG    1       -4.375   0.725   0.171  0.00  0.00    -0.053 C 
ATOM     18  C   LIG    1       -3.873   2.030  -0.319  0.00  0.00    +0.032 C 
ATOM     19  C   LIG    1       -2.408   2.196  -0.281  0.00  0.00    +0.011 C 
ATOM     20  C   LIG    1       -3.551  -0.589  -1.644  0.00  0.00    +0.023 C 
ATOM     21  C   LIG    1       -1.582   0.940  -0.397  0.00  0.00    +0.034 C 
ENDROOT
BRANCH   6  22
ATOM     22  O   LIG    1        1.444   1.336   1.878  0.00  0.00    -0.380 OA
ATOM     23  H   LIG    1        1.558   0.732   2.635  0.00  0.00    +0.211 HD
ENDBRANCH   6  22
BRANCH   6  24
ATOM     24  C   LIG    1        3.158   0.040   0.937  0.00  0.00    +0.205 C 
ATOM     25  O   LIG    1        3.591  -0.037   2.122  0.00  0.00    -0.290 OA
BRANCH  24  26
ATOM     26  C   LIG    1        4.057  -0.572  -0.059  0.00  0.00    +0.242 C 
ATOM     27  C   LIG    1        3.585  -1.980  -0.383  0.00  0.00    +0.060 C 
BRANCH  26  28
ATOM     28  O   LIG    1        5.383  -0.747   0.552  0.00  0.00    -0.454 OA
BRANCH  28  29
ATOM     29  C   LIG    1        6.496  -0.240  -0.096  0.00  0.00    +0.305 C 
ATOM     30  C   LIG    1        7.867  -0.393   0.488  0.00  0.00    +0.136 C 
ATOM     31  O   LIG    1        6.308   0.356  -1.198  0.00  0.00    -0.251 OA
ENDBRANCH  28  29
ENDBRANCH  26  28
ENDBRANCH  24  26
ENDBRANCH   6  24
BRANCH   3  32
ATOM     32  O   LIG    1       -1.333  -2.211  -0.512  0.00  0.00    -0.389 OA
ATOM     33  H   LIG    1       -1.133  -3.134  -0.296  0.00  0.00    +0.210 HD
ENDBRANCH   3  32
TORSDOF 6
