REMARK  Name = molecules/HHRZAEJMHSGZNP-SSDOTTSWSA-N.pdb
REMARK                            x       y       z     vdW  Elec       q    Type
REMARK                         _______ _______ _______ _____ _____    ______ ____
ROOT
ATOM      1  C   LIG    1       -1.148  -0.389  -0.429  0.00  0.00    +0.096 C 
ATOM      2  C   LIG    1       -1.173  -1.722  -1.127  0.00  0.00    +0.030 C 
ENDROOT
BRANCH   1   4
ATOM      3  C   LIG    1        0.898   0.880  -0.932  0.00  0.00    +0.005 A 
ATOM      4  C   LIG    1        0.227   0.003  -0.114  0.00  0.00    -0.029 A 
ATOM      5  C   LIG    1        0.851  -0.500   0.995  0.00  0.00    +0.005 A 
ATOM      6  C   LIG    1        2.154  -0.108   1.264  0.00  0.00    +0.000 A 
ATOM      7  C   LIG    1        2.825   0.768   0.446  0.00  0.00    +0.000 A 
ATOM      8  C   LIG    1        2.201   1.276  -0.669  0.00  0.00    +0.000 A 
ENDBRANCH   1   4
BRANCH   1   9
ATOM      9  N   LIG    1       -2.020  -0.364   0.732  0.00  0.00    -0.252 NA
ATOM     10  H   LIG    1       -2.971  -0.608   0.399  0.00  0.00    +0.141 HD
BRANCH   9  11
ATOM     11  N   LIG    1       -2.035   0.942   1.237  0.00  0.00    -0.270 NA
ATOM     12  H   LIG    1       -3.025   1.281   1.404  0.00  0.00    +0.137 HD
ATOM     13  H   LIG    1       -1.619   1.635   0.571  0.00  0.00    +0.137 HD
ENDBRANCH   9  11
ENDBRANCH   1   9
TORSDOF 3
