REMARK  Name = molecules/HIUVKVDQFXDZHU-ZETCQYMHSA-N.pdb
REMARK                            x       y       z     vdW  Elec       q    Type
REMARK                         _______ _______ _______ _____ _____    ______ ____
ROOT
ATOM      1  C   LIG    1        0.242  -0.899  -0.891  0.00  0.00    +0.244 C 
ATOM      2  C   LIG    1       -0.402  -1.935  -0.041  0.00  0.00    +0.277 C 
ATOM      3  O   LIG    1       -1.824  -1.745   0.019  0.00  0.00    -0.485 OA
ATOM      4  C   LIG    1       -2.389  -0.476   0.092  0.00  0.00    +0.162 A 
ATOM      5  C   LIG    1       -3.679  -0.250   0.508  0.00  0.00    +0.049 A 
ATOM      6  C   LIG    1       -4.257   1.006   0.588  0.00  0.00    +0.004 A 
ATOM      7  C   LIG    1       -3.461   2.064   0.220  0.00  0.00    +0.004 A 
ATOM      8  C   LIG    1       -2.165   1.876  -0.203  0.00  0.00    +0.049 A 
ATOM      9  C   LIG    1       -1.605   0.598  -0.275  0.00  0.00    +0.163 A 
ATOM     10  O   LIG    1       -0.318   0.391  -0.693  0.00  0.00    -0.479 OA
ENDROOT
BRANCH   1  11
ATOM     11  C   LIG    1        1.721  -0.728  -0.736  0.00  0.00    +0.243 C 
BRANCH  11  12
ATOM     12  N   LIG    1        2.059  -0.203   0.583  0.00  0.00    -0.272 N 
ATOM     13  H   LIG    1        1.322  -0.153   1.310  0.00  0.00    +0.258 HD
BRANCH  12  15
ATOM     14  N   LIG    1        4.415   0.098  -0.076  0.00  0.00    -0.289 N 
ATOM     15  C   LIG    1        3.389   0.226   0.873  0.00  0.00    +0.376 C 
ATOM     16  H   LIG    1        5.174   0.806  -0.214  0.00  0.00    +0.255 HD
ATOM     17  H   LIG    1        4.452  -0.746  -0.700  0.00  0.00    +0.255 HD
BRANCH  15  18
ATOM     18  N   LIG    1        3.679   0.775   2.026  0.00  0.00    -0.130 NA
ATOM     19  H   LIG    1        4.662   1.095   2.190  0.00  0.00    +0.306 HD
ENDBRANCH  15  18
ENDBRANCH  12  15
ENDBRANCH  11  12
ENDBRANCH   1  11
TORSDOF 4
