REMARK  Name = molecules/HJCMDXDYPOUFDY-WHFBIAKZSA-N.pdb
REMARK                            x       y       z     vdW  Elec       q    Type
REMARK                         _______ _______ _______ _____ _____    ______ ____
ROOT
ATOM      1  CA  GLN A  2        0.698   0.615   1.130  0.00  0.00    +0.182 C 
ENDROOT
BRANCH   1   2
ATOM      2  N   GLN A  2       -0.445   0.016   0.487  0.00  0.00    -0.301 N 
ATOM      3  C   ALA A  1       -1.555  -0.450   1.217  0.00  0.00    +0.230 C 
ATOM      4  O   ALA A  1       -1.540  -0.335   2.477  0.00  0.00    -0.274 OA
ATOM      5  H   GLN A  2       -0.449  -0.073  -0.545  0.00  0.00    +0.150 HD
BRANCH   3   6
ATOM      6  CA  ALA A  1       -2.705  -1.059   0.513  0.00  0.00    +0.135 C 
ATOM      7  CB  ALA A  1       -3.299  -0.090  -0.502  0.00  0.00    +0.033 C 
BRANCH   6   8
ATOM      8  N   ALA A  1       -3.714  -1.464   1.490  0.00  0.00    -0.320 NA
ATOM      9  H1  ALA A  1       -4.290  -0.615   1.694  0.00  0.00    +0.119 HD
ATOM     10  H2  ALA A  1       -4.337  -2.163   1.020  0.00  0.00    +0.119 HD
ENDBRANCH   6   8
ENDBRANCH   3   6
ENDBRANCH   1   2
BRANCH   1  11
ATOM     11  C   GLN A  2        0.938   2.015   0.828  0.00  0.00    +0.325 C 
ATOM     12  O   GLN A  2        0.269   2.677  -0.030  0.00  0.00    -0.249 OA
BRANCH  11  13
ATOM     13  OXT GLN A  2        1.940   2.769   1.472  0.00  0.00    -0.479 OA
ATOM     14  HXT GLN A  2        2.578   3.351   0.950  0.00  0.00    +0.295 HD
ENDBRANCH  11  13
ENDBRANCH   1  11
BRANCH   1  15
ATOM     15  CB  GLN A  2        1.835  -0.331   1.032  0.00  0.00    +0.043 C 
BRANCH  15  16
ATOM     16  CG  GLN A  2        2.277  -0.782  -0.296  0.00  0.00    +0.098 C 
BRANCH  16  17
ATOM     17  CD  GLN A  2        2.759   0.228  -1.243  0.00  0.00    +0.211 C 
ATOM     18  OE1 GLN A  2        2.927   1.420  -0.977  0.00  0.00    -0.276 OA
ATOM     19  NE2 GLN A  2        3.078  -0.152  -2.612  0.00  0.00    -0.329 N 
ATOM     20 HE21 GLN A  2        4.054  -0.035  -2.944  0.00  0.00    +0.145 HD
ATOM     21 HE22 GLN A  2        2.324  -0.526  -3.203  0.00  0.00    +0.145 HD
ENDBRANCH  16  17
ENDBRANCH  15  16
ENDBRANCH   1  15
TORSDOF 8
