REMARK  Name = molecules/HJDYAOBDPZQHOD-SFHVURJKSA-N.pdb
REMARK                            x       y       z     vdW  Elec       q    Type
REMARK                         _______ _______ _______ _____ _____    ______ ____
ROOT
ATOM      1  C   LIG    1        1.315   0.186  -0.612  0.00  0.00    +0.120 C 
ENDROOT
BRANCH   1   2
ATOM      2  C   LIG    1        2.433  -0.757  -0.807  0.00  0.00    -0.011 A 
ATOM      3  C   LIG    1        2.261  -2.069  -0.419  0.00  0.00    +0.007 A 
ATOM      4  C   LIG    1        3.315  -2.954  -0.607  0.00  0.00    +0.000 A 
ATOM      5  C   LIG    1        4.507  -2.571  -1.159  0.00  0.00    +0.000 A 
ATOM      6  C   LIG    1        4.625  -1.238  -1.532  0.00  0.00    +0.000 A 
ATOM      7  C   LIG    1        3.615  -0.329  -1.367  0.00  0.00    +0.007 A 
ENDBRANCH   1   2
BRANCH   1   8
ATOM      8  C   LIG    1        1.689   1.306   0.310  0.00  0.00    +0.025 A 
ATOM      9  C   LIG    1        2.067   1.247   1.621  0.00  0.00    +0.014 A 
ATOM     10  C   LIG    1        2.354   2.414   2.234  0.00  0.00    +0.008 A 
ATOM     11  C   LIG    1        2.241   3.555   1.485  0.00  0.00    +0.045 A 
ATOM     12  S   LIG    1        1.743   2.971  -0.035  0.00  0.00    -0.098 S 
ENDBRANCH   1   8
BRANCH   1  13
ATOM     13  O   LIG    1        1.045   0.753  -1.858  0.00  0.00    -0.379 OA
ATOM     14  H   LIG    1        0.543   0.122  -2.422  0.00  0.00    +0.211 HD
ENDBRANCH   1  13
BRANCH   1  15
ATOM     15  C   LIG    1        0.049  -0.477  -0.116  0.00  0.00    +0.027 C 
BRANCH  15  16
ATOM     16  C   LIG    1       -0.987   0.625  -0.028  0.00  0.00    -0.072 C 
BRANCH  16  17
ATOM     17  N   LIG    1       -2.270   0.167   0.432  0.00  0.00    +0.381 N 
ATOM     18  C   LIG    1       -2.151  -0.114   1.858  0.00  0.00    -0.092 C 
ATOM     19  C   LIG    1       -3.187   1.296   0.312  0.00  0.00    -0.047 C 
ATOM     20  C   LIG    1       -4.031   1.026  -0.916  0.00  0.00    +0.142 C 
ATOM     21  O   LIG    1       -4.886  -0.023  -0.559  0.00  0.00    -0.383 OA
ATOM     22  C   LIG    1       -4.156  -1.182  -0.411  0.00  0.00    +0.142 C 
ATOM     23  C   LIG    1       -2.679  -0.977  -0.300  0.00  0.00    -0.047 C 
ENDBRANCH  16  17
ENDBRANCH  15  16
ENDBRANCH   1  15
TORSDOF 6
