REMARK  Name = molecules/HJJRIJDTIPFROI-NVKITGPLSA-N.pdb
REMARK                            x       y       z     vdW  Elec       q    Type
REMARK                         _______ _______ _______ _____ _____    ______ ____
ROOT
ATOM      1  CA  LIG    1        0.132   0.140  -1.959  0.00  0.00    +0.191 C 
ATOM      2  C   LIG    1        1.484   0.573  -1.512  0.00  0.00    +0.169 C 
ATOM      3  S   LIG    1        1.572   1.302   0.130  0.00  0.00    -0.131 S 
ATOM      4  C   LIG    1        2.119   0.022   1.251  0.00  0.00    +0.107 C 
ATOM      5  C   LIG    1        3.128  -0.925   0.591  0.00  0.00    +0.006 C 
ATOM      6  CA  LIG    1        2.986  -1.309  -0.652  0.00  0.00    +0.125 C 
ATOM      7  N   LIG    1        1.852  -0.827  -1.426  0.00  0.00    -0.249 N 
ATOM      8  C   LIG    1        0.771  -1.134  -2.280  0.00  0.00    +0.244 C 
ATOM      9  O   LIG    1        0.493  -2.114  -3.010  0.00  0.00    -0.273 OA
ENDROOT
BRANCH   1  10
ATOM     10  N   LIG    1       -0.839   0.047  -0.845  0.00  0.00    -0.298 N 
ATOM     11  H   LIG    1       -0.523  -0.517  -0.053  0.00  0.00    +0.150 HD
ATOM     12  C   LIG    1       -2.091   0.641  -0.923  0.00  0.00    +0.246 C 
ATOM     13  O   LIG    1       -2.274   1.233  -2.073  0.00  0.00    -0.270 OA
BRANCH  12  14
ATOM     14  C   LIG    1       -3.192   0.745  -0.024  0.00  0.00    +0.059 C 
ATOM     15  C   LIG    1       -3.111   0.309   1.202  0.00  0.00    -0.012 C 
BRANCH  14  16
ATOM     16  C   LIG    1       -4.494   1.378  -0.482  0.00  0.00    +0.085 A 
ATOM     17  N   LIG    1       -5.464   1.547   0.365  0.00  0.00    -0.225 NA
ATOM     18  C   LIG    1       -6.608   2.072   0.013  0.00  0.00    +0.156 A 
ATOM     19  S   LIG    1       -6.355   2.374  -1.646  0.00  0.00    -0.060 S 
ATOM     20  C   LIG    1       -4.725   1.777  -1.767  0.00  0.00    +0.077 A 
BRANCH  18  21
ATOM     21  N   LIG    1       -7.776   2.326   0.821  0.00  0.00    -0.338 N 
ATOM     22  H   LIG    1       -7.691   2.849   1.694  0.00  0.00    +0.144 HD
ATOM     23  H   LIG    1       -8.674   1.966   0.487  0.00  0.00    +0.144 HD
ENDBRANCH  18  21
ENDBRANCH  14  16
BRANCH  15  24
ATOM     24  C   LIG    1       -2.015  -0.315   1.925  0.00  0.00    +0.024 C 
ATOM     25  C   LIG    1       -2.248  -1.793   2.057  0.00  0.00    +0.008 C 
ENDBRANCH  15  24
ENDBRANCH  12  14
ENDBRANCH   1  10
BRANCH   6  26
ATOM     26  C   LIG    1        3.881  -2.224  -1.331  0.00  0.00    +0.351 C 
ATOM     27  O   LIG    1        3.674  -2.572  -2.565  0.00  0.00    -0.244 OA
BRANCH  26  28
ATOM     28  OXT LIG    1        5.011  -2.834  -0.824  0.00  0.00    -0.476 OA
ATOM     29  HXT LIG    1        4.984  -3.819  -0.609  0.00  0.00    +0.295 HD
ENDBRANCH  26  28
ENDBRANCH   6  26
BRANCH   5  30
ATOM     30  C   LIG    1        4.254  -1.361   1.424  0.00  0.00    +0.268 C 
BRANCH  30  31
ATOM     31  O   LIG    1        4.996  -0.201   1.851  0.00  0.00    -0.446 OA
BRANCH  31  32
ATOM     32  C   LIG    1        5.552   0.612   0.885  0.00  0.00    +0.398 C 
ATOM     33  N   LIG    1        6.300   1.779   1.275  0.00  0.00    -0.295 N 
ATOM     34  H   LIG    1        5.795   2.605   1.657  0.00  0.00    +0.148 HD
ATOM     35  H   LIG    1        7.333   1.718   1.145  0.00  0.00    +0.148 HD
ATOM     36  O   LIG    1        5.466   0.424  -0.349  0.00  0.00    -0.227 OA
ENDBRANCH  31  32
ENDBRANCH  30  31
ENDBRANCH   5  30
TORSDOF 10
