REMARK  Name = molecules/HJXMNVQARNZTEE-NSHDSACASA-N.pdb
REMARK                            x       y       z     vdW  Elec       q    Type
REMARK                         _______ _______ _______ _____ _____    ______ ____
ROOT
ATOM      1  C   LIG    1        3.483  -0.095  -0.011  0.00  0.00    +0.015 A 
ATOM      2  C   LIG    1        3.412   0.960   0.865  0.00  0.00    +0.001 A 
ATOM      3  C   LIG    1        2.277   1.725   0.992  0.00  0.00    +0.000 A 
ATOM      4  C   LIG    1        1.190   1.408   0.212  0.00  0.00    +0.008 A 
ATOM      5  C   LIG    1        1.196   0.341  -0.699  0.00  0.00    +0.007 A 
ATOM      6  C   LIG    1        0.195  -0.266  -1.569  0.00  0.00    +0.208 C 
ATOM      7  O   LIG    1        0.907  -1.139  -2.401  0.00  0.00    -0.453 OA
ATOM      8  C   LIG    1        2.153  -1.336  -1.881  0.00  0.00    +0.340 C 
ATOM      9  O   LIG    1        3.050  -2.175  -2.222  0.00  0.00    -0.245 OA
ATOM     10  C   LIG    1        2.354  -0.388  -0.792  0.00  0.00    +0.066 A 
ENDROOT
BRANCH   6  11
ATOM     11  C   LIG    1       -0.927  -0.998  -0.871  0.00  0.00    +0.049 C 
BRANCH  11  12
ATOM     12  C   LIG    1       -1.662  -0.056   0.031  0.00  0.00    +0.004 C 
BRANCH  12  13
ATOM     13  C   LIG    1       -2.842  -0.750   0.711  0.00  0.00    -0.003 C 
ATOM     14  C   LIG    1       -3.500   0.288   1.588  0.00  0.00    +0.004 C 
ENDBRANCH  12  13
ENDBRANCH  11  12
ENDBRANCH   6  11
TORSDOF 3
