REMARK  Name = molecules/HKOURKRGAFKVFP-LBPRGKRZSA-N.pdb
REMARK                            x       y       z     vdW  Elec       q    Type
REMARK                         _______ _______ _______ _____ _____    ______ ____
ROOT
ATOM      1  N   LIG    1        2.363   0.543  -0.234  0.00  0.00    -0.285 N 
ATOM      2  C   LIG    1        1.151  -0.021   0.147  0.00  0.00    +0.219 C 
ATOM      3  O   LIG    1        1.046  -0.997   0.885  0.00  0.00    -0.275 OA
ATOM      4  H   LIG    1        2.395   1.405  -0.881  0.00  0.00    +0.155 HD
ENDROOT
BRANCH   1   5
ATOM      5  C   LIG    1        3.621   0.045   0.180  0.00  0.00    +0.033 A 
ATOM      6  C   LIG    1        3.837  -1.202   0.710  0.00  0.00    +0.023 A 
ATOM      7  C   LIG    1        5.100  -1.668   1.090  0.00  0.00    +0.002 A 
ATOM      8  C   LIG    1        6.163  -0.817   0.915  0.00  0.00    +0.000 A 
ATOM      9  C   LIG    1        5.979   0.442   0.385  0.00  0.00    +0.002 A 
ATOM     10  C   LIG    1        4.742   0.883   0.019  0.00  0.00    +0.023 A 
ENDBRANCH   1   5
BRANCH   2  11
ATOM     11  C   LIG    1       -0.099   0.614  -0.384  0.00  0.00    +0.114 C 
BRANCH  11  12
ATOM     12  C   LIG    1       -1.288  -0.183   0.155  0.00  0.00    +0.062 C 
ATOM     13  C   LIG    1       -1.122  -1.644  -0.080  0.00  0.00    +0.024 C 
BRANCH  12  14
ATOM     14  N   LIG    1       -2.479   0.391  -0.328  0.00  0.00    -0.300 NA
BRANCH  14  15
ATOM     15  C   LIG    1       -2.753   1.720   0.069  0.00  0.00    +0.081 C 
ATOM     16  C   LIG    1       -4.075   2.252  -0.444  0.00  0.00    +0.020 C 
ENDBRANCH  14  15
BRANCH  14  17
ATOM     17  C   LIG    1       -3.521  -0.401  -0.802  0.00  0.00    +0.081 C 
ATOM     18  C   LIG    1       -4.267  -1.242   0.160  0.00  0.00    +0.020 C 
ENDBRANCH  14  17
ENDBRANCH  12  14
ENDBRANCH  11  12
ENDBRANCH   2  11
TORSDOF 6
