REMARK  Name = molecules/HLDCSYXMVXILQC-UHFFFAOYSA-N.pdb
REMARK                            x       y       z     vdW  Elec       q    Type
REMARK                         _______ _______ _______ _____ _____    ______ ____
ROOT
ATOM      1  C   LIG    1        2.584   0.062   0.149  0.00  0.00    +0.138 A 
ATOM      2  C   LIG    1        1.482  -0.505   0.714  0.00  0.00    +0.101 A 
ATOM      3  C   LIG    1        1.716  -1.553   1.625  0.00  0.00    +0.019 A 
ATOM      4  C   LIG    1        2.962  -2.001   1.948  0.00  0.00    +0.002 A 
ATOM      5  C   LIG    1        4.068  -1.421   1.371  0.00  0.00    +0.012 A 
ATOM      6  C   LIG    1        3.881  -0.402   0.482  0.00  0.00    +0.024 A 
ENDROOT
BRANCH   6   7
ATOM      7  C   LIG    1        5.023   0.266  -0.180  0.00  0.00    -0.014 A 
ATOM      8  C   LIG    1        5.064   1.627  -0.268  0.00  0.00    +0.008 A 
ATOM      9  C   LIG    1        6.155   2.197  -0.898  0.00  0.00    +0.001 A 
ATOM     10  C   LIG    1        7.152   1.390  -1.409  0.00  0.00    +0.000 A 
ATOM     11  C   LIG    1        7.092   0.003  -1.309  0.00  0.00    +0.001 A 
ATOM     12  C   LIG    1        6.006  -0.556  -0.683  0.00  0.00    +0.008 A 
ENDBRANCH   6   7
BRANCH   1  13
ATOM     13  O   LIG    1        2.477   1.091  -0.753  0.00  0.00    -0.505 OA
ATOM     14  H   LIG    1        1.653   1.494  -1.062  0.00  0.00    +0.292 HD
ENDBRANCH   1  13
BRANCH   2  15
ATOM     15  C   LIG    1        0.107  -0.110   0.448  0.00  0.00    +0.343 C 
ATOM     16  O   LIG    1       -0.198   0.800  -0.335  0.00  0.00    -0.245 OA
BRANCH  15  17
ATOM     17  O   LIG    1       -0.960  -0.748   1.070  0.00  0.00    -0.460 OA
BRANCH  17  18
ATOM     18  C   LIG    1       -2.317  -0.454   0.892  0.00  0.00    +0.248 C 
BRANCH  18  19
ATOM     19  C   LIG    1       -2.795  -0.616  -0.498  0.00  0.00    +0.125 C 
BRANCH  19  20
ATOM     20  N   LIG    1       -4.234  -0.306  -0.657  0.00  0.00    -0.300 NA
BRANCH  20  21
ATOM     21  C   LIG    1       -4.962  -1.047   0.352  0.00  0.00    +0.081 C 
ATOM     22  C   LIG    1       -6.445  -1.013   0.190  0.00  0.00    +0.020 C 
ENDBRANCH  20  21
BRANCH  20  23
ATOM     23  C   LIG    1       -4.425   1.104  -0.460  0.00  0.00    +0.081 C 
ATOM     24  C   LIG    1       -5.770   1.656  -0.801  0.00  0.00    +0.020 C 
ENDBRANCH  20  23
ENDBRANCH  19  20
ENDBRANCH  18  19
ENDBRANCH  17  18
ENDBRANCH  15  17
ENDBRANCH   2  15
TORSDOF 9
