REMARK  Name = molecules/HLFSDGLLUJUHTE-SNVBAGLBSA-N.pdb
REMARK                            x       y       z     vdW  Elec       q    Type
REMARK                         _______ _______ _______ _____ _____    ______ ____
ROOT
ATOM      1  C   LIG    1       -4.048   0.754   0.806  0.00  0.00    +0.088 C 
ATOM      2  C   LIG    1       -3.370  -0.596   0.695  0.00  0.00    +0.098 C 
ATOM      3  N   LIG    1       -1.998  -0.371   0.307  0.00  0.00    -0.269 NA
ATOM      4  C   LIG    1       -0.603  -0.771   0.613  0.00  0.00    +0.112 C 
ATOM      5  C   LIG    1        0.046  -0.620  -0.756  0.00  0.00    +0.120 C 
ATOM      6  N   LIG    1       -0.759   0.434  -1.348  0.00  0.00    -0.196 NA
ATOM      7  C   LIG    1       -1.876   0.563  -0.760  0.00  0.00    +0.181 C 
ATOM      8  S   LIG    1       -3.389   1.497  -0.755  0.00  0.00    -0.116 S 
ENDROOT
BRANCH   5   9
ATOM      9  C   LIG    1        1.451  -0.192  -0.588  0.00  0.00    -0.028 A 
ATOM     10  C   LIG    1        2.095  -0.462   0.602  0.00  0.00    +0.005 A 
ATOM     11  C   LIG    1        3.405  -0.097   0.839  0.00  0.00    +0.000 A 
ATOM     12  C   LIG    1        4.095   0.563  -0.152  0.00  0.00    +0.000 A 
ATOM     13  C   LIG    1        3.446   0.832  -1.344  0.00  0.00    +0.000 A 
ATOM     14  C   LIG    1        2.150   0.473  -1.586  0.00  0.00    +0.005 A 
ENDBRANCH   5   9
TORSDOF 1
