REMARK  Name = molecules/HLFSMUUOKPBTSM-ISIOAQNYSA-N.pdb
REMARK                            x       y       z     vdW  Elec       q    Type
REMARK                         _______ _______ _______ _____ _____    ______ ____
ROOT
ATOM      1  C   LIG    1        2.426  -0.132  -0.342  0.00  0.00    +0.149 A 
ATOM      2  C   LIG    1        3.428  -1.080  -0.087  0.00  0.00    +0.079 A 
ATOM      3  C   LIG    1        2.989  -2.334   0.247  0.00  0.00    +0.065 A 
ATOM      4  C   LIG    1        1.655  -2.652   0.328  0.00  0.00    +0.129 A 
ATOM      5  F   LIG    1        1.240  -3.895   0.658  0.00  0.00    -0.205 F 
ATOM      6  C   LIG    1        0.660  -1.674   0.066  0.00  0.00    +0.003 A 
ATOM      7  C   LIG    1       -0.747  -2.087   0.199  0.00  0.00    +0.047 C 
ATOM      8  C   LIG    1       -1.736  -1.130  -0.277  0.00  0.00    +0.031 C 
ATOM      9  C   LIG    1       -2.941  -1.023   0.693  0.00  0.00    +0.018 C 
ATOM     10  C   LIG    1       -4.066  -0.438  -0.183  0.00  0.00    +0.061 C 
ATOM     11  C   LIG    1       -5.386  -0.582   0.461  0.00  0.00    +0.129 C 
ATOM     12  C   LIG    1       -5.974   0.642   1.044  0.00  0.00    +0.127 C 
ATOM     13  C   LIG    1       -5.498   1.862   0.851  0.00  0.00    +0.121 C 
ATOM     14  C   LIG    1       -4.338   2.045   0.028  0.00  0.00    +0.211 C 
ATOM     15  O   LIG    1       -3.828   3.194  -0.110  0.00  0.00    -0.288 OA
ATOM     16  C   LIG    1       -3.711   0.911  -0.675  0.00  0.00    +0.190 C 
ATOM     17  C   LIG    1       -2.262   1.173  -0.693  0.00  0.00    +0.141 C 
ATOM     18  C   LIG    1       -1.329   0.257  -0.514  0.00  0.00    +0.044 C 
ATOM     19  C   LIG    1        0.094   0.626  -0.578  0.00  0.00    +0.197 C 
ATOM     20  O   LIG    1        0.450   1.790  -0.886  0.00  0.00    -0.287 OA
ATOM     21  C   LIG    1        1.061  -0.421  -0.268  0.00  0.00    +0.071 A 
ENDROOT
BRANCH  13  22
ATOM     22  C   LIG    1       -6.143   3.014   1.467  0.00  0.00    +0.248 C 
ATOM     23  O   LIG    1       -7.166   2.864   2.190  0.00  0.00    -0.270 OA
ATOM     24  N   LIG    1       -5.587   4.300   1.232  0.00  0.00    -0.325 N 
ATOM     25  H   LIG    1       -4.647   4.608   1.556  0.00  0.00    +0.145 HD
ATOM     26  H   LIG    1       -6.158   4.985   0.697  0.00  0.00    +0.145 HD
ENDBRANCH  13  22
BRANCH   2  27
ATOM     27  N   LIG    1        4.778  -0.700  -0.187  0.00  0.00    -0.281 N 
ATOM     28  C   LIG    1        5.869  -1.539   0.043  0.00  0.00    +0.231 C 
ATOM     29  O   LIG    1        5.773  -2.757   0.363  0.00  0.00    -0.274 OA
ATOM     30  H   LIG    1        4.976   0.300  -0.485  0.00  0.00    +0.155 HD
BRANCH  28  31
ATOM     31  C   LIG    1        7.275  -1.009  -0.087  0.00  0.00    +0.180 C 
BRANCH  31  32
ATOM     32  N   LIG    1        7.227   0.390  -0.372  0.00  0.00    -0.294 NA
ATOM     33  C   LIG    1        6.799   1.095   0.827  0.00  0.00    +0.085 C 
ATOM     34  C   LIG    1        8.059   1.511   1.557  0.00  0.00    +0.017 C 
ATOM     35  C   LIG    1        9.182   0.988   0.725  0.00  0.00    +0.017 C 
ATOM     36  C   LIG    1        8.566   0.861  -0.651  0.00  0.00    +0.085 C 
ENDBRANCH  31  32
ENDBRANCH  28  31
ENDBRANCH   2  27
BRANCH  11  37
ATOM     37  N   LIG    1       -6.295  -1.301  -0.366  0.00  0.00    -0.299 NA
ATOM     38  C   LIG    1       -6.142  -2.720  -0.394  0.00  0.00    +0.105 C 
ATOM     39  C   LIG    1       -6.658  -0.720  -1.609  0.00  0.00    +0.105 C 
ENDBRANCH  11  37
BRANCH  12  40
ATOM     40  O   LIG    1       -7.111   0.552   1.861  0.00  0.00    -0.509 OA
ATOM     41  H   LIG    1       -7.306  -0.243   2.440  0.00  0.00    +0.292 HD
ENDBRANCH  12  40
BRANCH  17  42
ATOM     42  O   LIG    1       -1.856   2.499  -0.919  0.00  0.00    -0.507 OA
ATOM     43  H   LIG    1       -1.625   2.780  -1.849  0.00  0.00    +0.292 HD
ENDBRANCH  17  42
BRANCH  16  44
ATOM     44  O   LIG    1       -4.133   1.020  -2.027  0.00  0.00    -0.373 OA
ATOM     45  H   LIG    1       -3.565   0.381  -2.535  0.00  0.00    +0.211 HD
ENDBRANCH  16  44
BRANCH   1  46
ATOM     46  O   LIG    1        2.727   1.169  -0.688  0.00  0.00    -0.504 OA
ATOM     47  H   LIG    1        3.599   1.607  -0.800  0.00  0.00    +0.292 HD
ENDBRANCH   1  46
TORSDOF 9
