REMARK  Name = molecules/HLIBJQGJVDHCNB-UHFFFAOYSA-N.pdb
REMARK                            x       y       z     vdW  Elec       q    Type
REMARK                         _______ _______ _______ _____ _____    ______ ____
ROOT
ATOM      1  C   LIG    1        0.398  -1.355   0.494  0.00  0.00    +0.027 A 
ATOM      2  C   LIG    1        1.213  -1.268   1.603  0.00  0.00    +0.025 A 
ATOM      3  C   LIG    1        2.329  -0.449   1.641  0.00  0.00    +0.030 A 
ATOM      4  C   LIG    1        2.621   0.302   0.519  0.00  0.00    +0.105 A 
ATOM      5  C   LIG    1        1.837   0.248  -0.608  0.00  0.00    +0.030 A 
ATOM      6  C   LIG    1        0.717  -0.593  -0.609  0.00  0.00    +0.025 A 
ENDROOT
BRANCH   4   7
ATOM      7  S   LIG    1        4.037   1.338   0.578  0.00  0.00    +0.056 S 
ATOM      8  O   LIG    1        5.089   0.782   1.499  0.00  0.00    -0.153 OA
ATOM      9  O   LIG    1        4.582   1.432  -0.828  0.00  0.00    -0.153 OA
BRANCH   7  10
ATOM     10  N   LIG    1        3.636   2.913   1.171  0.00  0.00    -0.204 NA
ATOM     11  H   LIG    1        2.760   2.935   1.701  0.00  0.00    +0.144 HD
ATOM     12  H   LIG    1        4.443   3.348   1.643  0.00  0.00    +0.144 HD
ENDBRANCH   7  10
ENDBRANCH   4   7
BRANCH   1  13
ATOM     13  N   LIG    1       -0.737  -2.220   0.513  0.00  0.00    -0.340 N 
ATOM     14  H   LIG    1       -0.933  -2.810   1.349  0.00  0.00    +0.146 HD
BRANCH  13  15
ATOM     15  C   LIG    1       -1.653  -2.321  -0.601  0.00  0.00    +0.136 C 
BRANCH  15  16
ATOM     16  C   LIG    1       -2.280  -0.983  -0.784  0.00  0.00    -0.030 A 
ATOM     17  C   LIG    1       -2.188   0.019   0.157  0.00  0.00    +0.005 A 
ATOM     18  C   LIG    1       -2.783   1.264  -0.041  0.00  0.00    +0.000 A 
ATOM     19  C   LIG    1       -3.489   1.539  -1.192  0.00  0.00    +0.000 A 
ATOM     20  C   LIG    1       -3.588   0.544  -2.140  0.00  0.00    +0.000 A 
ATOM     21  C   LIG    1       -2.997  -0.683  -1.937  0.00  0.00    +0.005 A 
ENDBRANCH  15  16
ENDBRANCH  13  15
ENDBRANCH   1  13
TORSDOF 5
