REMARK  Name = molecules/HLVVITIHAZBPKB-LLVKDONJSA-N.pdb
REMARK                            x       y       z     vdW  Elec       q    Type
REMARK                         _______ _______ _______ _____ _____    ______ ____
ROOT
ATOM      1  C   LIG    1        0.584  -0.973   0.124  0.00  0.00    +0.041 A 
ATOM      2  C   LIG    1       -0.611  -0.299   0.269  0.00  0.00    +0.023 A 
ATOM      3  C   LIG    1       -1.875  -1.017   0.555  0.00  0.00    +0.148 C 
ATOM      4  C   LIG    1       -2.943  -0.368  -0.329  0.00  0.00    +0.036 C 
ATOM      5  C   LIG    1       -3.170   1.020   0.175  0.00  0.00    +0.009 C 
ATOM      6  C   LIG    1       -1.937   1.848   0.300  0.00  0.00    +0.056 C 
ATOM      7  C   LIG    1       -0.677   1.071   0.153  0.00  0.00    +0.049 A 
ATOM      8  N   LIG    1        0.450   1.767  -0.107  0.00  0.00    -0.251 NA
ATOM      9  C   LIG    1        1.633   1.143  -0.254  0.00  0.00    +0.073 A 
ATOM     10  C   LIG    1        2.790   1.876  -0.523  0.00  0.00    +0.028 A 
ATOM     11  C   LIG    1        3.991   1.213  -0.670  0.00  0.00    +0.002 A 
ATOM     12  C   LIG    1        4.087  -0.175  -0.558  0.00  0.00    +0.001 A 
ATOM     13  C   LIG    1        2.920  -0.875  -0.291  0.00  0.00    +0.012 A 
ATOM     14  C   LIG    1        1.707  -0.230  -0.140  0.00  0.00    +0.021 A 
ENDROOT
BRANCH   1  15
ATOM     15  N   LIG    1        0.589  -2.386   0.254  0.00  0.00    -0.357 N 
ATOM     16  H   LIG    1        0.796  -2.894   1.138  0.00  0.00    +0.142 HD
ATOM     17  H   LIG    1        0.371  -2.962  -0.593  0.00  0.00    +0.142 HD
ENDBRANCH   1  15
BRANCH   3  18
ATOM     18  O   LIG    1       -1.801  -2.370   0.385  0.00  0.00    -0.387 OA
ATOM     19  H   LIG    1       -2.395  -2.801   1.064  0.00  0.00    +0.210 HD
ENDBRANCH   3  18
TORSDOF 2
