REMARK  Name = molecules/HNSDLXPSAYFUHK-SQNIBIBYSA-N.pdb
REMARK                            x       y       z     vdW  Elec       q    Type
REMARK                         _______ _______ _______ _____ _____    ______ ____
ROOT
ATOM      1  C   LIG    1        0.713   2.029   1.362  0.00  0.00    +0.278 C 
ENDROOT
BRANCH   1   2
ATOM      2  S   LIG    1        2.162   2.921   1.883  0.00  0.00    +0.094 S 
ATOM      3  O   LIG    1        1.742   4.025   2.799  0.00  0.00    -0.147 OA
ATOM      4  O   LIG    1        3.120   2.046   2.623  0.00  0.00    -0.147 OA
BRANCH   2   5
ATOM      5  O   LIG    1        2.932   3.558   0.555  0.00  0.00    -0.253 OA
ATOM      6  H   LIG    1        2.345   4.027  -0.068  0.00  0.00    +0.244 HD
ENDBRANCH   2   5
ENDBRANCH   1   2
BRANCH   1   7
ATOM      7  C   LIG    1        1.095   0.916   0.443  0.00  0.00    +0.335 C 
ATOM      8  O   LIG    1        0.774  -0.276   0.675  0.00  0.00    -0.249 OA
BRANCH   7   9
ATOM      9  O   LIG    1        1.818   1.207  -0.694  0.00  0.00    -0.463 OA
BRANCH   9  10
ATOM     10  C   LIG    1        2.242   0.277  -1.631  0.00  0.00    +0.235 C 
BRANCH  10  11
ATOM     11  C   LIG    1        3.210  -0.745  -0.932  0.00  0.00    +0.026 C 
BRANCH  11  12
ATOM     12  C   LIG    1        3.579  -1.652  -2.100  0.00  0.00    +0.003 C 
ATOM     13  C   LIG    1        2.226  -2.225  -2.590  0.00  0.00    +0.004 C 
ENDBRANCH  11  12
BRANCH  11  14
ATOM     14  C   LIG    1        4.309   0.110  -0.435  0.00  0.00    +0.007 C 
BRANCH  14  15
ATOM     15  C   LIG    1        5.423  -0.437   0.336  0.00  0.00    +0.000 C 
BRANCH  15  16
ATOM     16  C   LIG    1        6.292  -1.485  -0.250  0.00  0.00    -0.003 C 
ATOM     17  C   LIG    1        7.442  -1.840   0.735  0.00  0.00    +0.004 C 
ENDBRANCH  15  16
ENDBRANCH  14  15
ENDBRANCH  11  14
ENDBRANCH  10  11
ENDBRANCH   9  10
ENDBRANCH   7   9
ENDBRANCH   1   7
BRANCH   1  18
ATOM     18  C   LIG    1       -0.133   2.987   0.552  0.00  0.00    +0.161 C 
BRANCH  18  19
ATOM     19  C   LIG    1       -1.358   2.296   0.031  0.00  0.00    +0.310 C 
ATOM     20  O   LIG    1       -2.157   2.962  -0.660  0.00  0.00    -0.251 OA
BRANCH  19  21
ATOM     21  O   LIG    1       -1.621   0.976   0.288  0.00  0.00    -0.464 OA
BRANCH  21  22
ATOM     22  C   LIG    1       -2.736   0.240  -0.150  0.00  0.00    +0.235 C 
BRANCH  22  23
ATOM     23  C   LIG    1       -4.011   0.829   0.385  0.00  0.00    +0.026 C 
BRANCH  23  24
ATOM     24  C   LIG    1       -3.934   1.180   1.848  0.00  0.00    +0.003 C 
ATOM     25  C   LIG    1       -3.638   0.042   2.757  0.00  0.00    +0.004 C 
ENDBRANCH  23  24
BRANCH  23  26
ATOM     26  C   LIG    1       -5.232   0.097  -0.034  0.00  0.00    +0.007 C 
BRANCH  26  27
ATOM     27  C   LIG    1       -5.341  -1.327   0.353  0.00  0.00    +0.000 C 
BRANCH  27  28
ATOM     28  C   LIG    1       -6.657  -1.928  -0.163  0.00  0.00    -0.003 C 
ATOM     29  C   LIG    1       -6.704  -1.826  -1.688  0.00  0.00    +0.004 C 
ENDBRANCH  27  28
ENDBRANCH  26  27
ENDBRANCH  23  26
ENDBRANCH  22  23
ENDBRANCH  21  22
ENDBRANCH  19  21
ENDBRANCH  18  19
ENDBRANCH   1  18
TORSDOF 19
