REMARK  Name = molecules/HOCWPKXKMNXINF-NFFDBFGFSA-N.pdb
REMARK                            x       y       z     vdW  Elec       q    Type
REMARK                         _______ _______ _______ _____ _____    ______ ____
ROOT
ATOM      1  CA  LIG    1       -2.688   1.701   0.644  0.00  0.00    +0.201 C 
ATOM      2  C   LIG    1       -3.147   0.367   1.139  0.00  0.00    +0.042 C 
ATOM      3  C   LIG    1       -2.759   0.071   2.545  0.00  0.00    +0.025 C 
ATOM      4  C   LIG    1       -4.673   0.283   0.999  0.00  0.00    +0.025 C 
ATOM      5  S   LIG    1       -2.471  -0.825  -0.050  0.00  0.00    -0.127 S 
ATOM      6  C   LIG    1       -2.146   0.443  -1.329  0.00  0.00    +0.165 C 
ATOM      7  CA  LIG    1       -0.743   0.400  -1.876  0.00  0.00    +0.190 C 
ATOM      8  C   LIG    1       -0.714   1.780  -1.321  0.00  0.00    +0.240 C 
ATOM      9  O   LIG    1        0.048   2.758  -1.587  0.00  0.00    -0.273 OA
ATOM     10  N   LIG    1       -1.810   1.542  -0.450  0.00  0.00    -0.271 N 
ENDROOT
BRANCH   7  11
ATOM     11  N   LIG    1        0.179  -0.459  -1.143  0.00  0.00    -0.299 N 
ATOM     12  H   LIG    1        0.179  -0.382  -0.106  0.00  0.00    +0.150 HD
ATOM     13  C   LIG    1        0.986  -1.341  -1.877  0.00  0.00    +0.254 C 
ATOM     14  O   LIG    1        0.917  -1.398  -3.122  0.00  0.00    -0.272 OA
BRANCH  13  15
ATOM     15  C   LIG    1        1.970  -2.265  -1.233  0.00  0.00    +0.258 C 
BRANCH  15  16
ATOM     16  C   LIG    1        3.165  -2.534  -2.079  0.00  0.00    +0.051 C 
ATOM     17  C   LIG    1        3.988  -1.357  -2.459  0.00  0.00    +0.008 C 
ENDBRANCH  15  16
BRANCH  15  18
ATOM     18  O   LIG    1        2.166  -2.088   0.113  0.00  0.00    -0.480 OA
BRANCH  18  19
ATOM     19  C   LIG    1        2.537  -1.038   0.875  0.00  0.00    +0.122 A 
ATOM     20  C   LIG    1        2.601  -1.278   2.256  0.00  0.00    +0.045 A 
ATOM     21  C   LIG    1        2.963  -0.308   3.159  0.00  0.00    +0.004 A 
ATOM     22  C   LIG    1        3.273   0.934   2.702  0.00  0.00    +0.000 A 
ATOM     23  C   LIG    1        3.221   1.205   1.359  0.00  0.00    +0.004 A 
ATOM     24  C   LIG    1        2.859   0.231   0.468  0.00  0.00    +0.045 A 
ENDBRANCH  18  19
ENDBRANCH  15  18
ENDBRANCH  13  15
ENDBRANCH   7  11
BRANCH   1  25
ATOM     25  C   LIG    1       -3.847   2.552   0.228  0.00  0.00    +0.327 C 
ATOM     26  OXT LIG    1       -4.782   2.853   1.022  0.00  0.00    -0.249 OA
BRANCH  25  27
ATOM     27  O   LIG    1       -3.933   3.042  -1.056  0.00  0.00    -0.479 OA
ATOM     28  H   LIG    1       -4.336   2.572  -1.839  0.00  0.00    +0.295 HD
ENDBRANCH  25  27
ENDBRANCH   1  25
TORSDOF 7
