REMARK  Name = molecules/HODRFAVLXIFVTR-RKDXNWHRSA-N.pdb
REMARK                            x       y       z     vdW  Elec       q    Type
REMARK                         _______ _______ _______ _____ _____    ______ ____
ROOT
ATOM      1  C   UNK A  1       -0.857  -0.769   0.440  0.00  0.00    +0.167 C 
ENDROOT
BRANCH   1   2
ATOM      2  C   UNK A  1        0.573  -0.408   0.415  0.00  0.00    -0.017 A 
ATOM      3  C   UNK A  1        1.545  -1.390   0.640  0.00  0.00    +0.008 A 
ATOM      4  C   UNK A  1        2.890  -1.089   0.606  0.00  0.00    +0.029 A 
ATOM      5  C   UNK A  1        3.334   0.181   0.352  0.00  0.00    +0.105 A 
ATOM      6  C   UNK A  1        2.406   1.157   0.130  0.00  0.00    +0.029 A 
ATOM      7  C   UNK A  1        1.037   0.861   0.162  0.00  0.00    +0.008 A 
BRANCH   5   8
ATOM      8  S   UNK A  1        5.057   0.469   0.329  0.00  0.00    +0.056 S 
ATOM      9  O   UNK A  1        5.713  -0.481   1.288  0.00  0.00    -0.153 OA
ATOM     10  O   UNK A  1        5.285   1.858   0.854  0.00  0.00    -0.153 OA
BRANCH   8  11
ATOM     11  N   UNK A  1        5.733   0.254  -1.234  0.00  0.00    -0.204 NA
ATOM     12  H   UNK A  1        6.684  -0.179  -1.119  0.00  0.00    +0.144 HD
ATOM     13  H   UNK A  1        5.784   1.161  -1.756  0.00  0.00    +0.144 HD
ENDBRANCH   8  11
ENDBRANCH   5   8
ENDBRANCH   1   2
BRANCH   1  14
ATOM     14  O   UNK A  1       -1.267  -0.858   1.773  0.00  0.00    -0.385 OA
ATOM     15  H   UNK A  1       -1.269  -0.003   2.242  0.00  0.00    +0.210 HD
ENDBRANCH   1  14
BRANCH   1  16
ATOM     16  C   UNK A  1       -1.758   0.161  -0.292  0.00  0.00    +0.131 C 
BRANCH  16  17
ATOM     17  N   UNK A  1       -3.161  -0.277  -0.211  0.00  0.00    -0.305 N 
ATOM     18  C   UNK A  0       -4.171   0.565   0.303  0.00  0.00    +0.246 C 
ATOM     19  O   UNK A  0       -3.838   1.718   0.697  0.00  0.00    -0.273 OA
ATOM     20  H   UNK A  1       -3.364  -1.235  -0.551  0.00  0.00    +0.149 HD
BRANCH  18  21
ATOM     21  C   UNK A  0       -5.585   0.191   0.412  0.00  0.00    +0.256 C 
ATOM     22 CL   UNK A  0       -5.784  -1.251   1.450  0.00  0.00    -0.094 Cl
ATOM     23 CL   UNK A  0       -6.584   1.477   1.099  0.00  0.00    -0.094 Cl
ENDBRANCH  18  21
ENDBRANCH  16  17
BRANCH  16  24
ATOM     24  C   UNK A  1       -1.370   0.172  -1.780  0.00  0.00    +0.181 C 
BRANCH  24  25
ATOM     25  O   UNK A  1       -1.533  -1.121  -2.292  0.00  0.00    -0.393 OA
ATOM     26  H   UNK A  1       -2.468  -1.339  -2.495  0.00  0.00    +0.209 HD
ENDBRANCH  24  25
ENDBRANCH  16  24
ENDBRANCH   1  16
TORSDOF 9
