REMARK  Name = molecules/HOIIHACBCFLJET-SFTDATJTSA-N.pdb
REMARK                            x       y       z     vdW  Elec       q    Type
REMARK                         _______ _______ _______ _____ _____    ______ ____
ROOT
ATOM      1  N   LIG    1        0.499  -1.318  -0.442  0.00  0.00    -0.302 NA
ATOM      2  C   LIG    1        0.048  -2.513   0.171  0.00  0.00    +0.086 C 
ATOM      3  C   LIG    1       -1.472  -2.567  -0.035  0.00  0.00    +0.038 C 
ATOM      4  C   LIG    1       -2.141  -1.451   0.744  0.00  0.00    +0.083 C 
ATOM      5  C   LIG    1       -1.320  -0.198   0.807  0.00  0.00    +0.055 C 
ATOM      6  C   LIG    1       -2.294   0.886   0.571  0.00  0.00    -0.018 A 
ATOM      7  C   LIG    1       -2.273   2.279   0.622  0.00  0.00    +0.006 A 
ATOM      8  C   LIG    1       -3.417   3.008   0.329  0.00  0.00    +0.002 A 
ATOM      9  C   LIG    1       -4.595   2.381  -0.017  0.00  0.00    +0.025 A 
ATOM     10  C   LIG    1       -4.636   1.002  -0.073  0.00  0.00    +0.051 A 
ATOM     11  N   LIG    1       -5.782   0.250  -0.412  0.00  0.00    -0.330 N 
ATOM     12  C   LIG    1       -5.823  -1.184  -0.392  0.00  0.00    +0.123 C 
ATOM     13  C   LIG    1       -4.510  -1.868  -0.315  0.00  0.00    +0.124 C 
ATOM     14  C   LIG    1       -6.993   0.953  -0.803  0.00  0.00    +0.129 C 
ATOM     15  C   LIG    1       -3.484   0.312   0.224  0.00  0.00    +0.055 A 
ATOM     16  N   LIG    1       -3.422  -1.082   0.195  0.00  0.00    -0.323 N 
ATOM     17  C   LIG    1       -0.354  -0.190  -0.354  0.00  0.00    +0.094 C 
ENDROOT
BRANCH   1  18
ATOM     18  C   LIG    1        1.907  -1.048  -0.371  0.00  0.00    +0.085 C 
BRANCH  18  19
ATOM     19  C   LIG    1        2.396  -0.741   0.995  0.00  0.00    +0.023 C 
BRANCH  19  20
ATOM     20  C   LIG    1        3.873  -0.498   1.000  0.00  0.00    +0.081 C 
BRANCH  20  21
ATOM     21  C   LIG    1        4.216   0.687   0.199  0.00  0.00    +0.163 C 
ATOM     22  O   LIG    1        3.375   1.435  -0.316  0.00  0.00    -0.292 OA
BRANCH  21  25
ATOM     23  C   LIG    1        7.957   0.466   0.379  0.00  0.00    +0.039 A 
ATOM     24  C   LIG    1        6.624   0.190   0.553  0.00  0.00    +0.014 A 
ATOM     25  C   LIG    1        5.628   0.984   0.011  0.00  0.00    +0.018 A 
ATOM     26  C   LIG    1        5.999   2.073  -0.719  0.00  0.00    +0.014 A 
ATOM     27  C   LIG    1        7.342   2.384  -0.917  0.00  0.00    +0.039 A 
ATOM     28  C   LIG    1        8.325   1.567  -0.359  0.00  0.00    +0.123 A 
ATOM     29  F   LIG    1        9.633   1.901  -0.573  0.00  0.00    -0.205 F 
ENDBRANCH  21  25
ENDBRANCH  20  21
ENDBRANCH  19  20
ENDBRANCH  18  19
ENDBRANCH   1  18
TORSDOF 5
