REMARK  Name = molecules/HOOSGZJRQIVJSZ-KPDCDPCYSA-N.pdb
REMARK                            x       y       z     vdW  Elec       q    Type
REMARK                         _______ _______ _______ _____ _____    ______ ____
ROOT
ATOM      1  C   LIG    1       -1.978   0.592   0.014  0.00  0.00    +0.213 C 
ENDROOT
BRANCH   1   2
ATOM      2  C   LIG    1       -2.591   0.934   1.299  0.00  0.00    -0.001 A 
ATOM      3  C   LIG    1       -3.050  -0.010   2.186  0.00  0.00    +0.007 A 
ATOM      4  C   LIG    1       -3.625   0.368   3.397  0.00  0.00    +0.000 A 
ATOM      5  C   LIG    1       -3.748   1.711   3.735  0.00  0.00    +0.000 A 
ATOM      6  C   LIG    1       -3.290   2.657   2.851  0.00  0.00    +0.000 A 
ATOM      7  C   LIG    1       -2.718   2.262   1.647  0.00  0.00    +0.007 A 
ENDBRANCH   1   2
BRANCH   1   8
ATOM      8  C   LIG    1       -2.865  -0.037  -0.962  0.00  0.00    -0.001 A 
ATOM      9  C   LIG    1       -3.120  -1.385  -0.925  0.00  0.00    +0.007 A 
ATOM     10  C   LIG    1       -3.973  -2.009  -1.847  0.00  0.00    +0.000 A 
ATOM     11  C   LIG    1       -4.565  -1.247  -2.810  0.00  0.00    +0.000 A 
ATOM     12  C   LIG    1       -4.314   0.088  -2.848  0.00  0.00    +0.000 A 
ATOM     13  C   LIG    1       -3.478   0.709  -1.947  0.00  0.00    +0.007 A 
ENDBRANCH   1   8
BRANCH   1  14
ATOM     14  C   LIG    1       -0.751  -0.202   0.308  0.00  0.00    +0.349 C 
ATOM     15  O   LIG    1       -0.836  -1.301   0.904  0.00  0.00    -0.247 OA
BRANCH  14  16
ATOM     16  O   LIG    1        0.530   0.195  -0.040  0.00  0.00    -0.460 OA
BRANCH  16  17
ATOM     17  C   LIG    1        1.665  -0.548   0.240  0.00  0.00    +0.164 C 
ATOM     18  C   LIG    1        2.726   0.198   1.006  0.00  0.00    +0.025 C 
ATOM     19  C   LIG    1        3.858  -0.771   1.282  0.00  0.00    -0.011 C 
ATOM     20  C   LIG    1        4.317  -1.397   0.004  0.00  0.00    -0.075 C 
ATOM     21  N   LIG    1        3.729  -0.704  -1.098  0.00  0.00    +0.381 N 
ATOM     22  C   LIG    1        3.955   0.731  -1.034  0.00  0.00    -0.075 C 
ATOM     23  C   LIG    1        4.228  -1.205  -2.363  0.00  0.00    -0.092 C 
ATOM     24  C   LIG    1        3.311   1.327   0.183  0.00  0.00    -0.011 C 
ATOM     25  C   LIG    1        2.295  -0.958  -1.077  0.00  0.00    -0.030 C 
ENDBRANCH  16  17
ENDBRANCH  14  16
ENDBRANCH   1  14
BRANCH   1  26
ATOM     26  O   LIG    1       -1.503   1.777  -0.612  0.00  0.00    -0.370 OA
ATOM     27  H   LIG    1       -0.763   2.165  -0.111  0.00  0.00    +0.212 HD
ENDBRANCH   1  26
TORSDOF 6
