REMARK  Name = molecules/HPBNRIOWIXYZFK-QMMMGPOBSA-N.pdb
REMARK                            x       y       z     vdW  Elec       q    Type
REMARK                         _______ _______ _______ _____ _____    ______ ____
ROOT
ATOM      1  C   LIG    1        0.828  -0.115  -0.560  0.00  0.00    +0.181 C 
ATOM      2  C   LIG    1        0.690  -1.538  -0.079  0.00  0.00    +0.198 C 
ATOM      3  O   LIG    1       -0.666  -1.734  -0.068  0.00  0.00    -0.346 OA
ATOM      4  C   LIG    1       -1.301  -0.516  -0.054  0.00  0.00    +0.171 C 
ATOM      5  C   LIG    1       -1.838  -0.298   1.361  0.00  0.00    +0.065 C 
ATOM      6  C   LIG    1       -2.699   0.924   1.458  0.00  0.00    +0.005 C 
ATOM      7  C   LIG    1       -3.656   1.041   0.302  0.00  0.00    +0.000 C 
ATOM      8  C   LIG    1       -3.755  -0.305  -0.399  0.00  0.00    +0.005 C 
ATOM      9  C   LIG    1       -2.422  -0.555  -1.066  0.00  0.00    +0.065 C 
ATOM     10  O   LIG    1       -0.380   0.472  -0.304  0.00  0.00    -0.340 OA
ENDROOT
BRANCH   1  11
ATOM     11  C   LIG    1        1.978   0.514   0.172  0.00  0.00    +0.229 C 
BRANCH  11  12
ATOM     12  N   LIG    1        3.203  -0.167  -0.157  0.00  0.00    -0.274 N 
ATOM     13  H   LIG    1        3.187  -0.987  -0.834  0.00  0.00    +0.258 HD
BRANCH  12  14
ATOM     14  C   LIG    1        4.465   0.176   0.361  0.00  0.00    +0.376 C 
ATOM     15  N   LIG    1        4.740   1.537   0.661  0.00  0.00    -0.289 N 
ATOM     16  H   LIG    1        3.998   2.227   0.944  0.00  0.00    +0.255 HD
ATOM     17  H   LIG    1        5.728   1.915   0.608  0.00  0.00    +0.255 HD
BRANCH  14  18
ATOM     18  N   LIG    1        5.372  -0.715   0.568  0.00  0.00    -0.130 NA
ATOM     19  H   LIG    1        5.260  -1.718   0.381  0.00  0.00    +0.306 HD
ENDBRANCH  14  18
ENDBRANCH  12  14
ENDBRANCH  11  12
ENDBRANCH   1  11
TORSDOF 4
