REMARK  Name = molecules/HPLFQKUIHGZHPH-DZKIICNBSA-N.pdb
REMARK                            x       y       z     vdW  Elec       q    Type
REMARK                         _______ _______ _______ _____ _____    ______ ____
ROOT
ATOM      1  C   LIG    1       -1.445  -0.946  -0.232  0.00  0.00    +0.079 C 
ATOM      2  C   LIG    1       -0.675  -1.712   0.831  0.00  0.00    +0.036 C 
ATOM      3  C   LIG    1        0.716  -1.168   1.027  0.00  0.00    +0.011 C 
ATOM      4  C   LIG    1        1.468  -0.914  -0.236  0.00  0.00    +0.019 C 
ATOM      5  C   LIG    1        0.676  -0.032  -1.185  0.00  0.00    +0.011 C 
ATOM      6  C   LIG    1       -0.641  -0.723  -1.462  0.00  0.00    +0.036 C 
ENDROOT
BRANCH   4   7
ATOM      7  C   LIG    1        2.706  -0.167   0.109  0.00  0.00    -0.044 A 
ATOM      8  C   LIG    1        2.575   1.031   0.782  0.00  0.00    +0.004 A 
ATOM      9  C   LIG    1        3.693   1.765   1.128  0.00  0.00    +0.000 A 
ATOM     10  C   LIG    1        4.925   1.279   0.788  0.00  0.00    +0.000 A 
ATOM     11  C   LIG    1        5.066   0.072   0.109  0.00  0.00    +0.000 A 
ATOM     12  C   LIG    1        3.953  -0.642  -0.225  0.00  0.00    +0.004 A 
ENDBRANCH   4   7
BRANCH   1  13
ATOM     13  O   LIG    1       -2.543  -1.746  -0.545  0.00  0.00    -0.388 OA
ATOM     14  H   LIG    1       -2.321  -2.712  -0.528  0.00  0.00    +0.210 HD
ENDBRANCH   1  13
BRANCH   1  15
ATOM     15  C   LIG    1       -1.977   0.359   0.330  0.00  0.00    +0.129 C 
BRANCH  15  16
ATOM     16  C   LIG    1       -2.777   0.018   1.567  0.00  0.00    +0.311 C 
ATOM     17  O   LIG    1       -2.508   0.566   2.667  0.00  0.00    -0.251 OA
BRANCH  16  18
ATOM     18  O   LIG    1       -3.805  -0.887   1.524  0.00  0.00    -0.480 OA
ATOM     19  H   LIG    1       -4.389  -1.062   0.718  0.00  0.00    +0.295 HD
ENDBRANCH  16  18
ENDBRANCH  15  16
BRANCH  15  20
ATOM     20  C   LIG    1       -2.996   0.914  -0.640  0.00  0.00    +0.014 C 
ATOM     21  C   LIG    1       -3.687   2.138  -0.083  0.00  0.00    +0.005 C 
ENDBRANCH  15  20
ENDBRANCH   1  15
TORSDOF 6
