REMARK  Name = molecules/HPNRHPKXQZSDFX-OAQDCNSJSA-N.pdb
REMARK                            x       y       z     vdW  Elec       q    Type
REMARK                         _______ _______ _______ _____ _____    ______ ____
ROOT
ATOM      1  N   LIG    1       19.014  30.221   0.000  0.00  0.00    -0.305 NA
ATOM      2  C   LIG    1       20.254  30.332   0.000  0.00  0.00    +0.091 C 
ATOM      3  C   LIG    1       19.188  29.276   0.000  0.00  0.00    +0.091 C 
ATOM      4  H   LIG    1       19.077  31.261   0.000  0.00  0.00    +0.123 HD
ENDROOT
TORSDOF 0
REMARK  Name = molecules/HPNRHPKXQZSDFX-OAQDCNSJSA-N.pdb
REMARK                            x       y       z     vdW  Elec       q    Type
REMARK                         _______ _______ _______ _____ _____    ______ ____
ROOT
ATOM      1  N   LIG    1       15.445  30.627   0.000  0.00  0.00    -0.296 NA
ATOM      2  C   LIG    1       14.275  29.689   0.000  0.00  0.00    +0.077 C 
ATOM      3  C   LIG    1       13.021  30.512   0.000  0.00  0.00    +0.048 C 
ATOM      4  C   LIG    1       13.417  31.959   0.000  0.00  0.00    +0.029 C 
ATOM      5  C   LIG    1       14.915  32.030   0.000  0.00  0.00    +0.141 C 
ENDROOT
TORSDOF 0
REMARK  Name = molecules/HPNRHPKXQZSDFX-OAQDCNSJSA-N.pdb
REMARK                            x       y       z     vdW  Elec       q    Type
REMARK                         _______ _______ _______ _____ _____    ______ ____
ROOT
ATOM      1  N   LIG    1       14.935  27.176   0.000  0.00  0.00    -0.138 NA
ATOM      2  C   LIG    1       15.991  26.110   0.000  0.00  0.00    +0.114 C 
ATOM      3  C   LIG    1       17.056  27.166   0.000  0.00  0.00    -0.004 C 
ATOM      4  C   LIG    1       18.122  28.221   0.000  0.00  0.00    +0.028 C 
ENDROOT
TORSDOF 0
REMARK  Name = molecules/HPNRHPKXQZSDFX-OAQDCNSJSA-N.pdb
REMARK                            x       y       z     vdW  Elec       q    Type
REMARK                         _______ _______ _______ _____ _____    ______ ____
ROOT
ATOM      1  N   LIG    1       15.306  23.604   0.000  0.00  0.00    +0.000 NA
ENDROOT
TORSDOF 0
REMARK  Name = molecules/HPNRHPKXQZSDFX-OAQDCNSJSA-N.pdb
REMARK                            x       y       z     vdW  Elec       q    Type
REMARK                         _______ _______ _______ _____ _____    ______ ____
ROOT
ATOM      1  N   LIG    1       14.900  20.036   0.000  0.00  0.00    -0.245 NA
ATOM      2  C   LIG    1       15.955  18.970   0.000  0.00  0.00    +0.090 C 
ATOM      3  C   LIG    1       17.021  20.025   0.000  0.00  0.00    +0.019 C 
ATOM      4  C   LIG    1       15.966  21.091   0.000  0.00  0.00    +0.099 C 
ATOM      5  C   LIG    1       15.295  21.483   0.000  0.00  0.00    +0.037 C 
ENDROOT
TORSDOF 0
REMARK  Name = molecules/HPNRHPKXQZSDFX-OAQDCNSJSA-N.pdb
REMARK                            x       y       z     vdW  Elec       q    Type
REMARK                         _______ _______ _______ _____ _____    ______ ____
ROOT
ATOM      1  N   GLY A  1       15.271  16.464   0.000  0.00  0.00    -0.135 NA
ATOM      2  CA  GLY A  1       14.205  15.408   0.000  0.00  0.00    +0.155 C 
ATOM      3  C   GLY A  1       15.260  14.342   0.000  0.00  0.00    +0.201 C 
ENDROOT
BRANCH   3   4
ATOM      4  O   GLY A  1       16.711  14.723   0.000  0.00  0.00    -0.513 OA
ATOM      5  H   GLY A  1       16.717  16.068   0.000  0.00  0.00    +0.291 HD
ENDBRANCH   3   4
TORSDOF 1
REMARK  Name = molecules/HPNRHPKXQZSDFX-OAQDCNSJSA-N.pdb
REMARK                            x       y       z     vdW  Elec       q    Type
REMARK                         _______ _______ _______ _____ _____    ______ ____
ROOT
ATOM      1  N   LIG    1       14.865  12.895   0.000  0.00  0.00    -0.256 NA
ATOM      2  H   LIG    1       13.791  13.645   0.000  0.00  0.00    +0.141 HD
ENDROOT
BRANCH   1   3
ATOM      3  C   LIG    1       14.968  11.880   0.000  0.00  0.00    +0.107 C 
ATOM      4  C   LIG    1       15.920  11.829   0.000  0.00  0.00    +0.009 C 
ENDBRANCH   1   3
TORSDOF 1
REMARK  Name = molecules/HPNRHPKXQZSDFX-OAQDCNSJSA-N.pdb
REMARK                            x       y       z     vdW  Elec       q    Type
REMARK                         _______ _______ _______ _____ _____    ______ ____
ROOT
ATOM      1  N   LIG    1       16.580   9.317   0.000  0.00  0.00    -0.251 NA
ATOM      2  H   LIG    1       15.797  10.229   0.000  0.00  0.00    +0.141 HD
ENDROOT
BRANCH   1   3
ATOM      3  C   LIG    1       17.636   8.251   0.000  0.00  0.00    +0.096 C 
ATOM      4  C   LIG    1       18.701   9.306   0.000  0.00  0.00    +0.014 C 
ENDBRANCH   1   3
TORSDOF 1
REMARK  Name = molecules/HPNRHPKXQZSDFX-OAQDCNSJSA-N.pdb
REMARK                            x       y       z     vdW  Elec       q    Type
REMARK                         _______ _______ _______ _____ _____    ______ ____
ROOT
ATOM      1  N   LIG    1       16.951   5.745   0.000  0.00  0.00    -0.200 NA
ATOM      2  C   LIG    1       15.957   5.358   0.000  0.00  0.00    +0.212 C 
ATOM      3  N   LIG    1       15.476   6.779   0.000  0.00  0.00    -0.191 NA
ATOM      4  C   LIG    1       16.570   7.195   0.000  0.00  0.00    +0.194 C 
ENDROOT
BRANCH   1   5
ATOM      5  N   LIG    1       17.428   5.063   0.000  0.00  0.00    -0.265 NA
ATOM      6  H   LIG    1       18.398   5.349   0.000  0.00  0.00    +0.137 HD
ATOM      7  H   LIG    1       17.062   3.760   0.000  0.00  0.00    +0.137 HD
ENDBRANCH   1   5
BRANCH   2   8
ATOM      8  C   LIG    1       15.885   4.689   0.000  0.00  0.00    +0.124 C 
ATOM      9  N   LIG    1       14.966   4.231   0.000  0.00  0.00    -0.149 NA
ENDBRANCH   2   8
TORSDOF 2
REMARK  Name = molecules/HPNRHPKXQZSDFX-OAQDCNSJSA-N.pdb
REMARK                            x       y       z     vdW  Elec       q    Type
REMARK                         _______ _______ _______ _____ _____    ______ ____
ROOT
ATOM      1  N   LIG    1       13.372   4.029   0.000  0.00  0.00    -0.163 NA
ATOM      2  H   LIG    1       13.344   4.675   0.000  0.00  0.00    +0.163 HD
ENDROOT
TORSDOF 0
REMARK  Name = molecules/HPNRHPKXQZSDFX-OAQDCNSJSA-N.pdb
REMARK                            x       y       z     vdW  Elec       q    Type
REMARK                         _______ _______ _______ _____ _____    ______ ____
ROOT
ATOM      1  N   LIG    1        9.590  -8.265   0.000  0.00  0.00    -0.291 N 
ATOM      2  H   LIG    1       10.744  -8.472   0.000  0.00  0.00    +0.157 HD
ENDROOT
BRANCH   1   3
ATOM      3  C   LIG    1        8.545  -9.341   0.000  0.00  0.00    +0.019 C 
ATOM      4  C   LIG    1        7.381 -10.286   0.000  0.00  0.00    +0.031 C 
BRANCH   4   5
ATOM      5  N   LIG    1        6.112 -11.087   0.000  0.00  0.00    -0.318 N 
ATOM      6  C   LIG    1        4.758 -11.732   0.000  0.00  0.00    +0.033 C 
ATOM      7  C   LIG    1        5.959 -12.630   0.000  0.00  0.00    +0.058 C 
ATOM      8  H   LIG    1        7.122 -11.682   0.000  0.00  0.00    +0.176 HD
BRANCH   6   9
ATOM      9  C   LIG    1        3.337 -12.213   0.000  0.00  0.00    +0.137 C 
BRANCH   9  10
ATOM     10  N   LIG    1        1.869 -12.521   0.000  0.00  0.00    -0.376 N 
ATOM     11  C   LIG    1        0.375 -12.655   0.000  0.00  0.00    -0.001 C 
ATOM     12  C   LIG    1        1.188 -13.915   0.000  0.00  0.00    +0.055 C 
ATOM     13  C   LIG    1       -1.124 -12.610   0.000  0.00  0.00    +0.044 C 
ATOM     14  H   LIG    1        2.608 -13.431   0.000  0.00  0.00    +0.160 HD
ENDBRANCH   9  10
ENDBRANCH   6   9
ENDBRANCH   4   5
ENDBRANCH   1   3
BRANCH   1  15
ATOM     15  C   LIG    1       10.501  -7.073   0.000  0.00  0.00    +0.108 C 
BRANCH  15  16
ATOM     16  C   LIG    1       11.263  -5.781   0.000  0.00  0.00    +0.123 C 
BRANCH  16  17
ATOM     17  N   LIG    1       11.868  -4.408   0.000  0.00  0.00    -0.216 NA
BRANCH  17  18
ATOM     18  C   LIG    1       12.306  -2.974   0.000  0.00  0.00    +0.131 C 
BRANCH  18  19
ATOM     19  C   LIG    1       12.571  -1.497   0.000  0.00  0.00    +0.060 C 
ATOM     20  C   LIG    1       13.938  -0.879   0.000  0.00  0.00    +0.033 C 
BRANCH  19  21
ATOM     21  N   LIG    1       12.660   0.000   0.000  0.00  0.00    -0.168 NA
BRANCH  21  22
ATOM     22  C   LIG    1       12.571   1.497   0.000  0.00  0.00    +0.022 C 
ATOM     23  C   LIG    1       12.306   2.974   0.000  0.00  0.00    -0.074 C 
ATOM     24  C   LIG    1       11.868   4.408   0.000  0.00  0.00    +0.098 C 
ENDBRANCH  21  22
ENDBRANCH  19  21
ENDBRANCH  18  19
ENDBRANCH  17  18
ENDBRANCH  16  17
ENDBRANCH  15  16
ENDBRANCH   1  15
TORSDOF 11
REMARK  Name = molecules/HPNRHPKXQZSDFX-OAQDCNSJSA-N.pdb
REMARK                            x       y       z     vdW  Elec       q    Type
REMARK                         _______ _______ _______ _____ _____    ______ ____
ROOT
ATOM      1  N   LIG    1       -2.608 -12.389   0.000  0.00  0.00    -0.066 NA
ATOM      2  C   LIG    1       -4.055 -11.993   0.000  0.00  0.00    +0.064 C 
ATOM      3  C   LIG    1       -5.445 -11.430   0.000  0.00  0.00    +0.038 C 
ENDROOT
BRANCH   3   4
ATOM      4  N   LIG    1       -6.758 -10.705   0.000  0.00  0.00    -0.217 NA
ATOM      5  H   LIG    1       -6.792 -11.877   0.000  0.00  0.00    +0.181 HD
ENDBRANCH   3   4
TORSDOF 1
REMARK  Name = molecules/HPNRHPKXQZSDFX-OAQDCNSJSA-N.pdb
REMARK                            x       y       z     vdW  Elec       q    Type
REMARK                         _______ _______ _______ _____ _____    ______ ____
ROOT
ATOM      1  N   LIG    1      -10.063  -7.682   0.000  0.00  0.00    -0.298 NA
ATOM      2  H   LIG    1       -9.282  -7.361   0.000  0.00  0.00    +0.123 HD
ENDROOT
BRANCH   1   3
ATOM      3  C   LIG    1      -10.901  -6.438   0.000  0.00  0.00    +0.069 C 
ATOM      4  C   LIG    1      -11.586  -5.104   0.000  0.00  0.00    +0.019 C 
ENDBRANCH   1   3
BRANCH   1   5
ATOM      5  C   LIG    1      -10.291  -8.470   0.000  0.00  0.00    +0.064 C 
ATOM      6  C   LIG    1       -9.084  -8.819   0.000  0.00  0.00    +0.023 C 
ENDBRANCH   1   5
TORSDOF 2
REMARK  Name = molecules/HPNRHPKXQZSDFX-OAQDCNSJSA-N.pdb
REMARK                            x       y       z     vdW  Elec       q    Type
REMARK                         _______ _______ _______ _____ _____    ______ ____
ROOT
ATOM      1  N   LIG    1      -12.108  -3.697   0.000  0.00  0.00    -0.132 NA
ATOM      2  C   LIG    1      -12.461  -2.240   0.000  0.00  0.00    +0.105 C 
ATOM      3  C   LIG    1      -13.587  -3.230   0.000  0.00  0.00    +0.027 C 
ENDROOT
TORSDOF 0
REMARK  Name = molecules/HPNRHPKXQZSDFX-OAQDCNSJSA-N.pdb
REMARK                            x       y       z     vdW  Elec       q    Type
REMARK                         _______ _______ _______ _____ _____    ______ ____
ROOT
ATOM      1  N   LIG    1      -12.638   0.750   0.000  0.00  0.00    -0.134 NA
ATOM      2  C   LIG    1      -12.461   2.240   0.000  0.00  0.00    +0.052 C 
ATOM      3  C   LIG    1      -12.108   3.697   0.000  0.00  0.00    +0.050 C 
ATOM      4  C   LIG    1      -13.861   1.703   0.000  0.00  0.00    +0.033 C 
ENDROOT
TORSDOF 0
REMARK  Name = molecules/HPNRHPKXQZSDFX-OAQDCNSJSA-N.pdb
REMARK                            x       y       z     vdW  Elec       q    Type
REMARK                         _______ _______ _______ _____ _____    ______ ____
ROOT
ATOM      1  C   LIG    1       -7.977   9.831   0.000  0.00  0.00    +0.067 C 
ATOM      2  C   LIG    1       -9.388  10.339   0.000  0.00  0.00    +0.025 C 
ENDROOT
BRANCH   1   3
ATOM      3  N   LIG    1       -9.084   8.819   0.000  0.00  0.00    -0.166 NA
BRANCH   3   6
ATOM      4  N   LIG    1      -11.586   5.104   0.000  0.00  0.00    -0.066 NA
ATOM      5  C   LIG    1      -10.901   6.438   0.000  0.00  0.00    +0.065 C 
ATOM      6  C   LIG    1      -10.063   7.682   0.000  0.00  0.00    +0.046 C 
ENDBRANCH   3   6
ENDBRANCH   1   3
BRANCH   1   7
ATOM      7  C   LIG    1       -6.758  10.705   0.000  0.00  0.00    +0.131 C 
BRANCH   7   8
ATOM      8  N   LIG    1       -5.445  11.430   0.000  0.00  0.00    -0.216 NA
ATOM      9  C   LIG    1       -4.055  11.993   0.000  0.00  0.00    +0.114 C 
ENDBRANCH   7   8
ENDBRANCH   1   7
TORSDOF 4
REMARK  Name = molecules/HPNRHPKXQZSDFX-OAQDCNSJSA-N.pdb
REMARK                            x       y       z     vdW  Elec       q    Type
REMARK                         _______ _______ _______ _____ _____    ______ ____
ROOT
ATOM      1  N   LIG    1       -1.124  12.610   0.000  0.00  0.00    -0.163 NA
ATOM      2  H   LIG    1       -1.748  13.389   0.000  0.00  0.00    +0.163 HD
ENDROOT
TORSDOF 0
REMARK  Name = molecules/HPNRHPKXQZSDFX-OAQDCNSJSA-N.pdb
REMARK                            x       y       z     vdW  Elec       q    Type
REMARK                         _______ _______ _______ _____ _____    ______ ____
ROOT
ATOM      1  N   LIG    1        3.337  12.213   0.000  0.00  0.00    -0.365 NA
ATOM      2  C   LIG    1        2.476  13.411   0.000  0.00  0.00    +0.215 C 
ATOM      3  C   LIG    1        1.869  12.521   0.000  0.00  0.00    -0.008 C 
ATOM      4  C   LIG    1        0.711  12.234   0.000  0.00  0.00    +0.036 C 
ATOM      5  C   LIG    1        2.182  11.940   0.000  0.00  0.00    +0.058 C 
ATOM      6  H   LIG    1        3.947  13.116   0.000  0.00  0.00    +0.129 HD
ENDROOT
BRANCH   2   7
ATOM      7  O   LIG    1        1.908  14.021   0.000  0.00  0.00    -0.372 OA
ATOM      8  H   LIG    1        1.120  14.052   0.000  0.00  0.00    +0.212 HD
ENDBRANCH   2   7
BRANCH   1   9
ATOM      9  C   LIG    1        3.653  11.646   0.000  0.00  0.00    +0.091 C 
BRANCH   9  10
ATOM     10  C   LIG    1        4.758  11.732   0.000  0.00  0.00    +0.085 C 
BRANCH  10  11
ATOM     11  N   LIG    1        5.418  12.822   0.000  0.00  0.00    -0.320 NA
ATOM     12  H   LIG    1        4.887  13.226   0.000  0.00  0.00    +0.119 HD
ATOM     13  H   LIG    1        6.060  12.477   0.000  0.00  0.00    +0.119 HD
ENDBRANCH  10  11
ENDBRANCH   9  10
ENDBRANCH   1   9
TORSDOF 4
REMARK  Name = molecules/HPNRHPKXQZSDFX-OAQDCNSJSA-N.pdb
REMARK                            x       y       z     vdW  Elec       q    Type
REMARK                         _______ _______ _______ _____ _____    ______ ____
ROOT
ATOM      1  O   LIG    1        7.642   9.672   0.000  0.00  0.00    -0.240 OA
ENDROOT
BRANCH   1   2
ATOM      2  N   LIG    1        7.381  10.286   0.000  0.00  0.00    +0.101 NA
ATOM      3  O   LIG    1        7.075   9.636   0.000  0.00  0.00    -0.070 OA
ENDBRANCH   1   2
BRANCH   1   4
ATOM      4  C   LIG    1        8.545   9.341   0.000  0.00  0.00    +0.171 C 
ATOM      5  C   LIG    1        8.761  10.418   0.000  0.00  0.00    +0.037 C 
ENDBRANCH   1   4
TORSDOF 2
REMARK  Name = molecules/HPNRHPKXQZSDFX-OAQDCNSJSA-N.pdb
REMARK                            x       y       z     vdW  Elec       q    Type
REMARK                         _______ _______ _______ _____ _____    ______ ____
ROOT
ATOM      1  N   LIG    1       10.261  11.292   0.000  0.00  0.00    -0.139 NA
ATOM      2  C   LIG    1       10.555  12.763   0.000  0.00  0.00    +0.101 C 
ATOM      3  C   LIG    1        9.350  13.360   0.000  0.00  0.00    +0.014 C 
ENDROOT
BRANCH   2   4
ATOM      4  C   LIG    1       12.026  12.469   0.000  0.00  0.00    +0.026 C 
ATOM      5  C   LIG    1       13.497  12.174   0.000  0.00  0.00    -0.003 C 
ENDBRANCH   2   4
TORSDOF 1
REMARK  Name = molecules/HPNRHPKXQZSDFX-OAQDCNSJSA-N.pdb
REMARK                            x       y       z     vdW  Elec       q    Type
REMARK                         _______ _______ _______ _____ _____    ______ ____
ROOT
ATOM      1  N   LIG    1        8.604  14.479   0.000  0.00  0.00    -0.273 NA
ATOM      2  H   LIG    1        7.926  13.831   0.000  0.00  0.00    +0.137 HD
ATOM      3  H   LIG    1        8.220  15.302   0.000  0.00  0.00    +0.137 HD
ENDROOT
TORSDOF 0
REMARK  Name = molecules/HPNRHPKXQZSDFX-OAQDCNSJSA-N.pdb
REMARK                            x       y       z     vdW  Elec       q    Type
REMARK                         _______ _______ _______ _____ _____    ______ ____
ROOT
ATOM      1  N   LIG    1        7.585  12.183   0.000  0.00  0.00    +0.042 NA
ATOM      2  O   LIG    1        8.239  11.819   0.000  0.00  0.00    -0.246 OA
ATOM      3  C   LIG    1        9.055  11.889   0.000  0.00  0.00    +0.204 C 
ENDROOT
TORSDOF 0
REMARK  Name = molecules/HPNRHPKXQZSDFX-OAQDCNSJSA-N.pdb
REMARK                            x       y       z     vdW  Elec       q    Type
REMARK                         _______ _______ _______ _____ _____    ______ ____
ROOT
ATOM      1  N   LIG    1        9.887   9.427   0.000  0.00  0.00    -0.244 NA
ATOM      2  C   LIG    1        9.590   8.265   0.000  0.00  0.00    +0.103 C 
ATOM      3  H   LIG    1       10.537   9.429   0.000  0.00  0.00    +0.141 HD
ENDROOT
TORSDOF 0
REMARK  Name = molecules/HPNRHPKXQZSDFX-OAQDCNSJSA-N.pdb
REMARK                            x       y       z     vdW  Elec       q    Type
REMARK                         _______ _______ _______ _____ _____    ______ ____
ROOT
ATOM      1  N   HIS A  1        7.132   7.125   0.000  0.00  0.00    -0.241 NA
ENDROOT
BRANCH   1   2
ATOM      2  C   UNK A  0        8.122   8.251   0.000  0.00  0.00    +0.085 C 
ATOM      3  C   UNK A  0        9.593   7.957   0.000  0.00  0.00    +0.028 C 
BRANCH   3   4
ATOM      4  S   UNK A  0       10.501   7.073   0.000  0.00  0.00    -0.216 S 
ATOM      5  H   UNK A  0       11.134   6.164   0.000  0.00  0.00    +0.088 HD
ATOM      6  H   UNK A  0        9.299   6.486   0.000  0.00  0.00    +0.088 HD
BRANCH   4   7
ATOM      7  C   UNK A  0       11.064   7.662   0.000  0.00  0.00    +0.023 C 
ATOM      8  C   UNK A  0       12.535   7.368   0.000  0.00  0.00    +0.048 C 
BRANCH   8   9
ATOM      9  C   UNK A  0       14.005   7.073   0.000  0.00  0.00    +0.251 C 
ATOM     10  O   UNK A  0       15.070   7.229   0.000  0.00  0.00    -0.296 OA
ENDBRANCH   8   9
ENDBRANCH   4   7
ENDBRANCH   3   4
ENDBRANCH   1   2
BRANCH   1  11
ATOM     11  CA  HIS A  1        5.661   7.419   0.000  0.00  0.00    +0.142 C 
BRANCH  11  12
ATOM     12  C   HIS A  1        5.955   8.890   0.000  0.00  0.00    +0.198 C 
ATOM     13  O   HIS A  1        4.717   9.736   0.000  0.00  0.00    -0.219 OA
ENDBRANCH  11  12
BRANCH  11  14
ATOM     14  CB  HIS A  1        5.367   5.948   0.000  0.00  0.00    +0.084 C 
BRANCH  14  15
ATOM     15  CG  HIS A  1        5.072   4.477   0.000  0.00  0.00    +0.063 A 
ATOM     16  CD2 HIS A  1        3.709   3.851   0.000  0.00  0.00    +0.135 A 
ATOM     17  NE2 HIS A  1        3.884   2.361   0.000  0.00  0.00    -0.242 NA
ATOM     18  CE1 HIS A  1        5.354   2.067   0.000  0.00  0.00    +0.221 A 
ATOM     19  ND1 HIS A  1        6.089   3.375   0.000  0.00  0.00    -0.239 NA
ENDBRANCH  14  15
ENDBRANCH  11  14
ENDBRANCH   1  11
TORSDOF 8
REMARK  Name = molecules/HPNRHPKXQZSDFX-OAQDCNSJSA-N.pdb
REMARK                            x       y       z     vdW  Elec       q    Type
REMARK                         _______ _______ _______ _____ _____    ______ ____
ROOT
ATOM      1  O   HOH    1        7.377   9.370   0.000  0.00  0.00    +0.000 OA
ENDROOT
TORSDOF 0
REMARK  Name = molecules/HPNRHPKXQZSDFX-OAQDCNSJSA-N.pdb
REMARK                            x       y       z     vdW  Elec       q    Type
REMARK                         _______ _______ _______ _____ _____    ______ ____
ROOT
ATOM      1  C   LIG    1       16.892  30.232   0.000  0.00  0.00    +0.000 C 
ENDROOT
TORSDOF 0
REMARK  Name = molecules/HPNRHPKXQZSDFX-OAQDCNSJSA-N.pdb
REMARK                            x       y       z     vdW  Elec       q    Type
REMARK                         _______ _______ _______ _____ _____    ______ ____
ROOT
ATOM      1  C   LIG    1       19.024  32.343   0.000  0.00  0.00    +0.176 C 
ATOM      2  O   LIG    1       20.090  33.398   0.000  0.00  0.00    -0.386 OA
ATOM      3  H   LIG    1       20.939  32.838   0.000  0.00  0.00    +0.210 HD
ENDROOT
TORSDOF 0
REMARK  Name = molecules/HPNRHPKXQZSDFX-OAQDCNSJSA-N.pdb
REMARK                            x       y       z     vdW  Elec       q    Type
REMARK                         _______ _______ _______ _____ _____    ______ ____
ROOT
ATOM      1  C   LIG    1       17.958  31.287   0.000  0.00  0.00    +0.000 C 
ENDROOT
TORSDOF 0
REMARK  Name = molecules/HPNRHPKXQZSDFX-OAQDCNSJSA-N.pdb
REMARK                            x       y       z     vdW  Elec       q    Type
REMARK                         _______ _______ _______ _____ _____    ______ ____
ROOT
ATOM      1  O   HOH    1       17.142  29.280   0.000  0.00  0.00    -0.253 OA
ATOM      2  H   HOH    0       17.906  30.055   0.000  0.00  0.00    +0.253 HD
ENDROOT
TORSDOF 0
REMARK  Name = molecules/HPNRHPKXQZSDFX-OAQDCNSJSA-N.pdb
REMARK                            x       y       z     vdW  Elec       q    Type
REMARK                         _______ _______ _______ _____ _____    ______ ____
ROOT
ATOM      1  C   LIG    1       15.331  28.623   0.000  0.00  0.00    +0.000 C 
ENDROOT
TORSDOF 0
REMARK  Name = molecules/HPNRHPKXQZSDFX-OAQDCNSJSA-N.pdb
REMARK                            x       y       z     vdW  Elec       q    Type
REMARK                         _______ _______ _______ _____ _____    ______ ____
ROOT
ATOM      1  O   HOH    1       16.282  28.873   0.000  0.00  0.00    -0.253 OA
ATOM      2  H   HOH    0       17.067  29.287   0.000  0.00  0.00    +0.253 HD
ENDROOT
TORSDOF 0
REMARK  Name = molecules/HPNRHPKXQZSDFX-OAQDCNSJSA-N.pdb
REMARK                            x       y       z     vdW  Elec       q    Type
REMARK                         _______ _______ _______ _____ _____    ______ ____
ROOT
ATOM      1  C   LIG    1       14.925  25.055   0.000  0.00  0.00    +0.000 C 
ENDROOT
TORSDOF 0
REMARK  Name = molecules/HPNRHPKXQZSDFX-OAQDCNSJSA-N.pdb
REMARK                            x       y       z     vdW  Elec       q    Type
REMARK                         _______ _______ _______ _____ _____    ______ ____
ROOT
ATOM      1  N   LIG    1       21.320  31.387   0.000  0.00  0.00    -0.163 NA
ATOM      2  H   LIG    1       20.407  30.776   0.000  0.00  0.00    +0.163 HD
ENDROOT
TORSDOF 0
REMARK  Name = molecules/HPNRHPKXQZSDFX-OAQDCNSJSA-N.pdb
REMARK                            x       y       z     vdW  Elec       q    Type
REMARK                         _______ _______ _______ _____ _____    ______ ____
ROOT
ATOM      1  O   HOH    1       13.537  25.623   0.000  0.00  0.00    -0.410 OA
ATOM      2  H   HOH    0       13.542  26.621   0.000  0.00  0.00    +0.205 HD
ATOM      3  H   HOH    0       13.963  24.896   0.000  0.00  0.00    +0.205 HD
ENDROOT
TORSDOF 0
REMARK  Name = molecules/HPNRHPKXQZSDFX-OAQDCNSJSA-N.pdb
REMARK                            x       y       z     vdW  Elec       q    Type
REMARK                         _______ _______ _______ _____ _____    ______ ____
ROOT
ATOM      1  C   LIG    1       12.129  24.680   0.000  0.00  0.00    +0.073 C 
ENDROOT
BRANCH   1   2
ATOM      2  C   LIG    1       13.184  23.614   0.000  0.00  0.00    +0.011 C 
ATOM      3  C   LIG    1       14.240  22.549   0.000  0.00  0.00    -0.004 C 
ENDBRANCH   1   2
BRANCH   1   4
ATOM      4  S   LIG    1       11.074  25.746   0.000  0.00  0.00    -0.164 S 
ATOM      5  C   LIG    1       11.469  27.193   0.000  0.00  0.00    +0.084 C 
ENDBRANCH   1   4
TORSDOF 2
REMARK  Name = molecules/HPNRHPKXQZSDFX-OAQDCNSJSA-N.pdb
REMARK                            x       y       z     vdW  Elec       q    Type
REMARK                         _______ _______ _______ _____ _____    ______ ____
ROOT
ATOM      1  O   HOH    1       16.611  22.203   0.000  0.00  0.00    -0.410 OA
ATOM      2  H   HOH    0       16.753  23.209   0.000  0.00  0.00    +0.205 HD
ATOM      3  H   HOH    0       17.321  22.370   0.000  0.00  0.00    +0.205 HD
ENDROOT
TORSDOF 0
REMARK  Name = molecules/HPNRHPKXQZSDFX-OAQDCNSJSA-N.pdb
REMARK                            x       y       z     vdW  Elec       q    Type
REMARK                         _______ _______ _______ _____ _____    ______ ____
ROOT
ATOM      1  C   LIG    1       14.889  17.914   0.000  0.00  0.00    +0.000 C 
ENDROOT
TORSDOF 0
REMARK  Name = molecules/HPNRHPKXQZSDFX-OAQDCNSJSA-N.pdb
REMARK                            x       y       z     vdW  Elec       q    Type
REMARK                         _______ _______ _______ _____ _____    ______ ____
ROOT
ATOM      1  C   LIG    1       18.087  21.081   0.000  0.00  0.00    +0.000 C 
ENDROOT
TORSDOF 0
REMARK  Name = molecules/HPNRHPKXQZSDFX-OAQDCNSJSA-N.pdb
REMARK                            x       y       z     vdW  Elec       q    Type
REMARK                         _______ _______ _______ _____ _____    ______ ____
ROOT
ATOM      1  O   HOH    1       13.501  18.483   0.000  0.00  0.00    -0.253 OA
ATOM      2  H   HOH    0       13.414  19.834   0.000  0.00  0.00    +0.253 HD
ENDROOT
TORSDOF 0
REMARK  Name = molecules/HPNRHPKXQZSDFX-OAQDCNSJSA-N.pdb
REMARK                            x       y       z     vdW  Elec       q    Type
REMARK                         _______ _______ _______ _____ _____    ______ ____
ROOT
ATOM      1  C   LIG    1       12.094  17.540   0.000  0.00  0.00    +0.089 C 
ATOM      2  C   LIG    1       11.654  18.252   0.000  0.00  0.00    +0.017 C 
ENDROOT
BRANCH   1   4
ATOM      3  C   LIG    1       13.149  16.474   0.000  0.00  0.00    +0.142 C 
ATOM      4  N   LIG    1       12.781  17.262   0.000  0.00  0.00    -0.251 NA
ENDBRANCH   1   4
BRANCH   2   5
ATOM      5  C   LIG    1       11.038  18.606   0.000  0.00  0.00    +0.103 C 
BRANCH   5   6
ATOM      6  N   LIG    1       11.949  19.723   0.000  0.00  0.00    -0.241 NA
ATOM      7  H   LIG    1       12.827  20.608   0.000  0.00  0.00    +0.142 HD
ENDBRANCH   5   6
ENDBRANCH   2   5
TORSDOF 3
REMARK  Name = molecules/HPNRHPKXQZSDFX-OAQDCNSJSA-N.pdb
REMARK                            x       y       z     vdW  Elec       q    Type
REMARK                         _______ _______ _______ _____ _____    ______ ____
ROOT
ATOM      1  N   LIG    1       11.434  20.053   0.000  0.00  0.00    +0.000 NA
ENDROOT
TORSDOF 0
REMARK  Name = molecules/HPNRHPKXQZSDFX-OAQDCNSJSA-N.pdb
REMARK                            x       y       z     vdW  Elec       q    Type
REMARK                         _______ _______ _______ _____ _____    ______ ____
ROOT
ATOM      1  O   HOH    1        9.547  18.770   0.000  0.00  0.00    +0.000 OA
ENDROOT
TORSDOF 0
REMARK  Name = molecules/HPNRHPKXQZSDFX-OAQDCNSJSA-N.pdb
REMARK                            x       y       z     vdW  Elec       q    Type
REMARK                         _______ _______ _______ _____ _____    ______ ____
ROOT
ATOM      1  C   LIG    1       16.975  10.764   0.000  0.00  0.00    -0.010 C 
ATOM      2  C   LIG    1       16.439  11.585   0.000  0.00  0.00    +0.010 C 
ENDROOT
TORSDOF 0
REMARK  Name = molecules/HPNRHPKXQZSDFX-OAQDCNSJSA-N.pdb
REMARK                            x       y       z     vdW  Elec       q    Type
REMARK                         _______ _______ _______ _____ _____    ______ ____
ROOT
ATOM      1  O   HOH    1       18.475  10.782   0.000  0.00  0.00    -0.253 OA
ATOM      2  H   HOH    0       18.867  10.136   0.000  0.00  0.00    +0.253 HD
ENDROOT
TORSDOF 0
REMARK  Name = molecules/HPNRHPKXQZSDFX-OAQDCNSJSA-N.pdb
REMARK                            x       y       z     vdW  Elec       q    Type
REMARK                         _______ _______ _______ _____ _____    ______ ____
ROOT
ATOM      1  O   HOH    1       19.767  10.362   0.000  0.00  0.00    +0.000 OA
ENDROOT
TORSDOF 0
REMARK  Name = molecules/HPNRHPKXQZSDFX-OAQDCNSJSA-N.pdb
REMARK                            x       y       z     vdW  Elec       q    Type
REMARK                         _______ _______ _______ _____ _____    ______ ____
ROOT
ATOM      1  C   LIG    1       14.819   3.634   0.000  0.00  0.00    +0.000 C 
ENDROOT
TORSDOF 0
REMARK  Name = molecules/HPNRHPKXQZSDFX-OAQDCNSJSA-N.pdb
REMARK                            x       y       z     vdW  Elec       q    Type
REMARK                         _______ _______ _______ _____ _____    ______ ____
ROOT
ATOM      1  C   LIG    1       16.819   1.850   0.000  0.00  0.00    +0.014 C 
ATOM      2  C   LIG    1       18.038   0.976   0.000  0.00  0.00    -0.002 C 
ENDROOT
BRANCH   2   3
ATOM      3  C   LIG    1       17.890  -0.517   0.000  0.00  0.00    -0.004 C 
ATOM      4  C   LIG    1       16.523  -1.135   0.000  0.00  0.00    -0.017 C 
ATOM      5  C   LIG    1       15.305  -0.261   0.000  0.00  0.00    +0.021 C 
ENDBRANCH   2   3
BRANCH   1   6
ATOM      6  C   LIG    1       15.453   1.232   0.000  0.00  0.00    +0.155 C 
BRANCH   6   7
ATOM      7  O   LIG    1       15.020   2.147   0.000  0.00  0.00    -0.378 OA
ATOM      8  H   LIG    1       15.616   2.880   0.000  0.00  0.00    +0.211 HD
ENDBRANCH   6   7
ENDBRANCH   1   6
TORSDOF 3
REMARK  Name = molecules/HPNRHPKXQZSDFX-OAQDCNSJSA-N.pdb
REMARK                            x       y       z     vdW  Elec       q    Type
REMARK                         _______ _______ _______ _____ _____    ______ ____
ROOT
ATOM      1  S   LIG    1       11.263   5.781   0.000  0.00  0.00    -0.114 S 
ATOM      2  H   LIG    1       11.893   6.012   0.000  0.00  0.00    +0.114 HD
ENDROOT
TORSDOF 0
REMARK  Name = molecules/HPNRHPKXQZSDFX-OAQDCNSJSA-N.pdb
REMARK                            x       y       z     vdW  Elec       q    Type
REMARK                         _______ _______ _______ _____ _____    ______ ____
ROOT
ATOM      1  O   HOH    1       14.061   1.675   0.000  0.00  0.00    -0.410 OA
ATOM      2  H   HOH    0       14.482   2.375   0.000  0.00  0.00    +0.205 HD
ATOM      3  H   HOH    0       13.669   0.597   0.000  0.00  0.00    +0.205 HD
ENDROOT
TORSDOF 0
REMARK  Name = molecules/HPNRHPKXQZSDFX-OAQDCNSJSA-N.pdb
REMARK                            x       y       z     vdW  Elec       q    Type
REMARK                         _______ _______ _______ _____ _____    ______ ____
ROOT
ATOM      1  O   HOH    1       13.710  -3.501   0.000  0.00  0.00    -0.410 OA
ATOM      2  H   HOH    0       13.327  -4.755   0.000  0.00  0.00    +0.205 HD
ATOM      3  H   HOH    0       13.755  -2.419   0.000  0.00  0.00    +0.205 HD
ENDROOT
TORSDOF 0
REMARK  Name = molecules/HPNRHPKXQZSDFX-OAQDCNSJSA-N.pdb
REMARK                            x       y       z     vdW  Elec       q    Type
REMARK                         _______ _______ _______ _____ _____    ______ ____
ROOT
ATOM      1  O   HOH    1       11.745  -7.911   0.000  0.00  0.00    -0.410 OA
ATOM      2  H   HOH    0       12.201  -6.952   0.000  0.00  0.00    +0.205 HD
ATOM      3  H   HOH    0       12.019  -8.812   0.000  0.00  0.00    +0.205 HD
ENDROOT
TORSDOF 0
REMARK  Name = molecules/HPNRHPKXQZSDFX-OAQDCNSJSA-N.pdb
REMARK                            x       y       z     vdW  Elec       q    Type
REMARK                         _______ _______ _______ _____ _____    ______ ____
ROOT
ATOM      1  C   LIG    1        9.984  -9.765   0.000  0.00  0.00    +0.000 C 
ENDROOT
TORSDOF 0
REMARK  Name = molecules/HPNRHPKXQZSDFX-OAQDCNSJSA-N.pdb
REMARK                            x       y       z     vdW  Elec       q    Type
REMARK                         _______ _______ _______ _____ _____    ______ ____
ROOT
ATOM      1  N   LIG    1       14.301 -11.037   0.000  0.00  0.00    -0.102 NA
ENDROOT
BRANCH   1   2
ATOM      2  C   LIG    1       15.387 -10.003   0.000  0.00  0.00    +0.534 C 
ATOM      3  N   LIG    1       15.035  -8.544   0.000  0.00  0.00    +0.135 NA
ATOM      4  N   LIG    1       16.826 -10.427   0.000  0.00  0.00    +0.135 NA
ENDBRANCH   1   2
BRANCH   1   6
ATOM      5  C   LIG    1       11.423 -10.189   0.000  0.00  0.00    +0.040 C 
ATOM      6  C   LIG    1       12.862 -10.613   0.000  0.00  0.00    +0.248 C 
ENDBRANCH   1   6
TORSDOF 2
REMARK  Name = molecules/HPNRHPKXQZSDFX-OAQDCNSJSA-N.pdb
REMARK                            x       y       z     vdW  Elec       q    Type
REMARK                         _______ _______ _______ _____ _____    ______ ____
ROOT
ATOM      1  O   HOH    1        8.255 -11.505   0.000  0.00  0.00    -0.410 OA
ATOM      2  H   HOH    0        8.840 -10.812   0.000  0.00  0.00    +0.205 HD
ATOM      3  H   HOH    0        8.199 -12.446   0.000  0.00  0.00    +0.205 HD
ENDROOT
TORSDOF 0
REMARK  Name = molecules/HPNRHPKXQZSDFX-OAQDCNSJSA-N.pdb
REMARK                            x       y       z     vdW  Elec       q    Type
REMARK                         _______ _______ _______ _____ _____    ______ ____
ROOT
ATOM      1  C   LIG    1        8.362 -14.427   0.000  0.00  0.00    +0.020 C 
ATOM      2  C   LIG    1        9.563 -15.326   0.000  0.00  0.00    +0.124 C 
ATOM      3  N   LIG    1       10.764 -16.224   0.000  0.00  0.00    -0.143 NA
ENDROOT
TORSDOF 0
REMARK  Name = molecules/HPNRHPKXQZSDFX-OAQDCNSJSA-N.pdb
REMARK                            x       y       z     vdW  Elec       q    Type
REMARK                         _______ _______ _______ _____ _____    ______ ____
ROOT
ATOM      1  C   LIG    1        7.160 -13.529   0.000  0.00  0.00    +0.000 C 
ENDROOT
TORSDOF 0
REMARK  Name = molecules/HPNRHPKXQZSDFX-OAQDCNSJSA-N.pdb
REMARK                            x       y       z     vdW  Elec       q    Type
REMARK                         _______ _______ _______ _____ _____    ______ ____
ROOT
ATOM      1  O   HOH    1        3.732 -13.659   0.000  0.00  0.00    -0.410 OA
ATOM      2  H   HOH    0        4.522 -13.213   0.000  0.00  0.00    +0.205 HD
ATOM      3  H   HOH    0        3.352 -14.522   0.000  0.00  0.00    +0.205 HD
ENDROOT
TORSDOF 0
REMARK  Name = molecules/HPNRHPKXQZSDFX-OAQDCNSJSA-N.pdb
REMARK                            x       y       z     vdW  Elec       q    Type
REMARK                         _______ _______ _______ _____ _____    ______ ____
ROOT
ATOM      1  C   LIG    1        2.002 -15.175   0.000  0.00  0.00    +0.000 C 
ENDROOT
TORSDOF 0
REMARK  Name = molecules/HPNRHPKXQZSDFX-OAQDCNSJSA-N.pdb
REMARK                            x       y       z     vdW  Elec       q    Type
REMARK                         _______ _______ _______ _____ _____    ______ ____
ROOT
ATOM      1  C   LIG    1        2.130 -17.770   0.000  0.00  0.00    +0.076 C 
ATOM      2  S   LIG    1        2.815 -16.436   0.000  0.00  0.00    -0.076 S 
ENDROOT
TORSDOF 0
REMARK  Name = molecules/HPNRHPKXQZSDFX-OAQDCNSJSA-N.pdb
REMARK                            x       y       z     vdW  Elec       q    Type
REMARK                         _______ _______ _______ _____ _____    ______ ____
ROOT
ATOM      1  O   HOH    1       -1.438 -14.077   0.000  0.00  0.00    -0.410 OA
ATOM      2  H   HOH    0       -0.362 -13.961   0.000  0.00  0.00    +0.205 HD
ATOM      3  H   HOH    0       -2.232 -13.499   0.000  0.00  0.00    +0.205 HD
ENDROOT
TORSDOF 0
REMARK  Name = molecules/HPNRHPKXQZSDFX-OAQDCNSJSA-N.pdb
REMARK                            x       y       z     vdW  Elec       q    Type
REMARK                         _______ _______ _______ _____ _____    ______ ____
ROOT
ATOM      1  C   LIG    1       -3.731 -13.458   0.000  0.00  0.00    +0.000 C 
ENDROOT
TORSDOF 0
REMARK  Name = molecules/HPNRHPKXQZSDFX-OAQDCNSJSA-N.pdb
REMARK                            x       y       z     vdW  Elec       q    Type
REMARK                         _______ _______ _______ _____ _____    ______ ____
ROOT
ATOM      1  C   LIG    1       -3.408 -14.923   0.000  0.00  0.00    +0.325 C 
ATOM      2  O   LIG    1       -1.978 -15.375   0.000  0.00  0.00    -0.184 OA
ENDROOT
BRANCH   1   3
ATOM      3  O   LIG    1       -4.514 -15.935   0.000  0.00  0.00    -0.354 OA
ATOM      4  H   LIG    1       -5.048 -17.054   0.000  0.00  0.00    +0.213 HD
ENDBRANCH   1   3
TORSDOF 1
REMARK  Name = molecules/HPNRHPKXQZSDFX-OAQDCNSJSA-N.pdb
REMARK                            x       y       z     vdW  Elec       q    Type
REMARK                         _______ _______ _______ _____ _____    ______ ____
ROOT
ATOM      1  O   HOH    1       -6.090 -12.784   0.000  0.00  0.00    -0.410 OA
ATOM      2  H   HOH    0       -5.201 -12.961   0.000  0.00  0.00    +0.205 HD
ATOM      3  H   HOH    0       -6.941 -13.189   0.000  0.00  0.00    +0.205 HD
ENDROOT
TORSDOF 0
REMARK  Name = molecules/HPNRHPKXQZSDFX-OAQDCNSJSA-N.pdb
REMARK                            x       y       z     vdW  Elec       q    Type
REMARK                         _______ _______ _______ _____ _____    ______ ____
ROOT
ATOM      1  C   LIG    1       -8.184 -11.317   0.000  0.00  0.00    -0.000 C 
ENDROOT
TORSDOF 0
REMARK  Name = molecules/HPNRHPKXQZSDFX-OAQDCNSJSA-N.pdb
REMARK                            x       y       z     vdW  Elec       q    Type
REMARK                         _______ _______ _______ _____ _____    ______ ____
ROOT
ATOM      1  C   LIG    1       -8.391 -12.802   0.000  0.00  0.00    +0.000 C 
ENDROOT
TORSDOF 0
REMARK  Name = molecules/HPNRHPKXQZSDFX-OAQDCNSJSA-N.pdb
REMARK                            x       y       z     vdW  Elec       q    Type
REMARK                         _______ _______ _______ _____ _____    ______ ____
ROOT
ATOM      1  C   LIG    1       -7.621 -16.696   0.000  0.00  0.00    +0.538 C 
ATOM      2  N   LIG    1       -6.231 -16.132   0.000  0.00  0.00    +0.136 NA
ATOM      3  N   LIG    1       -7.828 -18.181   0.000  0.00  0.00    +0.136 NA
ENDROOT
BRANCH   1   5
ATOM      4  C   LIG    1       -8.598 -14.288   0.000  0.00  0.00    +0.258 C 
ATOM      5  N   LIG    1       -8.804 -15.774   0.000  0.00  0.00    -0.078 NA
ENDBRANCH   1   5
TORSDOF 1
REMARK  Name = molecules/HPNRHPKXQZSDFX-OAQDCNSJSA-N.pdb
REMARK                            x       y       z     vdW  Elec       q    Type
REMARK                         _______ _______ _______ _____ _____    ______ ____
ROOT
ATOM      1  C   LIG    1       -7.977  -9.831   0.000  0.00  0.00    +0.000 C 
ATOM      2  C   LIG    1       -8.971  -9.181   0.000  0.00  0.00    +0.000 C 
ENDROOT
TORSDOF 0
REMARK  Name = molecules/HPNRHPKXQZSDFX-OAQDCNSJSA-N.pdb
REMARK                            x       y       z     vdW  Elec       q    Type
REMARK                         _______ _______ _______ _____ _____    ______ ____
ROOT
ATOM      1  O   HOH    1      -10.160  -9.863   0.000  0.00  0.00    -0.410 OA
ATOM      2  H   HOH    0      -11.003  -9.791   0.000  0.00  0.00    +0.205 HD
ATOM      3  H   HOH    0       -9.316 -10.508   0.000  0.00  0.00    +0.205 HD
ENDROOT
TORSDOF 0
REMARK  Name = molecules/HPNRHPKXQZSDFX-OAQDCNSJSA-N.pdb
REMARK                            x       y       z     vdW  Elec       q    Type
REMARK                         _______ _______ _______ _____ _____    ______ ____
ROOT
ATOM      1  C   LIG    1      -11.612  -7.759   0.000  0.00  0.00    +0.000 C 
ENDROOT
TORSDOF 0
REMARK  Name = molecules/HPNRHPKXQZSDFX-OAQDCNSJSA-N.pdb
REMARK                            x       y       z     vdW  Elec       q    Type
REMARK                         _______ _______ _______ _____ _____    ______ ____
ROOT
ATOM      1  C   LIG    1      -12.323  -9.079   0.000  0.00  0.00    +0.000 C 
ENDROOT
TORSDOF 0
REMARK  Name = molecules/HPNRHPKXQZSDFX-OAQDCNSJSA-N.pdb
REMARK                            x       y       z     vdW  Elec       q    Type
REMARK                         _______ _______ _______ _____ _____    ______ ____
ROOT
ATOM      1  O   HOH    1      -13.022  -5.537   0.000  0.00  0.00    -0.410 OA
ATOM      2  H   HOH    0      -12.899  -4.563   0.000  0.00  0.00    +0.205 HD
ATOM      3  H   HOH    0      -12.401  -6.423   0.000  0.00  0.00    +0.205 HD
ENDROOT
TORSDOF 0
REMARK  Name = molecules/HPNRHPKXQZSDFX-OAQDCNSJSA-N.pdb
REMARK                            x       y       z     vdW  Elec       q    Type
REMARK                         _______ _______ _______ _____ _____    ______ ____
ROOT
ATOM      1  C   LIG    1      -12.638  -0.750   0.000  0.00  0.00    +0.000 C 
ENDROOT
TORSDOF 0
REMARK  Name = molecules/HPNRHPKXQZSDFX-OAQDCNSJSA-N.pdb
REMARK                            x       y       z     vdW  Elec       q    Type
REMARK                         _______ _______ _______ _____ _____    ______ ____
ROOT
ATOM      1  O   HOH    1      -14.714  -4.220   0.000  0.00  0.00    +0.000 OA
ENDROOT
TORSDOF 0
REMARK  Name = molecules/HPNRHPKXQZSDFX-OAQDCNSJSA-N.pdb
REMARK                            x       y       z     vdW  Elec       q    Type
REMARK                         _______ _______ _______ _____ _____    ______ ____
ROOT
ATOM      1  O   HOH    1      -14.135  -0.656   0.000  0.00  0.00    -0.410 OA
ATOM      2  H   HOH    0      -13.861  -1.703   0.000  0.00  0.00    +0.205 HD
ATOM      3  H   HOH    0      -13.680   0.214   0.000  0.00  0.00    +0.205 HD
ENDROOT
TORSDOF 0
REMARK  Name = molecules/HPNRHPKXQZSDFX-OAQDCNSJSA-N.pdb
REMARK                            x       y       z     vdW  Elec       q    Type
REMARK                         _______ _______ _______ _____ _____    ______ ____
ROOT
ATOM      1  O   HOH    1      -15.262   1.167   0.000  0.00  0.00    +0.000 OA
ENDROOT
TORSDOF 0
REMARK  Name = molecules/HPNRHPKXQZSDFX-OAQDCNSJSA-N.pdb
REMARK                            x       y       z     vdW  Elec       q    Type
REMARK                         _______ _______ _______ _____ _____    ______ ____
ROOT
ATOM      1  O   HOH    1      -13.479   4.307   0.000  0.00  0.00    -0.410 OA
ATOM      2  H   HOH    0      -13.587   3.230   0.000  0.00  0.00    +0.205 HD
ATOM      3  H   HOH    0      -12.749   4.964   0.000  0.00  0.00    +0.205 HD
ENDROOT
TORSDOF 0
REMARK  Name = molecules/HPNRHPKXQZSDFX-OAQDCNSJSA-N.pdb
REMARK                            x       y       z     vdW  Elec       q    Type
REMARK                         _______ _______ _______ _____ _____    ______ ____
ROOT
ATOM      1  C   LIG    1      -12.401   6.423   0.000  0.00  0.00    +0.000 C 
ENDROOT
TORSDOF 0
REMARK  Name = molecules/HPNRHPKXQZSDFX-OAQDCNSJSA-N.pdb
REMARK                            x       y       z     vdW  Elec       q    Type
REMARK                         _______ _______ _______ _____ _____    ______ ____
ROOT
ATOM      1  O   HOH    1      -13.901   6.409   0.000  0.00  0.00    +0.000 OA
ENDROOT
TORSDOF 0
REMARK  Name = molecules/HPNRHPKXQZSDFX-OAQDCNSJSA-N.pdb
REMARK                            x       y       z     vdW  Elec       q    Type
REMARK                         _______ _______ _______ _____ _____    ______ ____
ROOT
ATOM      1  O   HOH    1      -11.136   8.731   0.000  0.00  0.00    -0.410 OA
ATOM      2  H   HOH    0      -11.612   7.759   0.000  0.00  0.00    +0.205 HD
ATOM      3  H   HOH    0      -10.223   9.093   0.000  0.00  0.00    +0.205 HD
ENDROOT
TORSDOF 0
REMARK  Name = molecules/HPNRHPKXQZSDFX-OAQDCNSJSA-N.pdb
REMARK                            x       y       z     vdW  Elec       q    Type
REMARK                         _______ _______ _______ _____ _____    ______ ____
ROOT
ATOM      1  O   HOH    1      -10.800  10.848   0.000  0.00  0.00    +0.000 OA
ENDROOT
TORSDOF 0
REMARK  Name = molecules/HPNRHPKXQZSDFX-OAQDCNSJSA-N.pdb
REMARK                            x       y       z     vdW  Elec       q    Type
REMARK                         _______ _______ _______ _____ _____    ______ ____
ROOT
ATOM      1  O   HOH    1       -7.399  12.062   0.000  0.00  0.00    -0.410 OA
ATOM      2  H   HOH    0       -8.184  11.317   0.000  0.00  0.00    +0.205 HD
ATOM      3  H   HOH    0       -6.250  12.695   0.000  0.00  0.00    +0.205 HD
ENDROOT
TORSDOF 0
REMARK  Name = molecules/HPNRHPKXQZSDFX-OAQDCNSJSA-N.pdb
REMARK                            x       y       z     vdW  Elec       q    Type
REMARK                         _______ _______ _______ _____ _____    ______ ____
ROOT
ATOM      1  C   LIG    1       -2.608  12.389   0.000  0.00  0.00    +0.000 C 
ENDROOT
TORSDOF 0
REMARK  Name = molecules/HPNRHPKXQZSDFX-OAQDCNSJSA-N.pdb
REMARK                            x       y       z     vdW  Elec       q    Type
REMARK                         _______ _______ _______ _____ _____    ______ ____
ROOT
ATOM      1  O   LIG    1       -2.917  13.857   0.000  0.00  0.00    -0.379 OA
ATOM      2  C   LIG    1       -2.405  14.530   0.000  0.00  0.00    +0.169 C 
ATOM      3  H   LIG    1       -3.851  14.131   0.000  0.00  0.00    +0.211 HD
ENDROOT
TORSDOF 0
REMARK  Name = molecules/HPNRHPKXQZSDFX-OAQDCNSJSA-N.pdb
REMARK                            x       y       z     vdW  Elec       q    Type
REMARK                         _______ _______ _______ _____ _____    ______ ____
ROOT
ATOM      1  C   LIG    1       -1.836  16.574   0.000  0.00  0.00    +0.008 C 
ATOM      2  C   LIG    1       -1.099  15.267   0.000  0.00  0.00    -0.008 C 
ENDROOT
TORSDOF 0
REMARK  Name = molecules/HPNRHPKXQZSDFX-OAQDCNSJSA-N.pdb
REMARK                            x       y       z     vdW  Elec       q    Type
REMARK                         _______ _______ _______ _____ _____    ______ ____
ROOT
ATOM      1  C   LIG    1       -0.362  13.961   0.000  0.00  0.00    -0.000 C 
ENDROOT
TORSDOF 0
REMARK  Name = molecules/HPNRHPKXQZSDFX-OAQDCNSJSA-N.pdb
REMARK                            x       y       z     vdW  Elec       q    Type
REMARK                         _______ _______ _______ _____ _____    ______ ____
ROOT
ATOM      1  C   LIG    1        0.375  12.655   0.000  0.00  0.00    -0.000 C 
ENDROOT
TORSDOF 0
REMARK  Name = molecules/HPNRHPKXQZSDFX-OAQDCNSJSA-N.pdb
REMARK                            x       y       z     vdW  Elec       q    Type
REMARK                         _______ _______ _______ _____ _____    ______ ____
ROOT
ATOM      1  C   LIG    1        6.112  11.087   0.000  0.00  0.00    +0.000 C 
ATOM      2  C   LIG    1        5.123  11.351   0.000  0.00  0.00    +0.000 C 
ENDROOT
TORSDOF 0
REMARK  Name = molecules/HPNRHPKXQZSDFX-OAQDCNSJSA-N.pdb
REMARK                            x       y       z     vdW  Elec       q    Type
REMARK                         _______ _______ _______ _____ _____    ______ ____
ROOT
ATOM      1  O   LIG    1        6.671  12.479   0.000  0.00  0.00    -0.279 OA
ATOM      2  C   LIG    1        6.839  13.302   0.000  0.00  0.00    +0.279 C 
ENDROOT
TORSDOF 0
REMARK  Name = molecules/HPNRHPKXQZSDFX-OAQDCNSJSA-N.pdb
REMARK                            x       y       z     vdW  Elec       q    Type
REMARK                         _______ _______ _______ _____ _____    ______ ____
ROOT
ATOM      1  C   LIG    1        8.840  10.812   0.000  0.00  0.00    +0.000 C 
ENDROOT
TORSDOF 0
REMARK  Name = molecules/HPNRHPKXQZSDFX-OAQDCNSJSA-N.pdb
REMARK                            x       y       z     vdW  Elec       q    Type
REMARK                         _______ _______ _______ _____ _____    ______ ____
ROOT
ATOM      1  O   LIG    1        8.143  12.140   0.000  0.00  0.00    -0.249 OA
ATOM      2  H   LIG    1        8.255  11.505   0.000  0.00  0.00    +0.253 HD
ENDROOT
BRANCH   1   3
ATOM      3  O   LIG    1        8.245  12.781   0.000  0.00  0.00    -0.221 OA
ATOM      4  C   LIG    1        9.085  13.058   0.000  0.00  0.00    +0.217 C 
ENDBRANCH   1   3
TORSDOF 1
REMARK  Name = molecules/HPNRHPKXQZSDFX-OAQDCNSJSA-N.pdb
REMARK                            x       y       z     vdW  Elec       q    Type
REMARK                         _______ _______ _______ _____ _____    ______ ____
ROOT
ATOM      1  N   LIG    1       17.909  11.291   0.000  0.00  0.00    -0.163 NA
ATOM      2  H   LIG    1       18.098  10.680   0.000  0.00  0.00    +0.163 HD
ENDROOT
TORSDOF 0
REMARK  Name = molecules/HPNRHPKXQZSDFX-OAQDCNSJSA-N.pdb
REMARK                            x       y       z     vdW  Elec       q    Type
REMARK                         _______ _______ _______ _____ _____    ______ ____
ROOT
ATOM      1  C   LIG    1        7.722  17.715   0.000  0.00  0.00    +0.000 C 
ATOM      2  C   LIG    1        7.428  16.244   0.000  0.00  0.00    +0.000 C 
ENDROOT
TORSDOF 0
REMARK  Name = molecules/HPNRHPKXQZSDFX-OAQDCNSJSA-N.pdb
REMARK                            x       y       z     vdW  Elec       q    Type
REMARK                         _______ _______ _______ _____ _____    ______ ____
ROOT
ATOM      1  C   LIG    1        7.133  14.773   0.000  0.00  0.00    +0.000 C 
ENDROOT
TORSDOF 0
REMARK  Name = molecules/HPNRHPKXQZSDFX-OAQDCNSJSA-N.pdb
REMARK                            x       y       z     vdW  Elec       q    Type
REMARK                         _______ _______ _______ _____ _____    ______ ____
ROOT
ATOM      1  C   LIG    1        8.899  15.949   0.000  0.00  0.00    +0.000 C 
ENDROOT
TORSDOF 0
REMARK  Name = molecules/HPNRHPKXQZSDFX-OAQDCNSJSA-N.pdb
REMARK                            x       y       z     vdW  Elec       q    Type
REMARK                         _______ _______ _______ _____ _____    ______ ____
ROOT
ATOM      1  C   LIG    1        6.594  11.057   0.000  0.00  0.00    +0.279 C 
ATOM      2  O   LIG    1        7.281  10.661   0.000  0.00  0.00    -0.279 OA
ENDROOT
TORSDOF 0
REMARK  Name = molecules/HPNRHPKXQZSDFX-OAQDCNSJSA-N.pdb
REMARK                            x       y       z     vdW  Elec       q    Type
REMARK                         _______ _______ _______ _____ _____    ______ ____
ROOT
ATOM      1  C   LIG    1        9.644  14.830   0.000  0.00  0.00    +0.000 C 
ENDROOT
TORSDOF 0
REMARK  Name = molecules/HPNRHPKXQZSDFX-OAQDCNSJSA-N.pdb
REMARK                            x       y       z     vdW  Elec       q    Type
REMARK                         _______ _______ _______ _____ _____    ______ ____
ROOT
ATOM      1  C   LIG    1        9.939  16.301   0.000  0.00  0.00    +0.000 C 
ENDROOT
TORSDOF 0
REMARK  Name = molecules/HPNRHPKXQZSDFX-OAQDCNSJSA-N.pdb
REMARK                            x       y       z     vdW  Elec       q    Type
REMARK                         _______ _______ _______ _____ _____    ______ ____
ROOT
ATOM      1  N   LIG    1       10.233  17.772   0.000  0.00  0.00    -0.163 NA
ATOM      2  H   LIG    1        9.193  17.420   0.000  0.00  0.00    +0.163 HD
ENDROOT
TORSDOF 0
REMARK  Name = molecules/HPNRHPKXQZSDFX-OAQDCNSJSA-N.pdb
REMARK                            x       y       z     vdW  Elec       q    Type
REMARK                         _______ _______ _______ _____ _____    ______ ____
ROOT
ATOM      1  H   UNK    1       15.129   8.936   0.000  0.00  0.00    +0.000 HD
ENDROOT
TORSDOF 0
REMARK  Name = molecules/HPNRHPKXQZSDFX-OAQDCNSJSA-N.pdb
REMARK                            x       y       z     vdW  Elec       q    Type
REMARK                         _______ _______ _______ _____ _____    ______ ____
ROOT
ATOM      1  H   UNK    1       13.171   5.516   0.000  0.00  0.00    +0.000 HD
ENDROOT
TORSDOF 0
REMARK  Name = molecules/HPNRHPKXQZSDFX-OAQDCNSJSA-N.pdb
REMARK                            x       y       z     vdW  Elec       q    Type
REMARK                         _______ _______ _______ _____ _____    ______ ____
ROOT
ATOM      1  H   UNK    1       11.387  10.302   0.000  0.00  0.00    +0.000 HD
ENDROOT
TORSDOF 0
REMARK  Name = molecules/HPNRHPKXQZSDFX-OAQDCNSJSA-N.pdb
REMARK                            x       y       z     vdW  Elec       q    Type
REMARK                         _______ _______ _______ _____ _____    ______ ____
ROOT
ATOM      1  H   UNK    1        4.888  14.225   0.000  0.00  0.00    +0.000 HD
ENDROOT
TORSDOF 0
REMARK  Name = molecules/HPNRHPKXQZSDFX-OAQDCNSJSA-N.pdb
REMARK                            x       y       z     vdW  Elec       q    Type
REMARK                         _______ _______ _______ _____ _____    ______ ____
ROOT
ATOM      1  H   UNK    1       11.309   9.908   0.000  0.00  0.00    +0.000 HD
ENDROOT
TORSDOF 0
REMARK  Name = molecules/HPNRHPKXQZSDFX-OAQDCNSJSA-N.pdb
REMARK                            x       y       z     vdW  Elec       q    Type
REMARK                         _______ _______ _______ _____ _____    ______ ____
ROOT
ATOM      1  H   UNK    1        7.782   5.773   0.000  0.00  0.00    +0.000 HD
ENDROOT
TORSDOF 0
REMARK  Name = molecules/HPNRHPKXQZSDFX-OAQDCNSJSA-N.pdb
REMARK                            x       y       z     vdW  Elec       q    Type
REMARK                         _______ _______ _______ _____ _____    ______ ____
ROOT
ATOM      1  H   UNK    1       19.709  34.849   0.000  0.00  0.00    +0.000 HD
ENDROOT
TORSDOF 0
REMARK  Name = molecules/HPNRHPKXQZSDFX-OAQDCNSJSA-N.pdb
REMARK                            x       y       z     vdW  Elec       q    Type
REMARK                         _______ _______ _______ _____ _____    ______ ____
ROOT
ATOM      1  H   UNK    1       19.178  27.155   0.000  0.00  0.00    +0.000 HD
ENDROOT
TORSDOF 0
REMARK  Name = molecules/HPNRHPKXQZSDFX-OAQDCNSJSA-N.pdb
REMARK                            x       y       z     vdW  Elec       q    Type
REMARK                         _______ _______ _______ _____ _____    ______ ____
ROOT
ATOM      1  H   UNK    1       22.767  30.992   0.000  0.00  0.00    +0.000 HD
ENDROOT
TORSDOF 0
REMARK  Name = molecules/HPNRHPKXQZSDFX-OAQDCNSJSA-N.pdb
REMARK                            x       y       z     vdW  Elec       q    Type
REMARK                         _______ _______ _______ _____ _____    ______ ____
ROOT
ATOM      1  H   UNK    1       21.309  29.266   0.000  0.00  0.00    +0.000 HD
ENDROOT
TORSDOF 0
REMARK  Name = molecules/HPNRHPKXQZSDFX-OAQDCNSJSA-N.pdb
REMARK                            x       y       z     vdW  Elec       q    Type
REMARK                         _______ _______ _______ _____ _____    ______ ____
ROOT
ATOM      1  H   UNK    1       13.174  21.493   0.000  0.00  0.00    +0.000 HD
ENDROOT
TORSDOF 0
REMARK  Name = molecules/HPNRHPKXQZSDFX-OAQDCNSJSA-N.pdb
REMARK                            x       y       z     vdW  Elec       q    Type
REMARK                         _______ _______ _______ _____ _____    ______ ____
ROOT
ATOM      1  H   UNK    1       19.153  22.136   0.000  0.00  0.00    +0.000 HD
ENDROOT
TORSDOF 0
REMARK  Name = molecules/HPNRHPKXQZSDFX-OAQDCNSJSA-N.pdb
REMARK                            x       y       z     vdW  Elec       q    Type
REMARK                         _______ _______ _______ _____ _____    ______ ____
ROOT
ATOM      1  H   UNK    1       19.142  20.015   0.000  0.00  0.00    +0.000 HD
ENDROOT
TORSDOF 0
REMARK  Name = molecules/HPNRHPKXQZSDFX-OAQDCNSJSA-N.pdb
REMARK                            x       y       z     vdW  Elec       q    Type
REMARK                         _______ _______ _______ _____ _____    ______ ____
ROOT
ATOM      1  H   UNK    1       12.370  15.192   0.000  0.00  0.00    +0.000 HD
ENDROOT
TORSDOF 0
REMARK  Name = molecules/HPNRHPKXQZSDFX-OAQDCNSJSA-N.pdb
REMARK                            x       y       z     vdW  Elec       q    Type
REMARK                         _______ _______ _______ _____ _____    ______ ____
ROOT
ATOM      1  H   UNK    1       10.378  21.119   0.000  0.00  0.00    +0.000 HD
ENDROOT
TORSDOF 0
REMARK  Name = molecules/HPNRHPKXQZSDFX-OAQDCNSJSA-N.pdb
REMARK                            x       y       z     vdW  Elec       q    Type
REMARK                         _______ _______ _______ _____ _____    ______ ____
ROOT
ATOM      1  H   UNK    1       19.757   8.240   0.000  0.00  0.00    +0.000 HD
ENDROOT
TORSDOF 0
REMARK  Name = molecules/HPNRHPKXQZSDFX-OAQDCNSJSA-N.pdb
REMARK                            x       y       z     vdW  Elec       q    Type
REMARK                         _______ _______ _______ _____ _____    ______ ____
ROOT
ATOM      1  H   UNK    1       21.214   9.966   0.000  0.00  0.00    +0.000 HD
ENDROOT
TORSDOF 0
REMARK  Name = molecules/HPNRHPKXQZSDFX-OAQDCNSJSA-N.pdb
REMARK                            x       y       z     vdW  Elec       q    Type
REMARK                         _______ _______ _______ _____ _____    ______ ____
ROOT
ATOM      1  H   UNK    1        9.739 -11.245   0.000  0.00  0.00    +0.000 HD
ENDROOT
TORSDOF 0
REMARK  Name = molecules/HPNRHPKXQZSDFX-OAQDCNSJSA-N.pdb
REMARK                            x       y       z     vdW  Elec       q    Type
REMARK                         _______ _______ _______ _____ _____    ______ ____
ROOT
ATOM      1  H   UNK    1       14.653 -12.495   0.000  0.00  0.00    +0.000 HD
ENDROOT
TORSDOF 0
REMARK  Name = molecules/HPNRHPKXQZSDFX-OAQDCNSJSA-N.pdb
REMARK                            x       y       z     vdW  Elec       q    Type
REMARK                         _______ _______ _______ _____ _____    ______ ____
ROOT
ATOM      1  H   UNK    1       16.122  -7.510   0.000  0.00  0.00    +0.000 HD
ENDROOT
TORSDOF 0
REMARK  Name = molecules/HPNRHPKXQZSDFX-OAQDCNSJSA-N.pdb
REMARK                            x       y       z     vdW  Elec       q    Type
REMARK                         _______ _______ _______ _____ _____    ______ ____
ROOT
ATOM      1  H   UNK    1       13.596  -8.121   0.000  0.00  0.00    +0.000 HD
ENDROOT
TORSDOF 0
REMARK  Name = molecules/HPNRHPKXQZSDFX-OAQDCNSJSA-N.pdb
REMARK                            x       y       z     vdW  Elec       q    Type
REMARK                         _______ _______ _______ _____ _____    ______ ____
ROOT
ATOM      1  H   UNK    1       17.913  -9.392   0.000  0.00  0.00    +0.000 HD
ENDROOT
TORSDOF 0
REMARK  Name = molecules/HPNRHPKXQZSDFX-OAQDCNSJSA-N.pdb
REMARK                            x       y       z     vdW  Elec       q    Type
REMARK                         _______ _______ _______ _____ _____    ______ ____
ROOT
ATOM      1  H   UNK    1       10.587 -17.713   0.000  0.00  0.00    +0.000 HD
ENDROOT
TORSDOF 0
REMARK  Name = molecules/HPNRHPKXQZSDFX-OAQDCNSJSA-N.pdb
REMARK                            x       y       z     vdW  Elec       q    Type
REMARK                         _______ _______ _______ _____ _____    ______ ____
ROOT
ATOM      1  H   UNK    1       12.143 -15.633   0.000  0.00  0.00    +0.000 HD
ENDROOT
TORSDOF 0
REMARK  Name = molecules/HPNRHPKXQZSDFX-OAQDCNSJSA-N.pdb
REMARK                            x       y       z     vdW  Elec       q    Type
REMARK                         _______ _______ _______ _____ _____    ______ ____
ROOT
ATOM      1  H   UNK    1        0.741 -15.989   0.000  0.00  0.00    +0.000 HD
ENDROOT
TORSDOF 0
REMARK  Name = molecules/HPNRHPKXQZSDFX-OAQDCNSJSA-N.pdb
REMARK                            x       y       z     vdW  Elec       q    Type
REMARK                         _______ _______ _______ _____ _____    ______ ____
ROOT
ATOM      1  H   UNK    1       -5.146 -13.958   0.000  0.00  0.00    +0.000 HD
ENDROOT
TORSDOF 0
REMARK  Name = molecules/HPNRHPKXQZSDFX-OAQDCNSJSA-N.pdb
REMARK                            x       y       z     vdW  Elec       q    Type
REMARK                         _______ _______ _______ _____ _____    ______ ____
ROOT
ATOM      1  H   UNK    1       -1.654 -16.840   0.000  0.00  0.00    +0.000 HD
ENDROOT
TORSDOF 0
REMARK  Name = molecules/HPNRHPKXQZSDFX-OAQDCNSJSA-N.pdb
REMARK                            x       y       z     vdW  Elec       q    Type
REMARK                         _______ _______ _______ _____ _____    ______ ____
ROOT
ATOM      1  H   UNK    1       -9.675 -11.476   0.000  0.00  0.00    +0.000 HD
ENDROOT
TORSDOF 0
REMARK  Name = molecules/HPNRHPKXQZSDFX-OAQDCNSJSA-N.pdb
REMARK                            x       y       z     vdW  Elec       q    Type
REMARK                         _______ _______ _______ _____ _____    ______ ____
ROOT
ATOM      1  H   UNK    1      -10.194 -16.337   0.000  0.00  0.00    +0.000 HD
ENDROOT
TORSDOF 0
REMARK  Name = molecules/HPNRHPKXQZSDFX-OAQDCNSJSA-N.pdb
REMARK                            x       y       z     vdW  Elec       q    Type
REMARK                         _______ _______ _______ _____ _____    ______ ____
ROOT
ATOM      1  H   UNK    1       -6.024 -14.646   0.000  0.00  0.00    +0.000 HD
ENDROOT
TORSDOF 0
REMARK  Name = molecules/HPNRHPKXQZSDFX-OAQDCNSJSA-N.pdb
REMARK                            x       y       z     vdW  Elec       q    Type
REMARK                         _______ _______ _______ _____ _____    ______ ____
ROOT
ATOM      1  H   UNK    1       -6.645 -19.103   0.000  0.00  0.00    +0.000 HD
ENDROOT
TORSDOF 0
REMARK  Name = molecules/HPNRHPKXQZSDFX-OAQDCNSJSA-N.pdb
REMARK                            x       y       z     vdW  Elec       q    Type
REMARK                         _______ _______ _______ _____ _____    ______ ____
ROOT
ATOM      1  H   UNK    1      -13.010  -7.214   0.000  0.00  0.00    +0.000 HD
ENDROOT
TORSDOF 0
REMARK  Name = molecules/HPNRHPKXQZSDFX-OAQDCNSJSA-N.pdb
REMARK                            x       y       z     vdW  Elec       q    Type
REMARK                         _______ _______ _______ _____ _____    ______ ____
ROOT
ATOM      1  H   UNK    1      -13.034 -10.400   0.000  0.00  0.00    +0.000 HD
ENDROOT
TORSDOF 0
REMARK  Name = molecules/HPNRHPKXQZSDFX-OAQDCNSJSA-N.pdb
REMARK                            x       y       z     vdW  Elec       q    Type
REMARK                         _______ _______ _______ _____ _____    ______ ____
ROOT
ATOM      1  H   UNK    1      -13.644  -8.368   0.000  0.00  0.00    +0.000 HD
ENDROOT
TORSDOF 0
REMARK  Name = molecules/HPNRHPKXQZSDFX-OAQDCNSJSA-N.pdb
REMARK                            x       y       z     vdW  Elec       q    Type
REMARK                         _______ _______ _______ _____ _____    ______ ____
ROOT
ATOM      1  H   UNK    1      -11.214 -10.089   0.000  0.00  0.00    +0.000 HD
ENDROOT
TORSDOF 0
REMARK  Name = molecules/HPNRHPKXQZSDFX-OAQDCNSJSA-N.pdb
REMARK                            x       y       z     vdW  Elec       q    Type
REMARK                         _______ _______ _______ _____ _____    ______ ____
ROOT
ATOM      1  H   UNK    1       -9.838 -10.405   0.000  0.00  0.00    +0.000 HD
ENDROOT
TORSDOF 0
REMARK  Name = molecules/HPNRHPKXQZSDFX-OAQDCNSJSA-N.pdb
REMARK                            x       y       z     vdW  Elec       q    Type
REMARK                         _______ _______ _______ _____ _____    ______ ____
ROOT
ATOM      1  H   UNK    1      -14.707  -2.232   0.000  0.00  0.00    +0.000 HD
ENDROOT
TORSDOF 0
REMARK  Name = molecules/HPNRHPKXQZSDFX-OAQDCNSJSA-N.pdb
REMARK                            x       y       z     vdW  Elec       q    Type
REMARK                         _______ _______ _______ _____ _____    ______ ____
ROOT
ATOM      1  H   UNK    1      -16.135  -3.740   0.000  0.00  0.00    +0.000 HD
ENDROOT
TORSDOF 0
REMARK  Name = molecules/HPNRHPKXQZSDFX-OAQDCNSJSA-N.pdb
REMARK                            x       y       z     vdW  Elec       q    Type
REMARK                         _______ _______ _______ _____ _____    ______ ____
ROOT
ATOM      1  H   UNK    1      -16.427   2.112   0.000  0.00  0.00    +0.000 HD
ENDROOT
TORSDOF 0
REMARK  Name = molecules/HPNRHPKXQZSDFX-OAQDCNSJSA-N.pdb
REMARK                            x       y       z     vdW  Elec       q    Type
REMARK                         _______ _______ _______ _____ _____    ______ ____
ROOT
ATOM      1  H   UNK    1      -12.598   7.910   0.000  0.00  0.00    +0.000 HD
ENDROOT
TORSDOF 0
REMARK  Name = molecules/HPNRHPKXQZSDFX-OAQDCNSJSA-N.pdb
REMARK                            x       y       z     vdW  Elec       q    Type
REMARK                         _______ _______ _______ _____ _____    ______ ____
ROOT
ATOM      1  H   UNK    1      -14.664   7.700   0.000  0.00  0.00    +0.000 HD
ENDROOT
TORSDOF 0
REMARK  Name = molecules/HPNRHPKXQZSDFX-OAQDCNSJSA-N.pdb
REMARK                            x       y       z     vdW  Elec       q    Type
REMARK                         _______ _______ _______ _____ _____    ______ ____
ROOT
ATOM      1  H   UNK    1       -9.056  11.802   0.000  0.00  0.00    +0.000 HD
ENDROOT
TORSDOF 0
REMARK  Name = molecules/HPNRHPKXQZSDFX-OAQDCNSJSA-N.pdb
REMARK                            x       y       z     vdW  Elec       q    Type
REMARK                         _______ _______ _______ _____ _____    ______ ____
ROOT
ATOM      1  H   UNK    1      -11.065  12.324   0.000  0.00  0.00    +0.000 HD
ENDROOT
TORSDOF 0
REMARK  Name = molecules/HPNRHPKXQZSDFX-OAQDCNSJSA-N.pdb
REMARK                            x       y       z     vdW  Elec       q    Type
REMARK                         _______ _______ _______ _____ _____    ______ ____
ROOT
ATOM      1  H   UNK    1       -4.095  13.493   0.000  0.00  0.00    +0.000 HD
ENDROOT
TORSDOF 0
REMARK  Name = molecules/HPNRHPKXQZSDFX-OAQDCNSJSA-N.pdb
REMARK                            x       y       z     vdW  Elec       q    Type
REMARK                         _______ _______ _______ _____ _____    ______ ____
ROOT
ATOM      1  H   UNK    1        0.845  14.852   0.000  0.00  0.00    +0.000 HD
ENDROOT
TORSDOF 0
REMARK  Name = molecules/HPNRHPKXQZSDFX-OAQDCNSJSA-N.pdb
REMARK                            x       y       z     vdW  Elec       q    Type
REMARK                         _______ _______ _______ _____ _____    ______ ____
ROOT
ATOM      1  H   UNK    1       -3.296  15.737   0.000  0.00  0.00    +0.000 HD
ENDROOT
TORSDOF 0
REMARK  Name = molecules/HPNRHPKXQZSDFX-OAQDCNSJSA-N.pdb
REMARK                            x       y       z     vdW  Elec       q    Type
REMARK                         _______ _______ _______ _____ _____    ______ ____
ROOT
ATOM      1  H   UNK    1       10.025   9.586   0.000  0.00  0.00    +0.000 HD
ENDROOT
TORSDOF 0
REMARK  Name = molecules/HPNRHPKXQZSDFX-OAQDCNSJSA-N.pdb
REMARK                            x       y       z     vdW  Elec       q    Type
REMARK                         _______ _______ _______ _____ _____    ______ ____
ROOT
ATOM      1  H   UNK    1       14.496  10.456   0.000  0.00  0.00    +0.000 HD
ENDROOT
TORSDOF 0
REMARK  Name = molecules/HPNRHPKXQZSDFX-OAQDCNSJSA-N.pdb
REMARK                            x       y       z     vdW  Elec       q    Type
REMARK                         _______ _______ _______ _____ _____    ______ ____
ROOT
ATOM      1  H   UNK    1       11.027  14.187   0.000  0.00  0.00    +0.000 HD
ENDROOT
TORSDOF 0
REMARK  Name = molecules/HPNRHPKXQZSDFX-OAQDCNSJSA-N.pdb
REMARK                            x       y       z     vdW  Elec       q    Type
REMARK                         _______ _______ _______ _____ _____    ______ ____
ROOT
ATOM      1  H   UNK    1       18.900  12.418   0.000  0.00  0.00    +0.000 HD
ENDROOT
TORSDOF 0
REMARK  Name = molecules/HPNRHPKXQZSDFX-OAQDCNSJSA-N.pdb
REMARK                            x       y       z     vdW  Elec       q    Type
REMARK                         _______ _______ _______ _____ _____    ______ ____
ROOT
ATOM      1  H   UNK    1       16.910  13.009   0.000  0.00  0.00    +0.000 HD
ENDROOT
TORSDOF 0
REMARK  Name = molecules/HPNRHPKXQZSDFX-OAQDCNSJSA-N.pdb
REMARK                            x       y       z     vdW  Elec       q    Type
REMARK                         _______ _______ _______ _____ _____    ______ ____
ROOT
ATOM      1  H   UNK    1        8.017  19.186   0.000  0.00  0.00    +0.000 HD
ENDROOT
TORSDOF 0
REMARK  Name = molecules/HPNRHPKXQZSDFX-OAQDCNSJSA-N.pdb
REMARK                            x       y       z     vdW  Elec       q    Type
REMARK                         _______ _______ _______ _____ _____    ______ ____
ROOT
ATOM      1  H   UNK    1        5.662  15.068   0.000  0.00  0.00    +0.000 HD
ENDROOT
TORSDOF 0
REMARK  Name = molecules/HPNRHPKXQZSDFX-OAQDCNSJSA-N.pdb
REMARK                            x       y       z     vdW  Elec       q    Type
REMARK                         _______ _______ _______ _____ _____    ______ ____
ROOT
ATOM      1  H   UNK    1       10.377  16.202   0.000  0.00  0.00    +0.000 HD
ENDROOT
TORSDOF 0
REMARK  Name = molecules/HPNRHPKXQZSDFX-OAQDCNSJSA-N.pdb
REMARK                            x       y       z     vdW  Elec       q    Type
REMARK                         _______ _______ _______ _____ _____    ______ ____
ROOT
ATOM      1  H   UNK    1        9.193  17.420   0.000  0.00  0.00    +0.000 HD
ENDROOT
TORSDOF 0
REMARK  Name = molecules/HPNRHPKXQZSDFX-OAQDCNSJSA-N.pdb
REMARK                            x       y       z     vdW  Elec       q    Type
REMARK                         _______ _______ _______ _____ _____    ______ ____
ROOT
ATOM      1  H   UNK    1        3.358  10.175   0.000  0.00  0.00    +0.000 HD
ENDROOT
TORSDOF 0
REMARK  Name = molecules/HPNRHPKXQZSDFX-OAQDCNSJSA-N.pdb
REMARK                            x       y       z     vdW  Elec       q    Type
REMARK                         _______ _______ _______ _____ _____    ______ ____
ROOT
ATOM      1  H   UNK    1        2.771  14.882   0.000  0.00  0.00    +0.000 HD
ENDROOT
TORSDOF 0
REMARK  Name = molecules/HPNRHPKXQZSDFX-OAQDCNSJSA-N.pdb
REMARK                            x       y       z     vdW  Elec       q    Type
REMARK                         _______ _______ _______ _____ _____    ______ ____
ROOT
ATOM      1  H   UNK    1        3.913  13.841   0.000  0.00  0.00    +0.000 HD
ENDROOT
TORSDOF 0
REMARK  Name = molecules/HPNRHPKXQZSDFX-OAQDCNSJSA-N.pdb
REMARK                            x       y       z     vdW  Elec       q    Type
REMARK                         _______ _______ _______ _____ _____    ______ ____
ROOT
ATOM      1  H   UNK    1       11.140  14.717   0.000  0.00  0.00    +0.000 HD
ENDROOT
TORSDOF 0
REMARK  Name = molecules/HPNRHPKXQZSDFX-OAQDCNSJSA-N.pdb
REMARK                            x       y       z     vdW  Elec       q    Type
REMARK                         _______ _______ _______ _____ _____    ______ ____
ROOT
ATOM      1  H   UNK    1       11.295  15.659   0.000  0.00  0.00    +0.000 HD
ENDROOT
TORSDOF 0
REMARK  Name = molecules/HPNRHPKXQZSDFX-OAQDCNSJSA-N.pdb
REMARK                            x       y       z     vdW  Elec       q    Type
REMARK                         _______ _______ _______ _____ _____    ______ ____
ROOT
ATOM      1  H   UNK    1        8.994  18.618   0.000  0.00  0.00    +0.000 HD
ENDROOT
TORSDOF 0
REMARK  Name = molecules/HPNRHPKXQZSDFX-OAQDCNSJSA-N.pdb
REMARK                            x       y       z     vdW  Elec       q    Type
REMARK                         _______ _______ _______ _____ _____    ______ ____
ROOT
ATOM      1  H   UNK    1       13.935  18.220   0.000  0.00  0.00    +0.000 HD
ENDROOT
TORSDOF 0
REMARK  Name = molecules/HPNRHPKXQZSDFX-OAQDCNSJSA-N.pdb
REMARK                            x       y       z     vdW  Elec       q    Type
REMARK                         _______ _______ _______ _____ _____    ______ ____
ROOT
ATOM      1  H   UNK    1       13.370  20.204   0.000  0.00  0.00    +0.000 HD
ENDROOT
TORSDOF 0
REMARK  Name = molecules/HPNRHPKXQZSDFX-OAQDCNSJSA-N.pdb
REMARK                            x       y       z     vdW  Elec       q    Type
REMARK                         _______ _______ _______ _____ _____    ______ ____
ROOT
ATOM      1  H   UNK    1       10.411  11.247   0.000  0.00  0.00    +0.000 HD
ENDROOT
TORSDOF 0
REMARK  Name = molecules/HPNRHPKXQZSDFX-OAQDCNSJSA-N.pdb
REMARK                            x       y       z     vdW  Elec       q    Type
REMARK                         _______ _______ _______ _____ _____    ______ ____
ROOT
ATOM      1  H   UNK    1       11.706   9.018   0.000  0.00  0.00    +0.000 HD
ENDROOT
TORSDOF 0
REMARK  Name = molecules/HPNRHPKXQZSDFX-OAQDCNSJSA-N.pdb
REMARK                            x       y       z     vdW  Elec       q    Type
REMARK                         _______ _______ _______ _____ _____    ______ ____
ROOT
ATOM      1  H   UNK    1       14.300   8.544   0.000  0.00  0.00    +0.000 HD
ENDROOT
TORSDOF 0
REMARK  Name = molecules/HPNRHPKXQZSDFX-OAQDCNSJSA-N.pdb
REMARK                            x       y       z     vdW  Elec       q    Type
REMARK                         _______ _______ _______ _____ _____    ______ ____
ROOT
ATOM      1  H   UNK    1       13.699   5.033   0.000  0.00  0.00    +0.000 HD
ENDROOT
TORSDOF 0
REMARK  Name = molecules/HPNRHPKXQZSDFX-OAQDCNSJSA-N.pdb
REMARK                            x       y       z     vdW  Elec       q    Type
REMARK                         _______ _______ _______ _____ _____    ______ ____
ROOT
ATOM      1  H   UNK    1       17.908   3.642   0.000  0.00  0.00    +0.000 HD
ENDROOT
TORSDOF 0
REMARK  Name = molecules/HPNRHPKXQZSDFX-OAQDCNSJSA-N.pdb
REMARK                            x       y       z     vdW  Elec       q    Type
REMARK                         _______ _______ _______ _____ _____    ______ ____
ROOT
ATOM      1  H   UNK    1        2.781   1.344   0.000  0.00  0.00    +0.000 HD
ENDROOT
TORSDOF 0
