REMARK  Name = molecules/HPNSFSBZBAHARI-RUDMXATFSA-N.pdb
REMARK                            x       y       z     vdW  Elec       q    Type
REMARK                         _______ _______ _______ _____ _____    ______ ____
ROOT
ATOM      1  C   LIG    1       -3.821  -0.906  -1.669  0.00  0.00    +0.048 C 
ATOM      2  C   LIG    1       -2.890  -0.215  -0.756  0.00  0.00    -0.001 A 
ATOM      3  C   LIG    1       -1.806  -0.868  -0.157  0.00  0.00    +0.130 A 
ATOM      4  C   LIG    1       -0.963  -0.184   0.689  0.00  0.00    +0.040 A 
ATOM      5  C   LIG    1       -1.214   1.142   0.926  0.00  0.00    +0.138 A 
ATOM      6  C   LIG    1       -2.281   1.813   0.347  0.00  0.00    +0.107 A 
ATOM      7  C   LIG    1       -2.776   3.174   0.414  0.00  0.00    +0.343 C 
ATOM      8  O   LIG    1       -2.257   4.085   1.092  0.00  0.00    -0.245 OA
ATOM      9  O   LIG    1       -3.894   3.304  -0.376  0.00  0.00    -0.456 OA
ATOM     10  C   LIG    1       -4.156   2.055  -0.971  0.00  0.00    +0.269 C 
ATOM     11  C   LIG    1       -3.106   1.119  -0.490  0.00  0.00    +0.014 A 
ENDROOT
BRANCH   5  12
ATOM     12  O   LIG    1       -0.420   1.910   1.765  0.00  0.00    -0.506 OA
ATOM     13  H   LIG    1        0.383   1.615   2.270  0.00  0.00    +0.292 HD
ENDBRANCH   5  12
BRANCH   3  14
ATOM     14  O   LIG    1       -1.613  -2.194  -0.439  0.00  0.00    -0.494 OA
ATOM     15  C   LIG    1       -2.143  -3.278   0.258  0.00  0.00    +0.277 C 
ENDBRANCH   3  14
BRANCH   4  16
ATOM     16  C   LIG    1        0.212  -0.866   1.346  0.00  0.00    +0.069 C 
BRANCH  16  17
ATOM     17  C   LIG    1        1.309  -1.076   0.428  0.00  0.00    -0.023 C 
ATOM     18  C   LIG    1        2.576  -0.642   0.534  0.00  0.00    -0.076 C 
ATOM     19  C   LIG    1        2.929   0.112   1.755  0.00  0.00    +0.039 C 
BRANCH  18  20
ATOM     20  C   LIG    1        3.529  -0.990  -0.557  0.00  0.00    +0.041 C 
BRANCH  20  21
ATOM     21  C   LIG    1        4.132   0.093  -1.329  0.00  0.00    +0.125 C 
BRANCH  21  22
ATOM     22  C   LIG    1        5.035   1.044  -0.675  0.00  0.00    +0.305 C 
ATOM     23  O   LIG    1        5.471   0.876   0.476  0.00  0.00    -0.251 OA
BRANCH  22  24
ATOM     24  O   LIG    1        5.424   2.198  -1.388  0.00  0.00    -0.481 OA
ATOM     25  H   LIG    1        4.669   2.846  -1.633  0.00  0.00    +0.295 HD
ENDBRANCH  22  24
ENDBRANCH  21  22
ENDBRANCH  20  21
ENDBRANCH  18  20
ENDBRANCH  16  17
ENDBRANCH   4  16
TORSDOF 8
