REMARK  Name = molecules/HQFWVSGBVLEQGA-UHFFFAOYSA-N.pdb
REMARK                            x       y       z     vdW  Elec       q    Type
REMARK                         _______ _______ _______ _____ _____    ______ ____
ROOT
ATOM      1  O   LIG    1        2.017   0.621  -1.613  0.00  0.00    -0.461 OA
ENDROOT
BRANCH   1   2
ATOM      2  C   LIG    1        2.527   1.053  -0.448  0.00  0.00    +0.339 C 
ATOM      3  O   LIG    1        1.757   1.651   0.337  0.00  0.00    -0.245 OA
BRANCH   2   4
ATOM      4  C   LIG    1        3.939   0.831  -0.110  0.00  0.00    +0.059 A 
ATOM      5  C   LIG    1        4.421   1.200   1.121  0.00  0.00    +0.017 A 
ATOM      6  C   LIG    1        5.771   1.022   1.410  0.00  0.00    +0.023 A 
ATOM      7  C   LIG    1        6.668   0.484   0.514  0.00  0.00    +0.025 A 
ATOM      8  C   LIG    1        6.161   0.119  -0.721  0.00  0.00    +0.023 A 
ATOM      9  C   LIG    1        4.822   0.291  -1.023  0.00  0.00    +0.017 A 
BRANCH   7  10
ATOM     10  N   LIG    1        8.056   0.323   0.816  0.00  0.00    -0.358 N 
ATOM     11  H   LIG    1        8.326   0.049   1.768  0.00  0.00    +0.142 HD
ATOM     12  H   LIG    1        8.745   0.486   0.059  0.00  0.00    +0.142 HD
ENDBRANCH   7  10
ENDBRANCH   2   4
ENDBRANCH   1   2
BRANCH   1  13
ATOM     13  C   LIG    1        0.814   0.652  -2.226  0.00  0.00    +0.234 C 
BRANCH  13  14
ATOM     14  C   LIG    1       -0.394  -0.028  -1.741  0.00  0.00    +0.056 C 
BRANCH  14  15
ATOM     15  C   LIG    1       -0.920   0.336  -0.395  0.00  0.00    +0.087 C 
BRANCH  15  16
ATOM     16  N   LIG    1       -2.101  -0.273  -0.004  0.00  0.00    -0.302 NA
BRANCH  16  17
ATOM     17  C   LIG    1       -2.732   0.232   1.149  0.00  0.00    +0.084 C 
BRANCH  17  18
ATOM     18  C   LIG    1       -3.548   1.467   1.065  0.00  0.00    +0.015 C 
BRANCH  18  19
ATOM     19  C   LIG    1       -2.902   2.691   0.550  0.00  0.00    -0.002 C 
ATOM     20  C   LIG    1       -3.993   3.802   0.644  0.00  0.00    +0.004 C 
ENDBRANCH  18  19
ENDBRANCH  17  18
ENDBRANCH  16  17
BRANCH  16  21
ATOM     21  C   LIG    1       -2.522  -1.532  -0.394  0.00  0.00    +0.084 C 
BRANCH  21  22
ATOM     22  C   LIG    1       -1.761  -2.730   0.123  0.00  0.00    +0.015 C 
BRANCH  22  23
ATOM     23  C   LIG    1       -2.407  -4.011  -0.417  0.00  0.00    -0.002 C 
ATOM     24  C   LIG    1       -3.838  -4.120   0.044  0.00  0.00    +0.004 C 
ENDBRANCH  22  23
ENDBRANCH  21  22
ENDBRANCH  16  21
ENDBRANCH  15  16
ENDBRANCH  14  15
ENDBRANCH  13  14
ENDBRANCH   1  13
TORSDOF 13
