REMARK  Name = molecules/HQMNCQVAMBCHCO-DJRRULDNSA-N.pdb
REMARK                            x       y       z     vdW  Elec       q    Type
REMARK                         _______ _______ _______ _____ _____    ______ ____
ROOT
ATOM      1  C   LIG    1       -2.292  -0.494  -0.419  0.00  0.00    +0.009 C 
ATOM      2  C   LIG    1       -1.307   0.092   0.188  0.00  0.00    +0.004 C 
ENDROOT
BRANCH   1   3
ATOM      3  C   LIG    1       -3.703  -0.396  -0.145  0.00  0.00    -0.019 A 
ATOM      4  C   LIG    1       -4.297   0.067   1.000  0.00  0.00    -0.040 A 
ATOM      5  C   LIG    1       -3.531   0.523   2.173  0.00  0.00    +0.044 C 
ATOM      6  C   LIG    1       -5.700   0.069   1.157  0.00  0.00    +0.049 A 
ATOM      7  C   LIG    1       -6.533  -0.394   0.170  0.00  0.00    +0.124 A 
ATOM      8  C   LIG    1       -5.912  -0.860  -0.979  0.00  0.00    -0.005 A 
ATOM      9  C   LIG    1       -6.793  -1.368  -2.060  0.00  0.00    +0.048 C 
ATOM     10  C   LIG    1       -4.577  -0.872  -1.155  0.00  0.00    -0.037 A 
ATOM     11  C   LIG    1       -3.996  -1.383  -2.417  0.00  0.00    +0.045 C 
BRANCH   7  12
ATOM     12  O   LIG    1       -7.899  -0.385   0.339  0.00  0.00    -0.495 OA
ATOM     13  C   LIG    1       -8.418   0.114   1.554  0.00  0.00    +0.277 C 
ENDBRANCH   7  12
ENDBRANCH   1   3
BRANCH   2  14
ATOM     14  C   LIG    1        0.105  -0.138  -0.235  0.00  0.00    -0.050 C 
ATOM     15  C   LIG    1        1.038   0.493   0.426  0.00  0.00    +0.003 C 
ATOM     16  C   LIG    1        0.366  -1.038  -1.335  0.00  0.00    +0.044 C 
BRANCH  15  17
ATOM     17  C   LIG    1        2.453   0.342   0.096  0.00  0.00    +0.001 C 
ATOM     18  C   LIG    1        3.361   0.994   0.788  0.00  0.00    +0.003 C 
BRANCH  18  19
ATOM     19  C   LIG    1        4.785   0.921   0.551  0.00  0.00    -0.044 C 
ATOM     20  C   LIG    1        5.642   1.626   1.311  0.00  0.00    +0.095 C 
ATOM     21  C   LIG    1        5.366   0.094  -0.505  0.00  0.00    +0.044 C 
BRANCH  20  22
ATOM     22  C   LIG    1        7.080   1.595   1.124  0.00  0.00    +0.332 C 
ATOM     23  O   LIG    1        7.773   2.318   1.923  0.00  0.00    -0.246 OA
BRANCH  22  24
ATOM     24  O   LIG    1        7.754   0.868   0.176  0.00  0.00    -0.462 OA
BRANCH  24  25
ATOM     25  C   LIG    1        9.163   0.939   0.113  0.00  0.00    +0.229 C 
ATOM     26  C   LIG    1        9.719   0.074  -0.988  0.00  0.00    +0.048 C 
ENDBRANCH  24  25
ENDBRANCH  22  24
ENDBRANCH  20  22
ENDBRANCH  18  19
ENDBRANCH  15  17
ENDBRANCH   2  14
TORSDOF 8
