REMARK  Name = molecules/HQVZOORKDNCGCK-UHFFFAOYSA-N.pdb
REMARK                            x       y       z     vdW  Elec       q    Type
REMARK                         _______ _______ _______ _____ _____    ______ ____
ROOT
ATOM      1  C   LIG    1        1.722   0.892  -0.492  0.00  0.00    -0.001 A 
ATOM      2  C   LIG    1        2.095   2.001   0.222  0.00  0.00    +0.120 A 
ATOM      3  C   LIG    1        1.274   2.517   1.199  0.00  0.00    +0.046 A 
ATOM      4  C   LIG    1        0.045   1.897   1.459  0.00  0.00    +0.008 A 
ATOM      5  C   LIG    1       -0.341   0.794   0.757  0.00  0.00    -0.041 A 
ATOM      6  C   LIG    1        0.490   0.290  -0.213  0.00  0.00    +0.011 A 
ENDROOT
BRANCH   5   7
ATOM      7  C   LIG    1       -1.686   0.172   1.033  0.00  0.00    -0.009 C 
ATOM      8  C   LIG    1       -2.382   1.047   2.039  0.00  0.00    +0.016 C 
ATOM      9  C   LIG    1       -1.343  -1.180   1.599  0.00  0.00    +0.016 C 
BRANCH   7  10
ATOM     10  C   LIG    1       -2.394   0.196  -0.248  0.00  0.00    +0.017 C 
BRANCH  10  11
ATOM     11  C   LIG    1       -3.736  -0.303  -0.476  0.00  0.00    -0.037 C 
ATOM     12  C   LIG    1       -4.892   0.329   0.180  0.00  0.00    +0.010 C 
ATOM     13  C   LIG    1       -3.805  -1.812  -0.364  0.00  0.00    +0.010 C 
ATOM     14  C   LIG    1       -3.978  -0.040  -2.003  0.00  0.00    +0.010 C 
ENDBRANCH  10  11
ENDBRANCH   7  10
ENDBRANCH   5   7
BRANCH   2  15
ATOM     15  O   LIG    1        3.309   2.611  -0.040  0.00  0.00    -0.506 OA
ATOM     16  H   LIG    1        3.564   3.425   0.495  0.00  0.00    +0.292 HD
ENDBRANCH   2  15
BRANCH   1  17
ATOM     17  C   LIG    1        2.591   0.361  -1.573  0.00  0.00    +0.075 C 
BRANCH  17  18
ATOM     18  C   LIG    1        3.834  -0.269  -1.067  0.00  0.00    -0.025 A 
ATOM     19  C   LIG    1        3.908  -1.493  -0.442  0.00  0.00    +0.046 A 
ATOM     20  C   LIG    1        5.110  -2.055  -0.005  0.00  0.00    +0.040 A 
ATOM     21  C   LIG    1        6.297  -1.372  -0.197  0.00  0.00    +0.042 A 
ATOM     22 CL   LIG    1        7.825  -2.039   0.332  0.00  0.00    -0.083 Cl
ATOM     23  C   LIG    1        6.243  -0.146  -0.821  0.00  0.00    +0.020 A 
ATOM     24 CL   LIG    1        2.438  -2.404  -0.172  0.00  0.00    -0.083 Cl
ATOM     25  C   LIG    1        5.058   0.396  -1.246  0.00  0.00    +0.007 A 
ENDBRANCH  17  18
ENDBRANCH   1  17
TORSDOF 6
