REMARK  Name = molecules/HRRBJVNMSRJFHQ-HXUWFJFHSA-N.pdb
REMARK                            x       y       z     vdW  Elec       q    Type
REMARK                         _______ _______ _______ _____ _____    ______ ____
ROOT
ATOM      1  C   LIG    1        1.506  -0.681   0.791  0.00  0.00    +0.166 C 
ENDROOT
BRANCH   1   2
ATOM      2  O   LIG    1        1.542   0.264   1.778  0.00  0.00    -0.387 OA
ATOM      3  H   LIG    1        1.713   1.168   1.405  0.00  0.00    +0.210 HD
ENDBRANCH   1   2
BRANCH   1   4
ATOM      4  C   LIG    1        2.796  -1.444   0.581  0.00  0.00    +0.261 C 
BRANCH   4   5
ATOM      5  O   LIG    1        3.822  -0.693   0.233  0.00  0.00    -0.489 OA
BRANCH   5   6
ATOM      6  C   LIG    1        4.688   0.268   0.503  0.00  0.00    +0.128 A 
ATOM      7  C   LIG    1        4.721   0.951   1.692  0.00  0.00    +0.046 A 
ATOM      8  C   LIG    1        5.617   1.951   1.987  0.00  0.00    +0.004 A 
ATOM      9  C   LIG    1        6.550   2.308   1.051  0.00  0.00    +0.009 A 
ATOM     10  C   LIG    1        6.575   1.664  -0.166  0.00  0.00    -0.014 A 
ATOM     11  C   LIG    1        7.538   2.045  -1.108  0.00  0.00    +0.008 A 
ATOM     12  C   LIG    1        7.543   1.375  -2.334  0.00  0.00    +0.001 A 
ATOM     13  C   LIG    1        6.625   0.377  -2.591  0.00  0.00    +0.001 A 
ATOM     14  C   LIG    1        5.681   0.021  -1.635  0.00  0.00    +0.012 A 
ATOM     15  C   LIG    1        5.671   0.671  -0.436  0.00  0.00    +0.024 A 
ENDBRANCH   5   6
ENDBRANCH   4   5
ENDBRANCH   1   4
BRANCH   1  16
ATOM     16  C   LIG    1        0.332  -1.635   0.944  0.00  0.00    +0.119 C 
BRANCH  16  17
ATOM     17  N   LIG    1       -0.925  -0.966   0.903  0.00  0.00    -0.297 NA
ATOM     18  C   LIG    1       -2.006  -1.877   1.047  0.00  0.00    +0.103 C 
ATOM     19  C   LIG    1       -3.092  -1.739   0.008  0.00  0.00    +0.120 C 
ATOM     20  N   LIG    1       -3.474  -0.331  -0.005  0.00  0.00    -0.325 N 
ATOM     21  C   LIG    1       -2.404   0.612  -0.264  0.00  0.00    +0.120 C 
ATOM     22  C   LIG    1       -1.046   0.051  -0.070  0.00  0.00    +0.103 C 
BRANCH  20  23
ATOM     23  C   LIG    1       -4.782   0.134   0.214  0.00  0.00    +0.072 A 
ATOM     24  C   LIG    1       -5.027   0.988   1.274  0.00  0.00    +0.027 A 
ATOM     25  C   LIG    1       -6.309   1.446   1.492  0.00  0.00    +0.002 A 
ATOM     26  C   LIG    1       -7.371   1.083   0.686  0.00  0.00    +0.004 A 
ATOM     27  C   LIG    1       -7.090   0.222  -0.374  0.00  0.00    +0.047 A 
ATOM     28  C   LIG    1       -5.823  -0.251  -0.616  0.00  0.00    +0.141 A 
BRANCH  28  29
ATOM     29  O   LIG    1       -5.515  -1.111  -1.666  0.00  0.00    -0.493 OA
ATOM     30  C   LIG    1       -6.538  -1.527  -2.531  0.00  0.00    +0.277 C 
ENDBRANCH  28  29
ENDBRANCH  20  23
ENDBRANCH  16  17
ENDBRANCH   1  16
TORSDOF 8
