REMARK  Name = molecules/HRRXCXABAPSOCP-AREMUKBSSA-N.pdb
REMARK                            x       y       z     vdW  Elec       q    Type
REMARK                         _______ _______ _______ _____ _____    ______ ____
ROOT
ATOM      1  C   LIG    1        0.158   1.095  -1.950  0.00  0.00    +0.186 A 
ATOM      2  N   LIG    1        1.177   1.573  -1.175  0.00  0.00    -0.221 NA
ATOM      3  C   LIG    1        2.034   0.594  -0.853  0.00  0.00    +0.092 A 
ATOM      4  C   LIG    1        3.195   0.550  -0.110  0.00  0.00    +0.056 A 
ATOM      5  C   LIG    1        3.913  -0.616   0.077  0.00  0.00    +0.048 A 
ATOM      6  C   LIG    1        3.423  -1.763  -0.514  0.00  0.00    +0.028 A 
ATOM      7  C   LIG    1        2.264  -1.715  -1.255  0.00  0.00    +0.030 A 
ATOM      8  C   LIG    1        1.546  -0.551  -1.443  0.00  0.00    +0.067 A 
ATOM      9  N   LIG    1        0.411  -0.216  -2.100  0.00  0.00    -0.332 N 
ATOM     10  H   LIG    1       -0.157  -0.896  -2.639  0.00  0.00    +0.168 HD
ENDROOT
BRANCH   5  11
ATOM     11  N   LIG    1        5.103  -0.604   0.852  0.00  0.00    -0.323 N 
ATOM     12  C   LIG    1        5.655  -1.667   1.459  0.00  0.00    +0.091 A 
ATOM     13  C   LIG    1        6.816  -1.271   2.126  0.00  0.00    +0.019 A 
ATOM     14  C   LIG    1        6.954   0.076   1.905  0.00  0.00    +0.019 A 
ATOM     15  C   LIG    1        5.892   0.449   1.124  0.00  0.00    +0.091 A 
ENDBRANCH   5  11
BRANCH   1  16
ATOM     16  S   LIG    1       -1.169   2.073  -2.600  0.00  0.00    +0.030 S 
ATOM     17  O   LIG    1       -0.596   3.378  -3.116  0.00  0.00    -0.154 OA
BRANCH  16  18
ATOM     18  C   LIG    1       -2.389   2.305  -1.335  0.00  0.00    +0.153 C 
BRANCH  18  19
ATOM     19  C   LIG    1       -2.924   1.007  -0.890  0.00  0.00    +0.059 A 
ATOM     20  C   LIG    1       -3.901   0.999   0.116  0.00  0.00    +0.013 A 
ATOM     21  C   LIG    1       -4.339   2.303   0.682  0.00  0.00    +0.049 C 
ATOM     22  C   LIG    1       -4.406  -0.205   0.531  0.00  0.00    +0.126 A 
ATOM     23  C   LIG    1       -3.944  -1.353  -0.045  0.00  0.00    +0.065 A 
ATOM     24  C   LIG    1       -2.982  -1.318  -1.033  0.00  0.00    +0.114 A 
ATOM     25  N   LIG    1       -2.501  -0.131  -1.425  0.00  0.00    -0.259 NA
BRANCH  22  26
ATOM     26  O   LIG    1       -5.369  -0.219   1.522  0.00  0.00    -0.495 OA
ATOM     27  C   LIG    1       -5.904  -1.460   1.964  0.00  0.00    +0.277 C 
ENDBRANCH  22  26
ENDBRANCH  18  19
ENDBRANCH  16  18
ENDBRANCH   1  16
TORSDOF 5
