REMARK  Name = molecules/HRSANNODOVBCST-HNNXBMFYSA-N.pdb
REMARK                            x       y       z     vdW  Elec       q    Type
REMARK                         _______ _______ _______ _____ _____    ______ ____
ROOT
ATOM      1  C   LIG    1       -0.722   0.428  -0.660  0.00  0.00    -0.017 A 
ATOM      2  C   LIG    1       -1.452  -0.561  -0.043  0.00  0.00    +0.014 A 
ATOM      3  C   LIG    1       -2.829  -0.407   0.061  0.00  0.00    -0.018 A 
ATOM      4  C   LIG    1       -3.588  -1.369   0.676  0.00  0.00    +0.008 A 
ATOM      5  C   LIG    1       -4.952  -1.214   0.787  0.00  0.00    +0.001 A 
ATOM      6  C   LIG    1       -5.565  -0.095   0.285  0.00  0.00    +0.001 A 
ATOM      7  C   LIG    1       -4.833   0.883  -0.334  0.00  0.00    +0.008 A 
ATOM      8  C   LIG    1       -3.463   0.714  -0.440  0.00  0.00    -0.018 A 
ATOM      9  C   LIG    1       -2.729   1.698  -1.053  0.00  0.00    +0.009 A 
ATOM     10  C   LIG    1       -1.355   1.530  -1.150  0.00  0.00    +0.007 A 
ENDROOT
BRANCH   1  11
ATOM     11  C   LIG    1        0.777   0.350  -0.802  0.00  0.00    +0.158 C 
BRANCH  11  12
ATOM     12  O   LIG    1        1.256   1.549  -0.404  0.00  0.00    -0.386 OA
ATOM     13  H   LIG    1        0.901   1.967   0.390  0.00  0.00    +0.210 HD
ENDBRANCH  11  12
BRANCH  11  14
ATOM     14  C   LIG    1        1.303  -0.857  -0.135  0.00  0.00    +0.117 C 
BRANCH  14  15
ATOM     15  N   LIG    1        2.674  -1.080  -0.226  0.00  0.00    -0.311 NA
ATOM     16  H   LIG    1        2.975  -1.712  -1.009  0.00  0.00    +0.122 HD
BRANCH  15  17
ATOM     17  C   LIG    1        3.668  -0.382   0.428  0.00  0.00    +0.048 C 
ATOM     18  C   LIG    1        5.004  -1.136   0.207  0.00  0.00    +0.023 C 
ATOM     19  C   LIG    1        3.951   1.046   0.183  0.00  0.00    +0.023 C 
ENDBRANCH  15  17
ENDBRANCH  14  15
ENDBRANCH  11  14
ENDBRANCH   1  11
TORSDOF 5
