REMARK  Name = molecules/HRYZWHHZPQKTII-UHFFFAOYSA-N.pdb
REMARK                            x       y       z     vdW  Elec       q    Type
REMARK                         _______ _______ _______ _____ _____    ______ ____
ROOT
ATOM      1  C   LIG    1       -0.776   0.104   0.028  0.00  0.00    +0.021 C 
ATOM      2  C   LIG    1        0.678  -0.257  -0.032  0.00  0.00    +0.105 C 
ATOM      3 CL   LIG    1        1.599   1.253  -0.248  0.00  0.00    -0.126 Cl
ENDROOT
TORSDOF 0
