REMARK  Name = molecules/HSJFYRYGGKLQBT-UHFFFAOYSA-N.pdb
REMARK                            x       y       z     vdW  Elec       q    Type
REMARK                         _______ _______ _______ _____ _____    ______ ____
ROOT
ATOM      1  C   LIG    1        0.258  -0.969  -0.999  0.00  0.00    +0.348 C 
ATOM      2  O   LIG    1       -0.681  -1.387  -1.724  0.00  0.00    -0.244 OA
ENDROOT
BRANCH   1   3
ATOM      3  C   LIG    1        1.605  -0.869  -1.539  0.00  0.00    +0.102 A 
ATOM      4  C   LIG    1        2.638  -0.409  -0.742  0.00  0.00    +0.146 A 
ATOM      5  C   LIG    1        3.882  -0.336  -1.296  0.00  0.00    +0.047 A 
ATOM      6  C   LIG    1        4.106  -0.709  -2.616  0.00  0.00    +0.004 A 
ATOM      7  C   LIG    1        3.085  -1.169  -3.422  0.00  0.00    +0.001 A 
ATOM      8  C   LIG    1        1.827  -1.245  -2.864  0.00  0.00    +0.019 A 
BRANCH   4   9
ATOM      9  O   LIG    1        2.316  -0.064   0.553  0.00  0.00    -0.425 OA
BRANCH   9  10
ATOM     10  C   LIG    1        1.928   1.216   0.930  0.00  0.00    +0.309 C 
ATOM     11  C   LIG    1        1.588   1.550   2.344  0.00  0.00    +0.136 C 
ATOM     12  O   LIG    1        1.885   2.059   0.009  0.00  0.00    -0.251 OA
ENDBRANCH   9  10
ENDBRANCH   4   9
ENDBRANCH   1   3
BRANCH   1  13
ATOM     13  O   LIG    1       -0.044  -0.614   0.314  0.00  0.00    -0.419 OA
BRANCH  13  14
ATOM     14  C   LIG    1       -1.352  -0.725   0.793  0.00  0.00    +0.173 A 
ATOM     15  C   LIG    1       -1.759  -1.900   1.381  0.00  0.00    +0.050 A 
ATOM     16  C   LIG    1       -3.048  -2.048   1.868  0.00  0.00    +0.004 A 
ATOM     17  C   LIG    1       -3.947  -1.012   1.770  0.00  0.00    +0.004 A 
ATOM     18  C   LIG    1       -3.563   0.176   1.185  0.00  0.00    +0.049 A 
ATOM     19  C   LIG    1       -2.269   0.301   0.705  0.00  0.00    +0.162 A 
BRANCH  19  20
ATOM     20  O   LIG    1       -1.888   1.495   0.119  0.00  0.00    -0.491 OA
ATOM     21  C   LIG    1       -2.730   2.598  -0.024  0.00  0.00    +0.277 C 
ENDBRANCH  19  20
ENDBRANCH  13  14
ENDBRANCH   1  13
TORSDOF 6
