REMARK  Name = molecules/HSMNQINEKMPTIC-UHFFFAOYSA-N.pdb
REMARK                            x       y       z     vdW  Elec       q    Type
REMARK                         _______ _______ _______ _____ _____    ______ ____
ROOT
ATOM      1  C   LIG    1       -0.842   0.740  -0.349  0.00  0.00    +0.245 C 
ATOM      2  N   LIG    1       -1.833  -0.108   0.209  0.00  0.00    -0.301 N 
ATOM      3  H   LIG    1       -1.552  -1.006   0.642  0.00  0.00    +0.150 HD
ATOM      4  O   LIG    1       -1.227   1.834  -0.871  0.00  0.00    -0.270 OA
ENDROOT
BRANCH   1   5
ATOM      5  C   LIG    1        0.569   0.419  -0.350  0.00  0.00    +0.037 A 
ATOM      6  C   LIG    1        1.085  -0.739   0.190  0.00  0.00    +0.015 A 
ATOM      7  C   LIG    1        2.441  -1.036   0.184  0.00  0.00    +0.023 A 
ATOM      8  C   LIG    1        3.344  -0.144  -0.386  0.00  0.00    +0.025 A 
ATOM      9  C   LIG    1        2.827   1.026  -0.933  0.00  0.00    +0.023 A 
ATOM     10  C   LIG    1        1.482   1.294  -0.912  0.00  0.00    +0.015 A 
BRANCH   8  11
ATOM     11  N   LIG    1        4.731  -0.404  -0.416  0.00  0.00    -0.358 N 
ATOM     12  H   LIG    1        5.399   0.359  -0.244  0.00  0.00    +0.142 HD
ATOM     13  H   LIG    1        5.064  -1.357  -0.610  0.00  0.00    +0.142 HD
ENDBRANCH   8  11
ENDBRANCH   1   5
BRANCH   2  14
ATOM     14  C   LIG    1       -3.220   0.236   0.195  0.00  0.00    +0.225 C 
BRANCH  14  15
ATOM     15  C   LIG    1       -4.085  -0.773   0.822  0.00  0.00    +0.322 C 
ATOM     16  O   LIG    1       -3.587  -1.812   1.302  0.00  0.00    -0.249 OA
BRANCH  15  17
ATOM     17  O   LIG    1       -5.443  -0.588   0.887  0.00  0.00    -0.480 OA
ATOM     18  H   LIG    1       -5.975  -0.014   0.232  0.00  0.00    +0.295 HD
ENDBRANCH  15  17
ENDBRANCH  14  15
ENDBRANCH   2  14
TORSDOF 5
