REMARK  Name = molecules/HSMPDPBYAYSOBC-UHFFFAOYSA-N.pdb
REMARK                            x       y       z     vdW  Elec       q    Type
REMARK                         _______ _______ _______ _____ _____    ______ ____
ROOT
ATOM      1  C   LIG    1       -0.995   1.116   0.702  0.00  0.00    +0.145 A 
ATOM      2  C   LIG    1       -1.766   0.079   1.194  0.00  0.00    +0.066 A 
ATOM      3  C   LIG    1       -3.013  -0.045   1.762  0.00  0.00    +0.053 A 
ATOM      4  C   LIG    1       -3.235  -1.371   2.054  0.00  0.00    +0.196 A 
ATOM      5  O   LIG    1       -2.170  -2.024   1.679  0.00  0.00    -0.459 OA
ATOM      6  C   LIG    1       -1.262  -1.203   1.159  0.00  0.00    +0.183 A 
ATOM      7  C   LIG    1        0.000  -1.424   0.634  0.00  0.00    +0.206 A 
ATOM      8  C   LIG    1        0.772  -0.396   0.143  0.00  0.00    +0.187 A 
ATOM      9  O   LIG    1        1.986  -0.637  -0.357  0.00  0.00    -0.456 OA
ATOM     10  C   LIG    1        2.761   0.296  -0.836  0.00  0.00    +0.106 A 
ATOM     11  C   LIG    1        2.328   1.602  -0.835  0.00  0.00    +0.093 A 
ATOM     12  C   LIG    1        1.062   1.899  -0.320  0.00  0.00    +0.196 A 
ATOM     13  O   LIG    1        0.628   3.068  -0.299  0.00  0.00    -0.287 OA
ATOM     14  C   LIG    1        4.114  -0.006  -1.388  0.00  0.00    +0.086 C 
ATOM     15  C   LIG    1        0.269   0.887   0.178  0.00  0.00    +0.110 A 
ENDROOT
BRANCH   1  16
ATOM     16  O   LIG    1       -1.499   2.386   0.739  0.00  0.00    -0.494 OA
ATOM     17  C   LIG    1       -2.262   2.903  -0.359  0.00  0.00    +0.277 C 
ENDBRANCH   1  16
BRANCH   7  18
ATOM     18  O   LIG    1        0.503  -2.727   0.603  0.00  0.00    -0.488 OA
ATOM     19  C   LIG    1        0.221  -3.481  -0.563  0.00  0.00    +0.277 C 
ENDBRANCH   7  18
TORSDOF 2
