REMARK  Name = molecules/HSPYGHDTVQJUDE-LURJTMIESA-N.pdb
REMARK                            x       y       z     vdW  Elec       q    Type
REMARK                         _______ _______ _______ _____ _____    ______ ____
ROOT
ATOM      1  C   UNK A  1       -0.620   0.743  -0.337  0.00  0.00    +0.192 C 
ENDROOT
BRANCH   1   2
ATOM      2  N   UNK A  1       -1.648  -0.220  -0.011  0.00  0.00    -0.302 N 
ATOM      3  C   UNK A  0       -2.560   0.063   1.022  0.00  0.00    +0.211 C 
ATOM      4  O   UNK A  0       -2.481   1.136   1.651  0.00  0.00    -0.276 OA
ATOM      5  C   UNK A  0       -3.607  -0.926   1.349  0.00  0.00    +0.109 C 
ATOM      6  H   UNK A  1       -1.682  -1.100  -0.555  0.00  0.00    +0.150 HD
ENDBRANCH   1   2
BRANCH   1   7
ATOM      7  C   UNK A  1       -0.689   1.092  -1.766  0.00  0.00    +0.326 C 
ATOM      8  O   UNK A  1       -1.569   0.563  -2.522  0.00  0.00    -0.249 OA
BRANCH   7   9
ATOM      9  O   UNK A  1        0.169   1.988  -2.357  0.00  0.00    -0.479 OA
ATOM     10  H   UNK A  1        0.204   2.970  -2.179  0.00  0.00    +0.295 HD
ENDBRANCH   7   9
ENDBRANCH   1   7
BRANCH   1  11
ATOM     11  C   UNK A  1        0.715   0.066  -0.088  0.00  0.00    +0.111 C 
BRANCH  11  12
ATOM     12  S   UNK A  1        2.104   1.136  -0.499  0.00  0.00    -0.086 S 
BRANCH  12  13
ATOM     13  C   UNK A  1        3.606   0.261  -0.176  0.00  0.00    +0.186 C 
ATOM     14  C   UNK A  1        3.562  -1.114   0.342  0.00  0.00    +0.099 C 
ATOM     15  O   UNK A  1        4.667   0.795  -0.383  0.00  0.00    -0.286 OA
ENDBRANCH  12  13
ENDBRANCH  11  12
ENDBRANCH   1  11
TORSDOF 6
