REMARK  Name = molecules/HTIKWNNIPGXLGM-YLINKJIISA-N.pdb
REMARK                            x       y       z     vdW  Elec       q    Type
REMARK                         _______ _______ _______ _____ _____    ______ ____
ROOT
ATOM      1  C   LIG    1       -3.347  -0.106   1.014  0.00  0.00    -0.023 C 
ATOM      2  C   LIG    1       -2.093  -0.928   1.372  0.00  0.00    -0.007 C 
ATOM      3  C   LIG    1       -1.074   0.121   0.954  0.00  0.00    +0.000 C 
ATOM      4  C   LIG    1        0.344  -0.268   1.036  0.00  0.00    -0.004 C 
ATOM      5  C   LIG    1        0.792  -0.237   2.462  0.00  0.00    +0.004 C 
ATOM      6  C   LIG    1        2.235  -0.101   2.732  0.00  0.00    +0.004 C 
ATOM      7  C   LIG    1        3.059   0.590   1.714  0.00  0.00    -0.001 C 
ATOM      8  C   LIG    1        4.504   0.214   1.744  0.00  0.00    +0.050 C 
ATOM      9  C   LIG    1        5.316   1.005   0.748  0.00  0.00    +0.194 C 
ATOM     10  C   LIG    1        4.855   0.871  -0.659  0.00  0.00    +0.098 C 
ATOM     11  C   LIG    1        3.348   1.048  -0.706  0.00  0.00    +0.029 C 
ATOM     12  C   LIG    1        2.581   0.268   0.289  0.00  0.00    -0.024 C 
ATOM     13  C   LIG    1        2.642  -1.218   0.159  0.00  0.00    +0.012 C 
ATOM     14  C   LIG    1        1.144   0.777   0.287  0.00  0.00    -0.001 C 
ATOM     15  C   LIG    1        0.641   1.130  -1.057  0.00  0.00    +0.005 C 
ATOM     16  C   LIG    1       -0.801   1.633  -0.889  0.00  0.00    +0.011 C 
ATOM     17  C   LIG    1       -1.568   0.407  -0.443  0.00  0.00    +0.007 C 
ATOM     18  C   LIG    1       -1.331  -0.660  -1.437  0.00  0.00    +0.015 C 
ATOM     19  C   LIG    1       -3.038   0.690  -0.158  0.00  0.00    +0.170 C 
ENDROOT
BRANCH   1  20
ATOM     20  N   LIG    1       -4.570  -0.842   1.131  0.00  0.00    +0.387 N 
ATOM     21  C   LIG    1       -5.608   0.119   1.411  0.00  0.00    -0.074 C 
ATOM     22  C   LIG    1       -6.739   0.162   0.457  0.00  0.00    -0.018 C 
ATOM     23  C   LIG    1       -7.304  -1.186   0.218  0.00  0.00    -0.004 C 
ATOM     24  C   LIG    1       -6.251  -2.166  -0.127  0.00  0.00    -0.018 C 
ATOM     25  C   LIG    1       -4.850  -1.813   0.160  0.00  0.00    -0.074 C 
BRANCH  20  26
ATOM     26  C   LIG    1       -4.351  -1.562   2.414  0.00  0.00    -0.047 C 
BRANCH  26  27
ATOM     27  C   LIG    1       -5.486  -2.420   2.783  0.00  0.00    -0.053 C 
ATOM     28  C   LIG    1       -5.413  -3.723   2.954  0.00  0.00    +0.002 C 
ENDBRANCH  26  27
ENDBRANCH  20  26
ENDBRANCH   1  20
BRANCH  10  29
ATOM     29  N   LIG    1        5.276  -0.352  -1.281  0.00  0.00    -0.296 NA
ATOM     30  C   LIG    1        6.721  -0.459  -1.326  0.00  0.00    +0.085 C 
ATOM     31  C   LIG    1        7.027  -1.945  -1.231  0.00  0.00    +0.015 C 
ATOM     32  C   LIG    1        5.968  -2.621  -2.106  0.00  0.00    +0.002 C 
ATOM     33  C   LIG    1        5.555  -1.675  -3.240  0.00  0.00    +0.015 C 
ATOM     34  C   LIG    1        4.884  -0.415  -2.685  0.00  0.00    +0.085 C 
ENDBRANCH  10  29
BRANCH   9  35
ATOM     35  O   LIG    1        5.180   2.391   1.110  0.00  0.00    -0.460 OA
BRANCH  35  36
ATOM     36  C   LIG    1        6.256   3.103   1.582  0.00  0.00    +0.304 C 
ATOM     37  C   LIG    1        6.153   4.541   1.968  0.00  0.00    +0.136 C 
ATOM     38  O   LIG    1        7.397   2.551   1.709  0.00  0.00    -0.251 OA
ENDBRANCH  35  36
ENDBRANCH   9  35
BRANCH  19  39
ATOM     39  O   LIG    1       -3.748   0.557  -1.331  0.00  0.00    -0.462 OA
BRANCH  39  40
ATOM     40  C   LIG    1       -4.303   1.619  -2.055  0.00  0.00    +0.307 C 
ATOM     41  O   LIG    1       -4.108   2.764  -1.549  0.00  0.00    -0.251 OA
BRANCH  40  42
ATOM     42  C   LIG    1       -5.059   1.441  -3.311  0.00  0.00    +0.117 C 
ATOM     43  C   LIG    1       -5.498   2.808  -3.788  0.00  0.00    +0.015 C 
ENDBRANCH  40  42
ENDBRANCH  39  40
ENDBRANCH  19  39
TORSDOF 9
