REMARK  Name = molecules/HTMIBDQKFHUPSX-AWEZNQCLSA-N.pdb
REMARK                            x       y       z     vdW  Elec       q    Type
REMARK                         _______ _______ _______ _____ _____    ______ ____
ROOT
ATOM      1  N   LIG    1       -1.114  -0.231  -0.383  0.00  0.00    -0.298 N 
ATOM      2  C   LIG    1       -1.603  -1.257   0.501  0.00  0.00    +0.048 A 
ATOM      3  C   LIG    1       -2.793  -1.186   1.181  0.00  0.00    +0.034 A 
ATOM      4  C   LIG    1       -3.194  -2.204   2.005  0.00  0.00    +0.017 A 
ATOM      5  C   LIG    1       -2.431  -3.344   2.193  0.00  0.00    +0.001 A 
ATOM      6  C   LIG    1       -1.248  -3.438   1.531  0.00  0.00    +0.002 A 
ATOM      7  S   LIG    1       -3.860   0.203   1.052  0.00  0.00    -0.086 S 
ATOM      8  C   LIG    1       -3.051   1.319  -0.093  0.00  0.00    +0.034 C 
ATOM      9  C   LIG    1       -3.727   2.504  -0.379  0.00  0.00    +0.013 C 
ATOM     10  C   LIG    1       -3.163   3.388  -1.250  0.00  0.00    -0.017 C 
ATOM     11  C   LIG    1       -1.951   3.101  -1.825  0.00  0.00    +0.047 C 
ATOM     12  C   LIG    1       -1.305   1.918  -1.521  0.00  0.00    +0.006 C 
ATOM     13  C   LIG    1       -0.844  -2.401   0.695  0.00  0.00    +0.024 A 
ATOM     14  C   LIG    1       -1.840   0.974  -0.632  0.00  0.00    +0.044 C 
ENDROOT
BRANCH   1  15
ATOM     15  C   LIG    1        0.162  -0.396  -1.016  0.00  0.00    +0.116 C 
BRANCH  15  20
ATOM     16  C   LIG    1        4.891   0.220  -0.568  0.00  0.00    +0.104 C 
ATOM     17  N   LIG    1        3.541   0.604  -0.335  0.00  0.00    -0.305 NA
ATOM     18  C   LIG    1        3.091   0.500   1.010  0.00  0.00    +0.084 C 
ATOM     19  C   LIG    1        1.612   0.078   0.979  0.00  0.00    +0.021 C 
ATOM     20  C   LIG    1        1.290   0.374  -0.472  0.00  0.00    +0.022 C 
ATOM     21  C   LIG    1        2.587  -0.189  -1.087  0.00  0.00    +0.089 C 
ENDBRANCH  15  20
ENDBRANCH   1  15
TORSDOF 2
