REMARK  Name = molecules/HTYIXCKSEQQCJO-NSHDSACASA-N.pdb
REMARK                            x       y       z     vdW  Elec       q    Type
REMARK                         _______ _______ _______ _____ _____    ______ ____
ROOT
ATOM      1  C   LIG    1       -0.522  -0.486  -0.632  0.00  0.00    +0.116 C 
ATOM      2  C   LIG    1       -0.770  -1.905  -0.875  0.00  0.00    +0.049 C 
ENDROOT
BRANCH   1   3
ATOM      3  C   LIG    1        0.860  -0.219  -0.166  0.00  0.00    -0.014 A 
ATOM      4  C   LIG    1        1.242  -0.434   1.143  0.00  0.00    +0.008 A 
ATOM      5  C   LIG    1        2.536  -0.126   1.503  0.00  0.00    +0.020 A 
ATOM      6  C   LIG    1        3.479   0.395   0.603  0.00  0.00    +0.041 A 
ATOM      7 CL   LIG    1        5.122   0.797   1.143  0.00  0.00    -0.084 Cl
ATOM      8  C   LIG    1        3.082   0.598  -0.679  0.00  0.00    +0.020 A 
ATOM      9  C   LIG    1        1.793   0.294  -1.051  0.00  0.00    +0.008 A 
ENDBRANCH   1   3
BRANCH   1  10
ATOM     10  C   LIG    1       -1.571   0.081   0.314  0.00  0.00    +0.093 C 
ATOM     11  C   LIG    1       -1.056   1.439   0.854  0.00  0.00    +0.044 C 
ATOM     12  C   LIG    1       -2.825   0.369  -0.457  0.00  0.00    +0.044 C 
BRANCH  10  13
ATOM     13  O   LIG    1       -1.775  -0.667   1.430  0.00  0.00    -0.386 OA
ATOM     14  H   LIG    1       -1.734  -0.196   2.297  0.00  0.00    +0.210 HD
ENDBRANCH  10  13
ENDBRANCH   1  10
BRANCH   1  15
ATOM     15  O   LIG    1       -0.611   0.240  -1.856  0.00  0.00    -0.381 OA
ATOM     16  H   LIG    1       -0.938  -0.372  -2.568  0.00  0.00    +0.211 HD
ENDBRANCH   1  15
TORSDOF 4
