REMARK  Name = molecules/HUCXKZBETONXFO-AJDZVAQLSA-N.pdb
REMARK                            x       y       z     vdW  Elec       q    Type
REMARK                         _______ _______ _______ _____ _____    ______ ____
ROOT
ATOM      1  C   LIG    1       -0.602  -0.338   0.313  0.00  0.00    -0.076 C 
ATOM      2  C   LIG    1       -0.673  -1.683   0.943  0.00  0.00    +0.039 C 
ATOM      3  C   LIG    1       -1.718   0.390   0.320  0.00  0.00    -0.028 C 
ENDROOT
BRANCH   1   4
ATOM      4  C   LIG    1        0.651   0.185  -0.301  0.00  0.00    +0.034 C 
BRANCH   4   5
ATOM      5  C   LIG    1        1.792   0.269   0.722  0.00  0.00    +0.031 C 
BRANCH   5   8
ATOM      6  C   LIG    1        4.059   0.071  -0.090  0.00  0.00    -0.076 C 
ATOM      7  C   LIG    1        4.102  -1.254   0.564  0.00  0.00    +0.039 C 
ATOM      8  C   LIG    1        2.963   0.798  -0.016  0.00  0.00    -0.028 C 
BRANCH   6   9
ATOM      9  C   LIG    1        5.232   0.583  -0.821  0.00  0.00    +0.034 C 
BRANCH   9  10
ATOM     10  C   LIG    1        6.400   0.678   0.138  0.00  0.00    +0.031 C 
BRANCH  10  13
ATOM     11  C   LIG    1        8.640   0.462  -0.752  0.00  0.00    -0.080 C 
ATOM     12  C   LIG    1        8.707  -0.849  -0.093  0.00  0.00    +0.038 C 
ATOM     13  C   LIG    1        7.546   1.197  -0.649  0.00  0.00    -0.028 C 
ATOM     14  C   LIG    1        9.835   0.917  -1.528  0.00  0.00    +0.038 C 
ENDBRANCH  10  13
ENDBRANCH   9  10
ENDBRANCH   6   9
ENDBRANCH   5   8
ENDBRANCH   4   5
ENDBRANCH   1   4
BRANCH   3  15
ATOM     15  C   LIG    1       -2.999  -0.102   0.928  0.00  0.00    +0.031 C 
BRANCH  15  16
ATOM     16  C   LIG    1       -4.078  -0.144  -0.141  0.00  0.00    +0.034 C 
BRANCH  16  17
ATOM     17  C   LIG    1       -5.366  -0.622   0.388  0.00  0.00    -0.076 C 
ATOM     18  C   LIG    1       -5.439  -2.014   0.991  0.00  0.00    +0.039 C 
ATOM     19  C   LIG    1       -6.448   0.088   0.365  0.00  0.00    -0.027 C 
BRANCH  19  20
ATOM     20  C   LIG    1       -6.597   1.444  -0.167  0.00  0.00    +0.034 C 
BRANCH  20  21
ATOM     21  C   LIG    1       -7.587   1.529  -1.300  0.00  0.00    +0.078 C 
BRANCH  21  22
ATOM     22  C   LIG    1       -8.948   1.151  -0.929  0.00  0.00    +0.131 C 
ATOM     23  C   LIG    1       -9.423   1.061   0.462  0.00  0.00    +0.086 C 
ATOM     24  O   LIG    1       -9.775   0.889  -1.817  0.00  0.00    -0.298 OA
ENDBRANCH  21  22
ENDBRANCH  20  21
ENDBRANCH  19  20
ENDBRANCH  16  17
ENDBRANCH  15  16
ENDBRANCH   3  15
TORSDOF 12
