REMARK  Name = molecules/HUNIPYLVUPMFCZ-UHFFFAOYSA-N.pdb
REMARK                            x       y       z     vdW  Elec       q    Type
REMARK                         _______ _______ _______ _____ _____    ______ ____
ROOT
ATOM      1  C   LIG    1        0.044  -0.710   0.601  0.00  0.00    +0.251 C 
ATOM      2  O   LIG    1       -0.249   0.349   1.186  0.00  0.00    -0.272 OA
ATOM      3  N   LIG    1       -0.934  -1.675   0.318  0.00  0.00    -0.311 N 
ATOM      4  H   LIG    1       -0.624  -2.562  -0.176  0.00  0.00    +0.149 HD
ENDROOT
BRANCH   1   5
ATOM      5  C   LIG    1        1.447  -0.932   0.206  0.00  0.00    +0.324 C 
BRANCH   5   6
ATOM      6  O   LIG    1        2.264   0.159   0.575  0.00  0.00    -0.483 OA
BRANCH   6   7
ATOM      7  C   LIG    1        3.623   0.081   0.260  0.00  0.00    +0.121 A 
ATOM      8  C   LIG    1        4.494   1.100   0.586  0.00  0.00    +0.049 A 
ATOM      9  C   LIG    1        5.838   1.046   0.286  0.00  0.00    +0.049 A 
ATOM     10  C   LIG    1        6.363  -0.060  -0.367  0.00  0.00    +0.120 A 
ATOM     11  C   LIG    1        5.497  -1.085  -0.697  0.00  0.00    +0.049 A 
ATOM     12  C   LIG    1        4.151  -1.017  -0.390  0.00  0.00    +0.049 A 
BRANCH  10  13
ATOM     13  O   LIG    1        7.718  -0.117  -0.672  0.00  0.00    -0.495 OA
ATOM     14  C   LIG    1        8.609   0.909  -0.346  0.00  0.00    +0.277 C 
ENDBRANCH  10  13
ENDBRANCH   6   7
ENDBRANCH   5   6
ENDBRANCH   1   5
BRANCH   3  15
ATOM     15  C   LIG    1       -2.309  -1.446   0.699  0.00  0.00    +0.119 C 
BRANCH  15  16
ATOM     16  C   LIG    1       -2.834  -0.250   0.002  0.00  0.00    +0.103 C 
BRANCH  16  17
ATOM     17  N   LIG    1       -4.234   0.085   0.356  0.00  0.00    -0.301 NA
BRANCH  17  18
ATOM     18  C   LIG    1       -5.094  -0.957  -0.176  0.00  0.00    +0.081 C 
ATOM     19  C   LIG    1       -6.540  -0.803   0.153  0.00  0.00    +0.020 C 
ENDBRANCH  17  18
BRANCH  17  20
ATOM     20  C   LIG    1       -4.437   1.359  -0.359  0.00  0.00    +0.081 C 
ATOM     21  C   LIG    1       -5.738   2.017  -0.087  0.00  0.00    +0.020 C 
ENDBRANCH  17  20
ENDBRANCH  16  17
ENDBRANCH  15  16
ENDBRANCH   3  15
TORSDOF 9
