REMARK  Name = molecules/HUNXMJYCHXQEGX-UHFFFAOYSA-N.pdb
REMARK                            x       y       z     vdW  Elec       q    Type
REMARK                         _______ _______ _______ _____ _____    ______ ____
ROOT
ATOM      1  C   LIG    1       -0.188  -0.175   0.074  0.00  0.00    +0.033 A 
ATOM      2  C   LIG    1       -1.474  -0.243  -0.419  0.00  0.00    +0.037 A 
ATOM      3  C   LIG    1       -1.660  -1.052  -1.534  0.00  0.00    +0.023 A 
ATOM      4  C   LIG    1       -0.616  -1.744  -2.107  0.00  0.00    +0.002 A 
ATOM      5  C   LIG    1        0.654  -1.648  -1.581  0.00  0.00    +0.010 A 
ATOM      6  C   LIG    1        0.879  -0.847  -0.465  0.00  0.00    +0.002 A 
ENDROOT
BRANCH   6   7
ATOM      7  C   LIG    1        2.230  -0.761   0.071  0.00  0.00    +0.076 A 
ATOM      8  C   LIG    1        2.648  -1.649   1.040  0.00  0.00    +0.048 A 
ATOM      9  C   LIG    1        3.915  -1.612   1.580  0.00  0.00    +0.115 A 
ATOM     10  N   LIG    1        4.782  -0.679   1.153  0.00  0.00    -0.235 NA
ATOM     11  C   LIG    1        4.378   0.185   0.211  0.00  0.00    +0.174 A 
ATOM     12  C   LIG    1        5.013   1.248  -0.434  0.00  0.00    +0.115 A 
ATOM     13  C   LIG    1        4.122   1.807  -1.328  0.00  0.00    +0.156 A 
ATOM     14  N   LIG    1        2.997   1.111  -1.225  0.00  0.00    -0.172 NA
ATOM     15  N   LIG    1        3.127   0.158  -0.330  0.00  0.00    -0.213 N 
BRANCH  12  16
ATOM     16  C   LIG    1        6.373   1.699  -0.214  0.00  0.00    +0.104 C 
ATOM     17  N   LIG    1        7.456   2.071  -0.039  0.00  0.00    -0.191 NA
ENDBRANCH  12  16
ENDBRANCH   6   7
BRANCH   2  18
ATOM     18  N   LIG    1       -2.573   0.454   0.143  0.00  0.00    -0.272 N 
ATOM     19  C   LIG    1       -3.192   1.548  -0.509  0.00  0.00    +0.217 C 
ATOM     20  C   LIG    1       -4.341   2.285   0.069  0.00  0.00    +0.109 C 
ATOM     21  O   LIG    1       -2.769   1.935  -1.629  0.00  0.00    -0.276 OA
BRANCH  18  22
ATOM     22  C   LIG    1       -3.078   0.029   1.428  0.00  0.00    +0.110 C 
ATOM     23  C   LIG    1       -4.157  -1.014   1.318  0.00  0.00    +0.025 C 
ENDBRANCH  18  22
ENDBRANCH   2  18
TORSDOF 4
