REMARK  Name = molecules/HUYWAWARQUIQLE-MFKMUULPSA-N.pdb
REMARK                            x       y       z     vdW  Elec       q    Type
REMARK                         _______ _______ _______ _____ _____    ______ ____
ROOT
ATOM      1  C   LIG    1        0.158   0.564  -0.074  0.00  0.00    +0.161 C 
ENDROOT
BRANCH   1   2
ATOM      2  C   LIG    1        1.595   0.181  -0.022  0.00  0.00    -0.014 A 
ATOM      3  C   LIG    1        2.483   1.110   0.470  0.00  0.00    +0.055 A 
ATOM      4  C   LIG    1        3.852   0.832   0.543  0.00  0.00    +0.159 A 
ATOM      5  C   LIG    1        4.324  -0.404   0.112  0.00  0.00    +0.158 A 
ATOM      6  C   LIG    1        3.445  -1.317  -0.373  0.00  0.00    +0.049 A 
ATOM      7  C   LIG    1        2.098  -1.023  -0.437  0.00  0.00    +0.010 A 
BRANCH   4   8
ATOM      8  O   LIG    1        4.780   1.732   1.029  0.00  0.00    -0.503 OA
ATOM      9  H   LIG    1        4.559   2.652   1.368  0.00  0.00    +0.292 HD
ENDBRANCH   4   8
BRANCH   5  10
ATOM     10  O   LIG    1        5.685  -0.709   0.173  0.00  0.00    -0.503 OA
ATOM     11  H   LIG    1        6.298  -0.008   0.537  0.00  0.00    +0.292 HD
ENDBRANCH   5  10
ENDBRANCH   1   2
BRANCH   1  12
ATOM     12  O   LIG    1       -0.112   1.281   1.112  0.00  0.00    -0.386 OA
ATOM     13  H   LIG    1        0.090   2.249   0.981  0.00  0.00    +0.210 HD
ENDBRANCH   1  12
BRANCH   1  14
ATOM     14  C   LIG    1       -0.763  -0.591  -0.104  0.00  0.00    +0.087 C 
BRANCH  14  15
ATOM     15  C   LIG    1       -0.574  -1.456   1.154  0.00  0.00    +0.018 C 
ATOM     16  C   LIG    1       -1.524  -2.607   1.070  0.00  0.00    +0.005 C 
ENDBRANCH  14  15
BRANCH  14  17
ATOM     17  N   LIG    1       -2.121  -0.208  -0.089  0.00  0.00    -0.308 NA
ATOM     18  H   LIG    1       -2.762  -0.726   0.516  0.00  0.00    +0.123 HD
BRANCH  17  19
ATOM     19  C   LIG    1       -2.733   0.518  -1.100  0.00  0.00    +0.048 C 
ATOM     20  C   LIG    1       -4.239   0.581  -0.731  0.00  0.00    +0.023 C 
ATOM     21  C   LIG    1       -2.311   1.915  -1.383  0.00  0.00    +0.023 C 
ENDBRANCH  17  19
ENDBRANCH  14  17
ENDBRANCH   1  14
TORSDOF 8
