REMARK  Name = molecules/HVAKUYCEWDPRCA-UHFFFAOYSA-N.pdb
REMARK                            x       y       z     vdW  Elec       q    Type
REMARK                         _______ _______ _______ _____ _____    ______ ____
ROOT
ATOM      1  C   LIG    1        0.501   0.118   0.062  0.00  0.00    +0.190 C 
ATOM      2  O   LIG    1        0.051  -0.325   1.176  0.00  0.00    -0.287 OA
ENDROOT
BRANCH   1   3
ATOM      3  C   LIG    1        1.950   0.016  -0.049  0.00  0.00    +0.063 A 
ATOM      4  C   LIG    1        2.704  -0.501   1.025  0.00  0.00    +0.019 A 
ATOM      5  C   LIG    1        4.072  -0.618   0.991  0.00  0.00    +0.046 A 
ATOM      6  C   LIG    1        4.793  -0.231  -0.109  0.00  0.00    +0.124 A 
ATOM      7  C   LIG    1        4.091   0.274  -1.166  0.00  0.00    +0.092 A 
ATOM      8  C   LIG    1        2.681   0.395  -1.133  0.00  0.00    +0.134 A 
BRANCH   6   9
ATOM      9  O   LIG    1        6.186  -0.342  -0.163  0.00  0.00    -0.495 OA
ATOM     10  C   LIG    1        6.842  -0.875   0.972  0.00  0.00    +0.277 C 
ENDBRANCH   6   9
BRANCH   8  11
ATOM     11  O   LIG    1        2.074   0.914  -2.248  0.00  0.00    -0.494 OA
ATOM     12  C   LIG    1        2.728   1.332  -3.410  0.00  0.00    +0.277 C 
ENDBRANCH   8  11
ENDBRANCH   1   3
BRANCH   1  13
ATOM     13  C   LIG    1       -0.379   0.638  -0.910  0.00  0.00    +0.052 C 
ATOM     14  C   LIG    1       -1.644   0.761  -1.023  0.00  0.00    +0.012 C 
BRANCH  14  15
ATOM     15  C   LIG    1       -2.724   0.381  -0.153  0.00  0.00    -0.025 A 
ATOM     16  C   LIG    1       -2.763  -0.679   0.702  0.00  0.00    +0.011 A 
ATOM     17  C   LIG    1       -3.906  -1.045   1.443  0.00  0.00    +0.046 A 
ATOM     18  C   LIG    1       -5.072  -0.337   1.338  0.00  0.00    +0.120 A 
ATOM     19  C   LIG    1       -5.053   0.734   0.476  0.00  0.00    +0.046 A 
ATOM     20  C   LIG    1       -3.950   1.093  -0.241  0.00  0.00    +0.011 A 
BRANCH  18  21
ATOM     21  O   LIG    1       -6.202  -0.689   2.062  0.00  0.00    -0.495 OA
ATOM     22  C   LIG    1       -7.385   0.102   1.897  0.00  0.00    +0.277 C 
ENDBRANCH  18  21
ENDBRANCH  14  15
ENDBRANCH   1  13
TORSDOF 6
