REMARK  Name = molecules/HVFLCNVBZFFHBT-ZKDACBOMSA-N.pdb
REMARK                            x       y       z     vdW  Elec       q    Type
REMARK                         _______ _______ _______ _____ _____    ______ ____
ROOT
ATOM      1  CA  LIG    1        1.735   0.840   1.754  0.00  0.00    +0.191 C 
ATOM      2  C   LIG    1        0.936  -0.109   2.614  0.00  0.00    +0.244 C 
ATOM      3  O   LIG    1        1.185  -0.662   3.697  0.00  0.00    -0.273 OA
ATOM      4  N   LIG    1       -0.076   0.005   1.612  0.00  0.00    -0.249 N 
ATOM      5  CA  LIG    1       -1.088  -0.705   0.919  0.00  0.00    +0.125 C 
ATOM      6  C   LIG    1       -1.884  -0.085   0.081  0.00  0.00    -0.047 C 
ATOM      7  C   LIG    1       -1.796   1.368  -0.190  0.00  0.00    +0.102 C 
ATOM      8  S   LIG    1       -0.034   1.923  -0.166  0.00  0.00    -0.131 S 
ATOM      9  C   LIG    1        0.361   1.349   1.493  0.00  0.00    +0.169 C 
ENDROOT
BRANCH   1  10
ATOM     10  N   LIG    1        2.394   0.196   0.637  0.00  0.00    -0.296 N 
ATOM     11  C   LIG    1        3.723   0.499   0.342  0.00  0.00    +0.268 C 
ATOM     12  O   LIG    1        4.309   1.366   1.108  0.00  0.00    -0.268 OA
ATOM     13  H   LIG    1        1.838  -0.472   0.099  0.00  0.00    +0.150 HD
BRANCH  11  14
ATOM     14  C   LIG    1        4.563  -0.022  -0.715  0.00  0.00    +0.190 C 
ATOM     15  N   LIG    1        4.098  -0.876  -1.526  0.00  0.00    -0.078 NA
BRANCH  14  16
ATOM     16  C   LIG    1        5.983   0.442  -0.859  0.00  0.00    +0.107 A 
ATOM     17  N   LIG    1        6.489   1.315  -0.046  0.00  0.00    -0.223 NA
ATOM     18  C   LIG    1        7.741   1.706  -0.195  0.00  0.00    +0.156 A 
ATOM     19  S   LIG    1        8.253   0.806  -1.550  0.00  0.00    -0.060 S 
ATOM     20  C   LIG    1        6.801  -0.037  -1.854  0.00  0.00    +0.078 A 
BRANCH  18  21
ATOM     21  N   LIG    1        8.457   2.666   0.620  0.00  0.00    -0.338 N 
ATOM     22  H   LIG    1        8.549   2.516   1.640  0.00  0.00    +0.144 HD
ATOM     23  H   LIG    1        8.852   3.485   0.105  0.00  0.00    +0.144 HD
ENDBRANCH  18  21
ENDBRANCH  14  16
BRANCH  15  24
ATOM     24  O   LIG    1        2.857  -1.417  -1.565  0.00  0.00    -0.396 OA
ATOM     25  C   LIG    1        2.746  -2.835  -1.507  0.00  0.00    +0.313 C 
ENDBRANCH  15  24
ENDBRANCH  11  14
ENDBRANCH   1  10
BRANCH   5  26
ATOM     26  C   LIG    1       -1.262  -2.155   1.228  0.00  0.00    +0.401 C 
ATOM     27  OXT LIG    1       -0.429  -2.695   2.034  0.00  0.00    -0.239 OA
ATOM     28  O   LIG    1       -2.229  -2.978   0.742  0.00  0.00    -0.239 OA
ENDBRANCH   5  26
BRANCH   6  29
ATOM     29  C   LIG    1       -2.866  -0.783  -0.765  0.00  0.00    -0.041 C 
BRANCH  29  30
ATOM     30  N   LIG    1       -4.248  -0.515  -0.518  0.00  0.00    +0.381 N 
ATOM     31  C   LIG    1       -4.566   0.113   0.713  0.00  0.00    -0.075 C 
ATOM     32  C   LIG    1       -5.213   1.416   0.388  0.00  0.00    -0.020 C 
ATOM     33  C   LIG    1       -5.865   1.154  -0.955  0.00  0.00    -0.020 C 
ATOM     34  C   LIG    1       -4.991  -1.822  -0.510  0.00  0.00    -0.091 C 
ATOM     35  C   LIG    1       -4.864   0.212  -1.592  0.00  0.00    -0.075 C 
ENDBRANCH  29  30
ENDBRANCH   6  29
TORSDOF 8
