REMARK  Name = molecules/HVYGXNYMNHSBGD-UHFFFAOYSA-N.pdb
REMARK                            x       y       z     vdW  Elec       q    Type
REMARK                         _______ _______ _______ _____ _____    ______ ____
ROOT
ATOM      1  O   LIG    1       -0.210   1.263  -1.698  0.00  0.00    -0.272 OA
ATOM      2  C   LIG    1       -0.202   0.971  -0.464  0.00  0.00    +0.256 C 
ATOM      3  N   LIG    1        0.904   0.870   0.407  0.00  0.00    -0.222 N 
ATOM      4  C   LIG    1        0.470   0.644   1.711  0.00  0.00    +0.310 C 
ATOM      5  O   LIG    1        1.150   0.496   2.781  0.00  0.00    -0.252 OA
ATOM      6  N   LIG    1       -0.942   0.595   1.695  0.00  0.00    -0.278 N 
ATOM      7  H   LIG    1       -1.573   0.512   2.545  0.00  0.00    +0.152 HD
ATOM      8  C   LIG    1       -1.424   0.666   0.328  0.00  0.00    +0.164 C 
ENDROOT
BRANCH   8   9
ATOM      9  C   LIG    1       -2.440   1.735   0.175  0.00  0.00    -0.011 A 
ATOM     10  C   LIG    1       -2.817   2.472   1.262  0.00  0.00    +0.010 A 
ATOM     11  C   LIG    1       -3.771   3.497   1.164  0.00  0.00    +0.046 A 
ATOM     12  C   LIG    1       -4.359   3.793  -0.036  0.00  0.00    +0.120 A 
ATOM     13  C   LIG    1       -3.992   3.061  -1.143  0.00  0.00    +0.046 A 
ATOM     14  C   LIG    1       -3.038   2.042  -1.026  0.00  0.00    +0.010 A 
BRANCH  12  15
ATOM     15  O   LIG    1       -5.319   4.817  -0.158  0.00  0.00    -0.495 OA
ATOM     16  C   LIG    1       -5.720   5.585   0.951  0.00  0.00    +0.277 C 
ENDBRANCH  12  15
ENDBRANCH   8   9
BRANCH   8  17
ATOM     17  C   LIG    1       -1.902  -0.667  -0.054  0.00  0.00    -0.011 A 
ATOM     18  C   LIG    1       -2.367  -1.514   0.926  0.00  0.00    +0.010 A 
ATOM     19  C   LIG    1       -2.839  -2.782   0.661  0.00  0.00    +0.046 A 
ATOM     20  C   LIG    1       -2.852  -3.237  -0.636  0.00  0.00    +0.120 A 
ATOM     21  C   LIG    1       -2.396  -2.415  -1.620  0.00  0.00    +0.046 A 
ATOM     22  C   LIG    1       -1.918  -1.127  -1.346  0.00  0.00    +0.010 A 
BRANCH  20  23
ATOM     23  O   LIG    1       -3.334  -4.530  -0.897  0.00  0.00    -0.495 OA
ATOM     24  C   LIG    1       -3.793  -5.335   0.169  0.00  0.00    +0.277 C 
ENDBRANCH  20  23
ENDBRANCH   8  17
BRANCH   3  25
ATOM     25  C   LIG    1        2.288   0.985  -0.006  0.00  0.00    +0.133 C 
BRANCH  25  26
ATOM     26  C   LIG    1        2.870  -0.357  -0.385  0.00  0.00    +0.104 C 
BRANCH  26  27
ATOM     27  N   LIG    1        4.248  -0.256  -0.800  0.00  0.00    -0.301 NA
ATOM     28  C   LIG    1        5.165   0.096   0.240  0.00  0.00    +0.084 C 
ATOM     29  C   LIG    1        5.857  -1.179   0.739  0.00  0.00    +0.015 C 
ATOM     30  C   LIG    1        6.824  -1.618  -0.338  0.00  0.00    +0.002 C 
ATOM     31  C   LIG    1        6.210  -1.299  -1.682  0.00  0.00    +0.015 C 
ATOM     32  C   LIG    1        4.696  -1.375  -1.567  0.00  0.00    +0.084 C 
ENDBRANCH  26  27
ENDBRANCH  25  26
ENDBRANCH   3  25
TORSDOF 7
