REMARK  Name = molecules/HWHLPVGTWGOCJO-FQEVSTJZSA-N.pdb
REMARK                            x       y       z     vdW  Elec       q    Type
REMARK                         _______ _______ _______ _____ _____    ______ ____
ROOT
ATOM      1  C   LIG    1       -0.919   0.592  -1.102  0.00  0.00    +0.095 C 
ENDROOT
BRANCH   1   2
ATOM      2  C   LIG    1       -1.337   1.879  -0.415  0.00  0.00    -0.016 A 
ATOM      3  C   LIG    1       -0.638   2.524   0.533  0.00  0.00    +0.006 A 
ATOM      4  C   LIG    1       -1.087   3.699   1.108  0.00  0.00    +0.000 A 
ATOM      5  C   LIG    1       -2.276   4.216   0.696  0.00  0.00    +0.000 A 
ATOM      6  C   LIG    1       -3.039   3.612  -0.266  0.00  0.00    +0.000 A 
ATOM      7  C   LIG    1       -2.553   2.441  -0.814  0.00  0.00    +0.006 A 
ENDBRANCH   1   2
BRANCH   1   8
ATOM      8  C   LIG    1       -1.991  -0.392  -0.883  0.00  0.00    +0.025 C 
ATOM      9  C   LIG    1       -2.270  -0.683   0.594  0.00  0.00    +0.007 C 
ATOM     10  C   LIG    1       -3.593  -1.465   0.572  0.00  0.00    +0.000 C 
ATOM     11  C   LIG    1       -3.250  -2.859   0.086  0.00  0.00    +0.000 C 
ATOM     12  C   LIG    1       -2.093  -2.879  -0.862  0.00  0.00    +0.000 C 
ATOM     13  C   LIG    1       -1.997  -1.621  -1.727  0.00  0.00    +0.007 C 
ENDBRANCH   1   8
BRANCH   1  14
ATOM     14  O   LIG    1       -1.039   1.027  -2.464  0.00  0.00    -0.384 OA
ATOM     15  H   LIG    1       -1.866   0.731  -2.868  0.00  0.00    +0.211 HD
ENDBRANCH   1  14
BRANCH   1  16
ATOM     16  C   LIG    1        0.464   0.198  -0.938  0.00  0.00    +0.055 C 
BRANCH  16  17
ATOM     17  C   LIG    1        1.040  -0.384   0.262  0.00  0.00    +0.087 C 
BRANCH  17  18
ATOM     18  N   LIG    1        2.488  -0.578  -0.047  0.00  0.00    -0.302 NA
ATOM     19  C   LIG    1        3.057  -1.231   1.135  0.00  0.00    +0.084 C 
ATOM     20  C   LIG    1        4.392  -1.817   0.663  0.00  0.00    +0.015 C 
ATOM     21  C   LIG    1        5.208  -0.678   0.121  0.00  0.00    +0.002 C 
ATOM     22  C   LIG    1        4.545   0.654   0.391  0.00  0.00    +0.015 C 
ATOM     23  C   LIG    1        3.131   0.732  -0.101  0.00  0.00    +0.084 C 
ENDBRANCH  17  18
ENDBRANCH  16  17
ENDBRANCH   1  16
TORSDOF 6
