REMARK  Name = molecules/HXGBXQDTNZMWGS-RUZDIDTESA-N.pdb
REMARK                            x       y       z     vdW  Elec       q    Type
REMARK                         _______ _______ _______ _____ _____    ______ ____
ROOT
ATOM      1  C   LIG    1       -2.454   0.087   0.027  0.00  0.00    +0.100 C 
ENDROOT
BRANCH   1   2
ATOM      2  C   LIG    1       -3.622   0.419   0.870  0.00  0.00    -0.028 A 
ATOM      3  C   LIG    1       -3.680  -0.035   2.157  0.00  0.00    +0.005 A 
ATOM      4  C   LIG    1       -4.738   0.233   3.005  0.00  0.00    +0.000 A 
ATOM      5  C   LIG    1       -5.786   0.997   2.527  0.00  0.00    +0.000 A 
ATOM      6  C   LIG    1       -5.762   1.472   1.235  0.00  0.00    +0.000 A 
ATOM      7  C   LIG    1       -4.670   1.177   0.409  0.00  0.00    +0.005 A 
ENDBRANCH   1   2
BRANCH   1   8
ATOM      8  C   LIG    1       -2.835  -1.133  -0.737  0.00  0.00    -0.028 A 
ATOM      9  C   LIG    1       -2.316  -2.349  -0.382  0.00  0.00    +0.005 A 
ATOM     10  C   LIG    1       -2.664  -3.515  -1.079  0.00  0.00    +0.000 A 
ATOM     11  C   LIG    1       -3.537  -3.460  -2.140  0.00  0.00    +0.000 A 
ATOM     12  C   LIG    1       -4.066  -2.244  -2.507  0.00  0.00    +0.000 A 
ATOM     13  C   LIG    1       -3.709  -1.119  -1.806  0.00  0.00    +0.005 A 
ENDBRANCH   1   8
BRANCH   1  17
ATOM     14  N   LIG    1       -2.166   2.567  -0.610  0.00  0.00    -0.328 N 
ATOM     15  H   LIG    1       -2.878   3.044  -0.009  0.00  0.00    +0.145 HD
ATOM     16  H   LIG    1       -1.374   3.157  -0.944  0.00  0.00    +0.145 HD
ATOM     17  C   LIG    1       -2.250   1.202  -0.967  0.00  0.00    +0.226 C 
ATOM     18  O   LIG    1       -2.147   0.930  -2.188  0.00  0.00    -0.275 OA
ENDBRANCH   1  17
BRANCH   1  19
ATOM     19  C   LIG    1       -1.194  -0.081   0.790  0.00  0.00    +0.028 C 
ATOM     20  C   LIG    1       -0.746   1.118   1.582  0.00  0.00    +0.022 C 
ATOM     21  C   LIG    1        0.687   0.687   1.896  0.00  0.00    +0.085 C 
ATOM     22  N   LIG    1        1.163   0.308   0.571  0.00  0.00    -0.302 NA
ATOM     23  C   LIG    1        0.022  -0.261  -0.134  0.00  0.00    +0.089 C 
BRANCH  22  24
ATOM     24  C   LIG    1        1.591   1.486  -0.171  0.00  0.00    +0.089 C 
BRANCH  24  25
ATOM     25  C   LIG    1        2.260   1.034  -1.444  0.00  0.00    +0.050 C 
BRANCH  25  26
ATOM     26  C   LIG    1        3.458   0.230  -1.022  0.00  0.00    -0.046 A 
ATOM     27  C   LIG    1        4.633   0.935  -0.805  0.00  0.00    +0.011 A 
ATOM     28  C   LIG    1        5.768   0.235  -0.401  0.00  0.00    -0.002 A 
ATOM     29  C   LIG    1        7.131   0.719  -0.100  0.00  0.00    +0.080 C 
ATOM     30  C   LIG    1        7.909  -0.552   0.142  0.00  0.00    +0.234 C 
ATOM     31  O   LIG    1        6.970  -1.585   0.177  0.00  0.00    -0.491 OA
ATOM     32  C   LIG    1        5.706  -1.121  -0.229  0.00  0.00    +0.124 A 
ATOM     33  C   LIG    1        4.521  -1.791  -0.455  0.00  0.00    +0.046 A 
ATOM     34  C   LIG    1        3.371  -1.111  -0.859  0.00  0.00    +0.007 A 
ENDBRANCH  25  26
ENDBRANCH  24  25
ENDBRANCH  22  24
ENDBRANCH   1  19
TORSDOF 7
