REMARK  Name = molecules/HXHWSAZORRCQMX-UHFFFAOYSA-N.pdb
REMARK                            x       y       z     vdW  Elec       q    Type
REMARK                         _______ _______ _______ _____ _____    ______ ____
ROOT
ATOM      1  C   LIG    1        2.305  -1.135   0.076  0.00  0.00    +0.203 A 
ATOM      2  N   LIG    1        1.574  -2.275   0.184  0.00  0.00    -0.214 NA
ATOM      3  C   LIG    1        0.299  -2.047  -0.124  0.00  0.00    +0.091 A 
ATOM      4  C   LIG    1       -0.790  -2.896  -0.153  0.00  0.00    +0.031 A 
ATOM      5  C   LIG    1       -2.022  -2.400  -0.511  0.00  0.00    +0.017 A 
ATOM      6  C   LIG    1       -2.154  -1.059  -0.838  0.00  0.00    +0.010 A 
ATOM      7  C   LIG    1       -1.042  -0.235  -0.800  0.00  0.00    +0.042 A 
ATOM      8  C   LIG    1        0.201  -0.709  -0.444  0.00  0.00    +0.068 A 
ATOM      9  N   LIG    1        1.446  -0.203  -0.306  0.00  0.00    -0.326 N 
ATOM     10  H   LIG    1        1.655   0.797  -0.489  0.00  0.00    +0.169 HD
ENDROOT
BRANCH   1  11
ATOM     11  N   LIG    1        3.696  -1.065   0.342  0.00  0.00    -0.221 N 
ATOM     12  H   LIG    1        4.224  -1.931   0.645  0.00  0.00    +0.161 HD
ATOM     13  C   LIG    1        4.467   0.109   0.233  0.00  0.00    +0.406 C 
ATOM     14  O   LIG    1        3.905   1.172  -0.122  0.00  0.00    -0.226 OA
BRANCH  13  15
ATOM     15  O   LIG    1        5.820   0.167   0.496  0.00  0.00    -0.453 OA
ATOM     16  C   LIG    1        6.568   1.386   0.373  0.00  0.00    +0.282 C 
ENDBRANCH  13  15
ENDBRANCH   1  11
BRANCH   6  17
ATOM     17  S   LIG    1       -3.769  -0.467  -1.292  0.00  0.00    -0.125 S 
BRANCH  17  18
ATOM     18  C   LIG    1       -4.683   0.110   0.188  0.00  0.00    +0.074 C 
BRANCH  18  19
ATOM     19  C   LIG    1       -3.917   1.344   0.686  0.00  0.00    +0.008 C 
ATOM     20  C   LIG    1       -3.964   2.340  -0.477  0.00  0.00    +0.004 C 
ENDBRANCH  18  19
ENDBRANCH  17  18
ENDBRANCH   6  17
TORSDOF 5
