REMARK  Name = molecules/HXRSXEDVVARPHP-UHFFFAOYSA-N.pdb
REMARK                            x       y       z     vdW  Elec       q    Type
REMARK                         _______ _______ _______ _____ _____    ______ ____
ROOT
ATOM      1  C   LIG    1       -2.515   0.253   0.163  0.00  0.00    +0.279 C 
ATOM      2  C   LIG    1       -3.151   1.219   0.719  0.00  0.00    +0.270 C 
ENDROOT
BRANCH   2   3
ATOM      3  N   LIG    1       -2.438   2.370   1.179  0.00  0.00    +0.057 N 
ATOM      4  O   LIG    1       -2.076   2.486   2.364  0.00  0.00    -0.126 OA
ATOM      5  O   LIG    1       -2.176   3.361   0.266  0.00  0.00    -0.126 OA
ENDBRANCH   2   3
BRANCH   1   6
ATOM      6  N   LIG    1       -3.167  -0.911  -0.312  0.00  0.00    -0.233 N 
ATOM      7  H   LIG    1       -2.910  -1.187  -1.328  0.00  0.00    +0.291 HD
BRANCH   6   8
ATOM      8  C   LIG    1       -4.080  -1.714   0.408  0.00  0.00    +0.259 C 
BRANCH   8   9
ATOM      9  C   LIG    1       -5.425  -1.177   0.664  0.00  0.00    -0.005 A 
ATOM     10  C   LIG    1       -6.019  -1.257   1.912  0.00  0.00    +0.011 A 
ATOM     11  C   LIG    1       -7.319  -0.790   2.087  0.00  0.00    +0.050 A 
ATOM     12  C   LIG    1       -8.056  -0.245   1.071  0.00  0.00    +0.166 A 
ATOM     13  O   LIG    1       -9.343   0.281   0.991  0.00  0.00    -0.453 OA
ATOM     14  C   LIG    1       -9.688   0.454  -0.375  0.00  0.00    +0.466 C 
ATOM     15  O   LIG    1       -8.424   0.420  -1.006  0.00  0.00    -0.453 OA
ATOM     16  C   LIG    1       -7.477  -0.158  -0.181  0.00  0.00    +0.167 A 
ATOM     17  C   LIG    1       -6.179  -0.625  -0.347  0.00  0.00    +0.057 A 
ENDBRANCH   8   9
ENDBRANCH   6   8
ENDBRANCH   1   6
BRANCH   1  18
ATOM     18  N   LIG    1       -1.065   0.321   0.008  0.00  0.00    -0.236 N 
ATOM     19  H   LIG    1       -0.644   1.165  -0.363  0.00  0.00    +0.291 HD
BRANCH  18  20
ATOM     20  C   LIG    1       -0.387  -0.853   0.412  0.00  0.00    +0.233 C 
BRANCH  20  21
ATOM     21  C   LIG    1        1.061  -0.991   0.145  0.00  0.00    +0.113 C 
BRANCH  21  22
ATOM     22  S   LIG    1        1.406  -0.877  -1.618  0.00  0.00    -0.149 S 
BRANCH  22  23
ATOM     23  C   LIG    1        2.328   0.654  -2.029  0.00  0.00    +0.143 C 
BRANCH  23  24
ATOM     24  C   LIG    1        3.750   0.384  -1.557  0.00  0.00    +0.115 A 
ATOM     25  O   LIG    1        4.359   0.652  -0.462  0.00  0.00    -0.462 OA
ATOM     26  C   LIG    1        5.627   0.198  -0.509  0.00  0.00    +0.119 A 
ATOM     27  C   LIG    1        5.789  -0.392  -1.742  0.00  0.00    +0.046 A 
ATOM     28  C   LIG    1        4.607  -0.288  -2.434  0.00  0.00    +0.046 A 
BRANCH  26  29
ATOM     29  C   LIG    1        6.622   0.326   0.581  0.00  0.00    +0.158 C 
BRANCH  29  30
ATOM     30  N   LIG    1        7.919  -0.026   0.133  0.00  0.00    -0.301 NA
ATOM     31  C   LIG    1        8.828  -0.403   1.186  0.00  0.00    +0.105 C 
ATOM     32  C   LIG    1        8.510   0.782  -0.872  0.00  0.00    +0.105 C 
ENDBRANCH  29  30
ENDBRANCH  26  29
ENDBRANCH  23  24
ENDBRANCH  22  23
ENDBRANCH  21  22
ENDBRANCH  20  21
ENDBRANCH  18  20
ENDBRANCH   1  18
TORSDOF 12
