REMARK  Name = molecules/HYFHYPWGAURHIV-JFIAXGOJSA-N.pdb
REMARK                            x       y       z     vdW  Elec       q    Type
REMARK                         _______ _______ _______ _____ _____    ______ ____
ROOT
ATOM      1  C   LIG    1       -0.867   0.825   1.347  0.00  0.00    +0.250 C 
ATOM      2  C   LIG    1       -0.528   0.100   2.601  0.00  0.00    +0.136 C 
ATOM      3  C   LIG    1       -1.460  -0.788   2.861  0.00  0.00    +0.041 C 
ATOM      4  C   LIG    1       -2.517  -0.756   1.815  0.00  0.00    +0.054 C 
ATOM      5  C   LIG    1       -3.856  -0.793   2.549  0.00  0.00    +0.028 C 
ATOM      6  C   LIG    1       -4.074  -2.280   2.678  0.00  0.00    +0.017 C 
ATOM      7  C   LIG    1       -3.092  -2.969   1.792  0.00  0.00    +0.085 C 
ATOM      8  N   LIG    1       -2.383  -1.906   1.062  0.00  0.00    -0.292 NA
ATOM      9  C   LIG    1       -2.715  -1.998  -0.289  0.00  0.00    +0.090 C 
ATOM     10  C   LIG    1       -4.003  -1.345  -0.719  0.00  0.00    +0.051 C 
ATOM     11  C   LIG    1       -3.665   0.102  -0.927  0.00  0.00    -0.039 A 
ATOM     12  C   LIG    1       -2.945   0.884  -0.048  0.00  0.00    -0.031 A 
ATOM     13  C   LIG    1       -2.737   2.196  -0.423  0.00  0.00    +0.054 A 
ATOM     14  C   LIG    1       -3.236   2.673  -1.624  0.00  0.00    +0.167 A 
ATOM     15  O   LIG    1       -3.170   3.932  -2.231  0.00  0.00    -0.453 OA
ATOM     16  C   LIG    1       -4.074   3.977  -3.327  0.00  0.00    +0.466 C 
ATOM     17  O   LIG    1       -4.340   2.606  -3.626  0.00  0.00    -0.453 OA
ATOM     18  C   LIG    1       -3.954   1.886  -2.495  0.00  0.00    +0.167 A 
ATOM     19  C   LIG    1       -4.160   0.557  -2.106  0.00  0.00    +0.053 A 
ATOM     20  C   LIG    1       -2.353   0.575   1.233  0.00  0.00    +0.092 C 
ENDROOT
BRANCH   2  21
ATOM     21  O   LIG    1        0.637   0.392   3.331  0.00  0.00    -0.496 OA
ATOM     22  C   LIG    1        1.028  -0.393   4.438  0.00  0.00    +0.276 C 
ENDBRANCH   2  21
BRANCH   1  23
ATOM     23  O   LIG    1       -0.137   0.336   0.271  0.00  0.00    -0.451 OA
BRANCH  23  24
ATOM     24  C   LIG    1        0.704   1.069  -0.516  0.00  0.00    +0.340 C 
ATOM     25  O   LIG    1        0.855   2.291  -0.286  0.00  0.00    -0.248 OA
BRANCH  24  26
ATOM     26  C   LIG    1        1.475   0.488  -1.664  0.00  0.00    +0.172 C 
BRANCH  26  27
ATOM     27  O   LIG    1        2.194   1.435  -2.343  0.00  0.00    -0.377 OA
ATOM     28  H   LIG    1        2.195   2.333  -1.970  0.00  0.00    +0.211 HD
ENDBRANCH  26  27
BRANCH  26  29
ATOM     29  C   LIG    1        2.450  -0.489  -1.013  0.00  0.00    +0.047 C 
BRANCH  29  30
ATOM     30  C   LIG    1        3.353   0.281  -0.033  0.00  0.00    +0.006 C 
BRANCH  30  31
ATOM     31  C   LIG    1        4.284  -0.708   0.586  0.00  0.00    +0.034 C 
BRANCH  31  32
ATOM     32  C   LIG    1        5.236  -0.084   1.578  0.00  0.00    +0.061 C 
ATOM     33  C   LIG    1        4.484   0.451   2.775  0.00  0.00    +0.041 C 
ATOM     34  C   LIG    1        6.103   0.975   0.938  0.00  0.00    +0.041 C 
BRANCH  32  35
ATOM     35  O   LIG    1        6.081  -1.093   2.042  0.00  0.00    -0.389 OA
ATOM     36  H   LIG    1        6.715  -0.730   2.718  0.00  0.00    +0.210 HD
ENDBRANCH  32  35
ENDBRANCH  31  32
ENDBRANCH  30  31
ENDBRANCH  29  30
ENDBRANCH  26  29
BRANCH  26  37
ATOM     37  C   LIG    1        0.595  -0.274  -2.591  0.00  0.00    +0.166 C 
BRANCH  37  38
ATOM     38  C   LIG    1        1.405  -0.820  -3.703  0.00  0.00    +0.310 C 
ATOM     39  O   LIG    1        2.117  -1.846  -3.611  0.00  0.00    -0.251 OA
BRANCH  38  40
ATOM     40  O   LIG    1        1.409  -0.190  -4.954  0.00  0.00    -0.468 OA
ATOM     41  C   LIG    1        2.165  -0.678  -6.042  0.00  0.00    +0.280 C 
ENDBRANCH  38  40
ENDBRANCH  37  38
ENDBRANCH  26  37
ENDBRANCH  24  26
ENDBRANCH  23  24
ENDBRANCH   1  23
TORSDOF 13
