REMARK  Name = molecules/HYHMLYSLQUKXKP-UHFFFAOYSA-N.pdb
REMARK                            x       y       z     vdW  Elec       q    Type
REMARK                         _______ _______ _______ _____ _____    ______ ____
ROOT
ATOM      1  C   LIG    1        0.084   0.525   0.609  0.00  0.00    +0.115 C 
ENDROOT
BRANCH   1   2
ATOM      2  O   LIG    1       -0.367   1.760   0.164  0.00  0.00    -0.392 OA
ATOM      3  H   LIG    1        0.049   2.520   0.625  0.00  0.00    +0.210 HD
ENDBRANCH   1   2
BRANCH   1   4
ATOM      4  C   LIG    1        1.459   0.638   1.239  0.00  0.00    +0.031 C 
BRANCH   4   5
ATOM      5  C   LIG    1        2.511   1.087   0.283  0.00  0.00    +0.002 C 
BRANCH   5   6
ATOM      6  C   LIG    1        3.828   1.148   1.071  0.00  0.00    +0.000 C 
BRANCH   6   7
ATOM      7  C   LIG    1        4.955   1.572   0.200  0.00  0.00    +0.001 C 
BRANCH   7   8
ATOM      8  C   LIG    1        5.245   0.650  -0.920  0.00  0.00    +0.017 C 
BRANCH   8   9
ATOM      9  C   LIG    1        5.706  -0.719  -0.601  0.00  0.00    +0.062 C 
ATOM     10  C   LIG    1        4.787  -1.649   0.079  0.00  0.00    +0.022 C 
ATOM     11  C   LIG    1        6.117  -1.347  -1.951  0.00  0.00    +0.022 C 
BRANCH   9  12
ATOM     12  C   LIG    1        6.993  -0.697   0.193  0.00  0.00    +0.310 C 
ATOM     13  O   LIG    1        7.049  -1.205   1.341  0.00  0.00    -0.250 OA
BRANCH  12  14
ATOM     14  O   LIG    1        8.146  -0.120  -0.317  0.00  0.00    -0.480 OA
ATOM     15  H   LIG    1        8.527   0.662   0.204  0.00  0.00    +0.295 HD
ENDBRANCH  12  14
ENDBRANCH   9  12
ENDBRANCH   8   9
ENDBRANCH   7   8
ENDBRANCH   6   7
ENDBRANCH   5   6
ENDBRANCH   4   5
ENDBRANCH   1   4
BRANCH   1  16
ATOM     16  C   LIG    1       -0.826   0.067   1.716  0.00  0.00    +0.031 C 
BRANCH  16  17
ATOM     17  C   LIG    1       -2.244  -0.152   1.380  0.00  0.00    +0.002 C 
BRANCH  17  18
ATOM     18  C   LIG    1       -3.009   1.012   0.873  0.00  0.00    +0.000 C 
BRANCH  18  19
ATOM     19  C   LIG    1       -4.466   0.678   0.596  0.00  0.00    +0.001 C 
BRANCH  19  20
ATOM     20  C   LIG    1       -4.673  -0.381  -0.414  0.00  0.00    +0.017 C 
BRANCH  20  21
ATOM     21  C   LIG    1       -6.130  -0.668  -0.650  0.00  0.00    +0.062 C 
ATOM     22  C   LIG    1       -6.749   0.628  -1.149  0.00  0.00    +0.022 C 
ATOM     23  C   LIG    1       -6.321  -1.725  -1.729  0.00  0.00    +0.022 C 
BRANCH  21  24
ATOM     24  C   LIG    1       -6.812  -1.139   0.549  0.00  0.00    +0.310 C 
ATOM     25  O   LIG    1       -6.177  -1.407   1.589  0.00  0.00    -0.250 OA
BRANCH  24  26
ATOM     26  O   LIG    1       -8.189  -1.314   0.592  0.00  0.00    -0.480 OA
ATOM     27  H   LIG    1       -8.813  -0.706   1.079  0.00  0.00    +0.295 HD
ENDBRANCH  24  26
ENDBRANCH  21  24
ENDBRANCH  20  21
ENDBRANCH  19  20
ENDBRANCH  18  19
ENDBRANCH  17  18
ENDBRANCH  16  17
ENDBRANCH   1  16
TORSDOF 17
