REMARK  Name = molecules/HYRKAAMZBDSJFJ-LFDBJOOHSA-N.pdb
REMARK                            x       y       z     vdW  Elec       q    Type
REMARK                         _______ _______ _______ _____ _____    ______ ____
ROOT
ATOM      1  C   LIG    1        1.052   1.003   1.575  0.00  0.00    +0.015 C 
ATOM      2  C   LIG    1        0.810   0.277   0.295  0.00  0.00    +0.009 C 
ATOM      3  C   LIG    1       -0.206  -0.861   0.480  0.00  0.00    +0.002 C 
ATOM      4  C   LIG    1        0.484  -1.682   1.500  0.00  0.00    +0.011 C 
ATOM      5  C   LIG    1        1.949  -1.628   1.041  0.00  0.00    +0.026 C 
ATOM      6  C   LIG    1        2.320  -3.012   0.574  0.00  0.00    +0.011 C 
ATOM      7  C   LIG    1       -1.561  -0.361   0.801  0.00  0.00    +0.002 C 
ATOM      8  C   LIG    1       -2.458  -1.552   1.031  0.00  0.00    +0.045 C 
ATOM      9  C   LIG    1       -3.853  -1.020   1.339  0.00  0.00    +0.193 C 
ATOM     10  F   LIG    1       -4.723  -2.026   1.667  0.00  0.00    -0.241 F 
ATOM     11  C   LIG    1       -4.261  -0.327   0.062  0.00  0.00    -0.026 C 
ATOM     12  C   LIG    1       -3.462   0.843  -0.309  0.00  0.00    +0.004 C 
ATOM     13  C   LIG    1       -3.662   1.873   0.788  0.00  0.00    +0.017 C 
ATOM     14  C   LIG    1       -3.886   1.477  -1.561  0.00  0.00    +0.034 C 
ATOM     15  C   LIG    1       -4.887   1.030  -2.270  0.00  0.00    +0.029 C 
ATOM     16  C   LIG    1       -5.638  -0.124  -1.856  0.00  0.00    +0.175 C 
ATOM     17  O   LIG    1       -6.623  -0.570  -2.544  0.00  0.00    -0.288 OA
ATOM     18  C   LIG    1       -5.278  -0.809  -0.624  0.00  0.00    +0.053 C 
ATOM     19  C   LIG    1       -2.026   0.421  -0.435  0.00  0.00    +0.032 C 
ATOM     20  C   LIG    1       -1.098   1.535  -0.765  0.00  0.00    +0.119 C 
ATOM     21  C   LIG    1        1.989  -0.611  -0.093  0.00  0.00    +0.135 C 
ATOM     22  C   LIG    1        0.324   1.111  -0.830  0.00  0.00    +0.041 C 
ENDROOT
BRANCH  20  23
ATOM     23  O   LIG    1       -1.227   2.656   0.036  0.00  0.00    -0.391 OA
ATOM     24  H   LIG    1       -1.041   2.526   0.976  0.00  0.00    +0.210 HD
ENDBRANCH  20  23
BRANCH  21  25
ATOM     25  C   LIG    1        3.260   0.119  -0.170  0.00  0.00    +0.202 C 
ATOM     26  O   LIG    1        3.771   0.713   0.741  0.00  0.00    -0.291 OA
BRANCH  25  27
ATOM     27  C   LIG    1        3.973   0.125  -1.482  0.00  0.00    +0.309 C 
BRANCH  27  28
ATOM     28  O   LIG    1        5.185   0.865  -1.419  0.00  0.00    -0.457 OA
BRANCH  28  29
ATOM     29  C   LIG    1        6.220   0.549  -0.567  0.00  0.00    +0.304 C 
ATOM     30  O   LIG    1        6.102  -0.433   0.193  0.00  0.00    -0.251 OA
ATOM     31  C   LIG    1        7.484   1.347  -0.523  0.00  0.00    +0.136 C 
ENDBRANCH  28  29
ENDBRANCH  27  28
ENDBRANCH  25  27
ENDBRANCH  21  25
BRANCH  21  32
ATOM     32  O   LIG    1        1.635  -1.208  -1.301  0.00  0.00    -0.380 OA
ATOM     33  H   LIG    1        2.371  -1.621  -1.778  0.00  0.00    +0.211 HD
ENDBRANCH  21  32
TORSDOF 6
