REMARK  Name = molecules/HYWYRSMBCFDLJT-UHFFFAOYSA-N.pdb
REMARK                            x       y       z     vdW  Elec       q    Type
REMARK                         _______ _______ _______ _____ _____    ______ ____
ROOT
ATOM      1  C   LIG    1        0.000   0.008   0.189  0.00  0.00    +0.153 A 
ATOM      2  C   LIG    1        0.250   1.299   0.574  0.00  0.00    +0.081 A 
ATOM      3  C   LIG    1       -0.741   2.109   1.101  0.00  0.00    +0.130 A 
ATOM      4  C   LIG    1       -2.019   1.615   1.249  0.00  0.00    +0.035 A 
ATOM      5  C   LIG    1       -2.290   0.324   0.869  0.00  0.00    +0.030 A 
ATOM      6  C   LIG    1       -1.283  -0.469   0.343  0.00  0.00    +0.090 A 
ENDROOT
BRANCH   3   7
ATOM      7  N   LIG    1       -0.414   3.437   1.480  0.00  0.00    +0.057 N 
ATOM      8  O   LIG    1       -1.381   4.255   2.004  0.00  0.00    -0.126 OA
ATOM      9  O   LIG    1        0.739   3.883   1.347  0.00  0.00    -0.126 OA
ENDBRANCH   3   7
BRANCH   6  10
ATOM     10  N   LIG    1       -1.624  -1.787  -0.029  0.00  0.00    -0.217 N 
ATOM     11  H   LIG    1       -0.877  -2.402  -0.428  0.00  0.00    +0.173 HD
BRANCH  10  12
ATOM     12  S   LIG    1       -3.222  -2.423   0.150  0.00  0.00    +0.040 S 
ATOM     13  O   LIG    1       -3.600  -2.394   1.611  0.00  0.00    -0.155 OA
ATOM     14  O   LIG    1       -3.259  -3.850  -0.292  0.00  0.00    -0.155 OA
ATOM     15  C   LIG    1       -4.396  -1.503  -0.825  0.00  0.00    +0.218 C 
ENDBRANCH  10  12
ENDBRANCH   6  10
BRANCH   1  16
ATOM     16  O   LIG    1        0.949  -0.840  -0.342  0.00  0.00    -0.454 OA
BRANCH  16  17
ATOM     17  C   LIG    1        2.271  -0.491  -0.550  0.00  0.00    +0.129 A 
ATOM     18  C   LIG    1        3.160  -0.719   0.477  0.00  0.00    +0.046 A 
ATOM     19  C   LIG    1        4.488  -0.387   0.315  0.00  0.00    +0.004 A 
ATOM     20  C   LIG    1        4.940   0.169  -0.857  0.00  0.00    +0.000 A 
ATOM     21  C   LIG    1        4.045   0.386  -1.859  0.00  0.00    +0.004 A 
ATOM     22  C   LIG    1        2.714   0.065  -1.725  0.00  0.00    +0.046 A 
ENDBRANCH  16  17
ENDBRANCH   1  16
TORSDOF 5
