REMARK  Name = molecules/HZIYHIRJHYIRQO-UHFFFAOYSA-N.pdb
REMARK                            x       y       z     vdW  Elec       q    Type
REMARK                         _______ _______ _______ _____ _____    ______ ____
ROOT
ATOM      1  C   LIG    1       -0.751  -0.851   0.004  0.00  0.00    +0.189 A 
ATOM      2  S   LIG    1       -2.316  -1.517   0.136  0.00  0.00    -0.011 S 
ATOM      3  C   LIG    1       -3.131  -0.433  -0.938  0.00  0.00    +0.256 A 
ATOM      4  N   LIG    1       -2.135   0.341  -1.301  0.00  0.00    -0.119 NA
ATOM      5  N   LIG    1       -0.967   0.147  -0.848  0.00  0.00    -0.124 NA
ENDROOT
BRANCH   1   6
ATOM      6  N   LIG    1        0.506  -1.176   0.584  0.00  0.00    -0.263 N 
ATOM      7  H   LIG    1        0.577  -1.969   1.236  0.00  0.00    +0.157 HD
ATOM      8  C   LIG    1        1.661  -0.423   0.279  0.00  0.00    +0.219 C 
ATOM      9  O   LIG    1        1.566   0.538  -0.513  0.00  0.00    -0.275 OA
BRANCH   8  10
ATOM     10  C   LIG    1        2.976  -0.742   0.870  0.00  0.00    +0.096 C 
BRANCH  10  11
ATOM     11  C   LIG    1        4.018   0.219   0.368  0.00  0.00    +0.006 C 
ATOM     12  C   LIG    1        3.681   1.640   0.726  0.00  0.00    +0.004 C 
ENDBRANCH  10  11
ENDBRANCH   8  10
ENDBRANCH   1   6
BRANCH   3  13
ATOM     13  S   LIG    1       -4.838  -0.403  -1.399  0.00  0.00    +0.081 S 
ATOM     14  O   LIG    1       -5.339  -1.799  -1.308  0.00  0.00    -0.151 OA
ATOM     15  O   LIG    1       -4.899   0.086  -2.800  0.00  0.00    -0.151 OA
BRANCH  13  16
ATOM     16  N   LIG    1       -5.738   0.597  -0.317  0.00  0.00    -0.202 NA
ATOM     17  H   LIG    1       -5.392   0.543   0.657  0.00  0.00    +0.144 HD
ATOM     18  H   LIG    1       -5.595   1.589  -0.629  0.00  0.00    +0.144 HD
ENDBRANCH  13  16
ENDBRANCH   3  13
TORSDOF 5
