REMARK  Name = molecules/HZTMGWSBSDLALI-UHFFFAOYSA-N.pdb
REMARK                            x       y       z     vdW  Elec       q    Type
REMARK                         _______ _______ _______ _____ _____    ______ ____
ROOT
ATOM      1  C   LIG    1        0.872  -1.079   1.555  0.00  0.00    +0.128 C 
ENDROOT
BRANCH   1   2
ATOM      2  N   LIG    1        1.488  -1.026   0.264  0.00  0.00    -0.284 N 
ATOM      3  C   LIG    1        1.879   0.098  -0.451  0.00  0.00    +0.305 C 
ATOM      4  N   LIG    1        1.923   1.421  -0.083  0.00  0.00    -0.281 N 
ATOM      5  C   LIG    1        1.710   1.995   1.200  0.00  0.00    +0.137 C 
ATOM      6  C   LIG    1        1.973   3.505   1.071  0.00  0.00    +0.179 C 
ATOM      7  O   LIG    1        3.229   3.790   0.604  0.00  0.00    -0.377 OA
ATOM      8  C   LIG    1        3.534   3.113  -0.576  0.00  0.00    +0.179 C 
ATOM      9  C   LIG    1        2.307   2.407  -1.132  0.00  0.00    +0.137 C 
ATOM     10  O   LIG    1        2.273  -0.185  -1.681  0.00  0.00    -0.252 OA
BRANCH   2  11
ATOM     11  C   LIG    1        1.720  -2.384  -0.321  0.00  0.00    +0.109 C 
BRANCH  11  12
ATOM     12  C   LIG    1        3.048  -2.910   0.092  0.00  0.00    +0.019 C 
BRANCH  12  13
ATOM     13  C   LIG    1        3.271  -4.282  -0.505  0.00  0.00    -0.002 C 
ATOM     14  C   LIG    1        4.611  -4.856  -0.110  0.00  0.00    +0.004 C 
ENDBRANCH  12  13
ENDBRANCH  11  12
ENDBRANCH   2  11
ENDBRANCH   1   2
BRANCH   1  15
ATOM     15  C   LIG    1       -0.609  -1.220   1.414  0.00  0.00    +0.128 C 
BRANCH  15  16
ATOM     16  N   LIG    1       -1.326  -0.182   0.724  0.00  0.00    -0.284 N 
ATOM     17  C   LIG    1       -1.863   0.936   1.438  0.00  0.00    +0.305 C 
ATOM     18  O   LIG    1       -1.672   0.839   2.726  0.00  0.00    -0.252 OA
ATOM     19  N   LIG    1       -2.525   2.061   1.003  0.00  0.00    -0.281 N 
ATOM     20  C   LIG    1       -2.989   3.026   2.032  0.00  0.00    +0.137 C 
ATOM     21  C   LIG    1       -4.475   3.146   1.851  0.00  0.00    +0.179 C 
ATOM     22  O   LIG    1       -4.779   3.563   0.565  0.00  0.00    -0.377 OA
ATOM     23  C   LIG    1       -3.669   3.758  -0.221  0.00  0.00    +0.179 C 
ATOM     24  C   LIG    1       -2.818   2.468  -0.338  0.00  0.00    +0.137 C 
BRANCH  16  25
ATOM     25  C   LIG    1       -1.510  -0.324  -0.707  0.00  0.00    +0.109 C 
BRANCH  25  26
ATOM     26  C   LIG    1       -2.746  -1.040  -1.126  0.00  0.00    +0.019 C 
BRANCH  26  27
ATOM     27  C   LIG    1       -2.877  -2.467  -0.738  0.00  0.00    -0.002 C 
ATOM     28  C   LIG    1       -1.845  -3.395  -1.291  0.00  0.00    +0.004 C 
ENDBRANCH  26  27
ENDBRANCH  25  26
ENDBRANCH  16  25
ENDBRANCH  15  16
ENDBRANCH   1  15
TORSDOF 9
