REMARK  Name = molecules/HZZVJAQRINQKSD-PBFISZAISA-N.pdb
REMARK                            x       y       z     vdW  Elec       q    Type
REMARK                         _______ _______ _______ _____ _____    ______ ____
ROOT
ATOM      1  C   LIG    1       -1.971   0.490   0.059  0.00  0.00    +0.044 C 
ATOM      2  C   LIG    1       -0.715   0.131   0.262  0.00  0.00    +0.130 C 
ATOM      3  C   LIG    1        0.476   1.012   0.410  0.00  0.00    +0.253 C 
ATOM      4  N   LIG    1        1.587   0.089   0.406  0.00  0.00    -0.245 N 
ATOM      5  C   LIG    1        2.858  -0.526   0.526  0.00  0.00    +0.224 C 
ATOM      6  C   LIG    1        2.113  -1.784   0.884  0.00  0.00    +0.161 C 
ATOM      7  O   LIG    1        4.028  -0.154   0.388  0.00  0.00    -0.275 OA
ATOM      8  C   LIG    1        1.106  -1.223  -0.067  0.00  0.00    +0.274 C 
ATOM      9  O   LIG    1       -0.235  -1.167   0.379  0.00  0.00    -0.472 OA
ENDROOT
BRANCH   3  10
ATOM     10  C   LIG    1        0.589   2.012  -0.660  0.00  0.00    +0.333 C 
ATOM     11  O   LIG    1       -0.222   2.918  -0.884  0.00  0.00    -0.248 OA
BRANCH  10  12
ATOM     12  O   LIG    1        1.705   1.940  -1.499  0.00  0.00    -0.479 OA
ATOM     13  H   LIG    1        2.509   2.554  -1.313  0.00  0.00    +0.295 HD
ENDBRANCH  10  12
ENDBRANCH   3  10
BRANCH   1  14
ATOM     14  C   LIG    1       -3.026  -0.523  -0.064  0.00  0.00    +0.186 C 
BRANCH  14  15
ATOM     15  O   LIG    1       -3.678  -0.465  -1.290  0.00  0.00    -0.391 OA
ATOM     16  H   LIG    1       -4.637  -0.659  -1.112  0.00  0.00    +0.210 HD
ENDBRANCH  14  15
ENDBRANCH   1  14
TORSDOF 4
