REMARK  Name = molecules/IAIDUHCBNLFXEF-MNEFBYGVSA-N.pdb
REMARK                            x       y       z     vdW  Elec       q    Type
REMARK                         _______ _______ _______ _____ _____    ______ ____
ROOT
ATOM      1  C   LIG    1        0.762   0.538  -1.713  0.00  0.00    +0.220 C 
ATOM      2  N   LIG    1       -0.361   0.039  -0.989  0.00  0.00    -0.287 N 
ATOM      3  C   LIG    1       -0.691   0.132   0.391  0.00  0.00    +0.186 C 
ATOM      4  C   LIG    1       -2.158  -0.088   0.520  0.00  0.00    +0.050 C 
ATOM      5  C   LIG    1       -2.673  -0.263  -0.875  0.00  0.00    +0.071 C 
ATOM      6  C   LIG    1       -1.432  -0.710  -1.633  0.00  0.00    +0.123 C 
ATOM      7  O   LIG    1        0.897   0.354  -2.948  0.00  0.00    -0.275 OA
ENDROOT
BRANCH   1   8
ATOM      8  C   LIG    1        1.833   1.317  -0.985  0.00  0.00    +0.082 C 
ATOM      9  C   LIG    1        1.281   2.626  -0.468  0.00  0.00    +0.018 C 
BRANCH   8  10
ATOM     10  C   LIG    1        2.931   1.669  -1.978  0.00  0.00    +0.090 C 
BRANCH  10  11
ATOM     11  S   LIG    1        3.643   0.221  -2.659  0.00  0.00    -0.082 S 
BRANCH  11  12
ATOM     12  C   LIG    1        4.583  -0.889  -1.750  0.00  0.00    +0.220 C 
ATOM     13  O   LIG    1        4.879  -2.021  -2.367  0.00  0.00    -0.280 OA
BRANCH  12  14
ATOM     14  C   LIG    1        5.118  -0.823  -0.419  0.00  0.00    +0.028 A 
ATOM     15  C   LIG    1        5.026   0.265   0.390  0.00  0.00    +0.012 A 
ATOM     16  C   LIG    1        5.547   0.285   1.686  0.00  0.00    +0.001 A 
ATOM     17  C   LIG    1        6.178  -0.809   2.191  0.00  0.00    +0.000 A 
ATOM     18  C   LIG    1        6.287  -1.924   1.397  0.00  0.00    +0.001 A 
ATOM     19  C   LIG    1        5.777  -1.932   0.140  0.00  0.00    +0.012 A 
ENDBRANCH  12  14
ENDBRANCH  11  12
ENDBRANCH  10  11
ENDBRANCH   8  10
ENDBRANCH   1   8
BRANCH   3  20
ATOM     20  C   LIG    1        0.100  -0.793   1.240  0.00  0.00    +0.325 C 
ATOM     21  O   LIG    1        0.945  -1.541   0.727  0.00  0.00    -0.249 OA
BRANCH  20  22
ATOM     22  O   LIG    1       -0.114  -0.812   2.596  0.00  0.00    -0.479 OA
ATOM     23  H   LIG    1       -0.679  -0.151   3.107  0.00  0.00    +0.295 HD
ENDBRANCH  20  22
ENDBRANCH   3  20
BRANCH   5  24
ATOM     24  S   LIG    1       -4.022  -1.436  -1.028  0.00  0.00    -0.120 S 
BRANCH  24  25
ATOM     25  C   LIG    1       -5.410  -0.815  -0.097  0.00  0.00    +0.008 A 
ATOM     26  C   LIG    1       -5.552  -1.157   1.228  0.00  0.00    +0.015 A 
ATOM     27  C   LIG    1       -6.628  -0.684   1.977  0.00  0.00    +0.001 A 
ATOM     28  C   LIG    1       -7.565   0.136   1.394  0.00  0.00    +0.000 A 
ATOM     29  C   LIG    1       -7.439   0.490   0.066  0.00  0.00    +0.001 A 
ATOM     30  C   LIG    1       -6.352   0.003  -0.664  0.00  0.00    +0.015 A 
ENDBRANCH  24  25
ENDBRANCH   5  24
TORSDOF 9
