REMARK  Name = molecules/IAVUPMFITXYVAF-XPUUQOCRSA-N.pdb
REMARK                            x       y       z     vdW  Elec       q    Type
REMARK                         _______ _______ _______ _____ _____    ______ ____
ROOT
ATOM      1  O   LIG    1       -0.746   3.606   1.795  0.00  0.00    -0.169 OA
ATOM      2  S   LIG    1       -0.954   2.144   1.684  0.00  0.00    +0.006 S 
ATOM      3  O   LIG    1       -1.372   1.492   2.957  0.00  0.00    -0.169 OA
ATOM      4  C   LIG    1        0.529   1.312   1.157  0.00  0.00    +0.132 A 
ATOM      5  S   LIG    1        2.200   1.593   1.449  0.00  0.00    -0.050 S 
ATOM      6  C   LIG    1        2.819   0.301   0.540  0.00  0.00    +0.144 A 
ATOM      7  C   LIG    1        1.736  -0.314   0.035  0.00  0.00    +0.043 A 
ATOM      8  C   LIG    1        0.514   0.212   0.355  0.00  0.00    +0.004 A 
ATOM      9  C   LIG    1       -0.800  -0.404  -0.168  0.00  0.00    +0.088 C 
ATOM     10  C   LIG    1       -1.984   0.188   0.351  0.00  0.00    +0.049 C 
ATOM     11  C   LIG    1       -2.079   1.705   0.369  0.00  0.00    +0.135 C 
ATOM     12  C   LIG    1       -1.617   2.330  -0.900  0.00  0.00    +0.032 C 
ENDROOT
BRANCH   6  13
ATOM     13  S   LIG    1        4.533  -0.131   0.312  0.00  0.00    +0.062 S 
ATOM     14  O   LIG    1        5.069  -0.451   1.681  0.00  0.00    -0.153 OA
ATOM     15  O   LIG    1        4.588  -1.385  -0.498  0.00  0.00    -0.153 OA
BRANCH  13  16
ATOM     16  N   LIG    1        5.388   1.159  -0.438  0.00  0.00    -0.203 NA
ATOM     17  H   LIG    1        6.034   1.647   0.196  0.00  0.00    +0.144 HD
ATOM     18  H   LIG    1        5.894   0.760  -1.260  0.00  0.00    +0.144 HD
ENDBRANCH  13  16
ENDBRANCH   6  13
BRANCH   9  19
ATOM     19  N   LIG    1       -0.735  -1.814  -0.037  0.00  0.00    -0.309 NA
ATOM     20  H   LIG    1        0.194  -2.164   0.255  0.00  0.00    +0.122 HD
BRANCH  19  21
ATOM     21  C   LIG    1       -1.619  -2.672  -0.670  0.00  0.00    +0.078 C 
ATOM     22  C   LIG    1       -2.999  -2.668  -0.123  0.00  0.00    +0.020 C 
ENDBRANCH  19  21
ENDBRANCH   9  19
TORSDOF 4
