REMARK  Name = molecules/IAZDPXIOMUYVGZ-UHFFFAOYSA-N.pdb
REMARK                            x       y       z     vdW  Elec       q    Type
REMARK                         _______ _______ _______ _____ _____    ______ ____
ROOT
ATOM      1  C   LIG    1        1.419  -0.370   0.122  0.00  0.00    +0.106 C 
ATOM      2  S   LIG    1        0.040   0.750   0.404  0.00  0.00    -0.049 S 
ATOM      3  C   LIG    1       -1.503  -0.007  -0.035  0.00  0.00    +0.106 C 
ATOM      4  O   LIG    1        0.328   2.023  -0.365  0.00  0.00    -0.163 OA
ENDROOT
TORSDOF 0
