REMARK  Name = molecules/IBALRBWGSVJPAP-UHFFFAOYSA-N.pdb
REMARK                            x       y       z     vdW  Elec       q    Type
REMARK                         _______ _______ _______ _____ _____    ______ ____
ROOT
ATOM      1  C   LIG    1       -0.842   0.113  -0.265  0.00  0.00    +0.117 C 
ENDROOT
BRANCH   1   2
ATOM      2  C   LIG    1       -1.054  -1.214   0.284  0.00  0.00    +0.025 A 
ATOM      3  C   LIG    1       -1.944  -1.525   1.252  0.00  0.00    +0.047 A 
ATOM      4  C   LIG    1       -2.047  -2.792   1.862  0.00  0.00    +0.124 A 
ATOM      5  F   LIG    1       -2.980  -3.022   2.833  0.00  0.00    -0.205 F 
ATOM      6  C   LIG    1       -1.191  -3.779   1.457  0.00  0.00    +0.042 A 
ATOM      7  C   LIG    1       -0.274  -3.488   0.476  0.00  0.00    +0.048 A 
ATOM      8  C   LIG    1       -0.192  -2.252  -0.104  0.00  0.00    +0.122 A 
BRANCH   8   9
ATOM      9  O   LIG    1        0.771  -2.057  -1.089  0.00  0.00    -0.506 OA
ATOM     10  H   LIG    1        1.391  -2.780  -1.378  0.00  0.00    +0.292 HD
ENDBRANCH   8   9
ENDBRANCH   1   2
BRANCH   1  11
ATOM     11  C   LIG    1       -1.750   1.233  -0.078  0.00  0.00    -0.019 A 
ATOM     12  C   LIG    1       -3.012   1.219   0.441  0.00  0.00    +0.007 A 
ATOM     13  C   LIG    1       -3.766   2.342   0.721  0.00  0.00    +0.020 A 
ATOM     14  C   LIG    1       -3.256   3.583   0.474  0.00  0.00    +0.041 A 
ATOM     15 CL   LIG    1       -4.199   5.033   0.823  0.00  0.00    -0.084 Cl
ATOM     16  C   LIG    1       -1.994   3.648  -0.051  0.00  0.00    +0.020 A 
ATOM     17  C   LIG    1       -1.246   2.533  -0.326  0.00  0.00    +0.007 A 
ENDBRANCH   1  11
BRANCH   1  18
ATOM     18  N   LIG    1        0.185   0.305  -0.927  0.00  0.00    -0.222 NA
BRANCH  18  19
ATOM     19  C   LIG    1        1.143   0.845  -1.659  0.00  0.00    +0.104 C 
BRANCH  19  20
ATOM     20  C   LIG    1        2.328   1.485  -0.940  0.00  0.00    +0.026 C 
BRANCH  20  21
ATOM     21  C   LIG    1        3.074   0.537  -0.071  0.00  0.00    +0.097 C 
BRANCH  21  22
ATOM     22  C   LIG    1        3.673  -0.590  -0.781  0.00  0.00    +0.211 C 
ATOM     23  N   LIG    1        4.290  -1.665  -0.044  0.00  0.00    -0.329 N 
ATOM     24  H   LIG    1        4.928  -1.512   0.752  0.00  0.00    +0.145 HD
ATOM     25  H   LIG    1        4.061  -2.625  -0.354  0.00  0.00    +0.145 HD
ATOM     26  O   LIG    1        3.695  -0.698  -2.030  0.00  0.00    -0.276 OA
ENDBRANCH  21  22
ENDBRANCH  20  21
ENDBRANCH  19  20
ENDBRANCH  18  19
ENDBRANCH   1  18
TORSDOF 8
