REMARK  Name = molecules/IBAQFPQHRJAVAV-ULAWRXDQSA-N.pdb
REMARK                            x       y       z     vdW  Elec       q    Type
REMARK                         _______ _______ _______ _____ _____    ______ ____
ROOT
ATOM      1  N   LIG    1        0.674   0.185  -0.670  0.00  0.00    -0.290 NA
ATOM      2  C   LIG    1       -0.306   1.149  -0.299  0.00  0.00    +0.113 C 
ATOM      3  C   LIG    1       -1.372   0.588   0.589  0.00  0.00    +0.165 C 
ATOM      4  C   LIG    1       -2.166  -0.328  -0.363  0.00  0.00    +0.174 C 
ATOM      5  C   LIG    1       -1.189  -1.469  -0.582  0.00  0.00    +0.159 C 
ATOM      6  C   LIG    1        0.111  -1.034  -1.177  0.00  0.00    +0.119 C 
ENDROOT
BRANCH   3   7
ATOM      7  O   LIG    1       -2.188   1.563   1.138  0.00  0.00    -0.388 OA
ATOM      8  H   LIG    1       -2.734   1.151   1.833  0.00  0.00    +0.210 HD
ENDBRANCH   3   7
BRANCH   4   9
ATOM      9  O   LIG    1       -3.342  -0.775   0.186  0.00  0.00    -0.387 OA
ATOM     10  H   LIG    1       -3.148  -1.516   0.781  0.00  0.00    +0.210 HD
ENDBRANCH   4   9
BRANCH   5  11
ATOM     11  O   LIG    1       -1.709  -2.528  -1.279  0.00  0.00    -0.388 OA
ATOM     12  H   LIG    1       -2.176  -3.166  -0.670  0.00  0.00    +0.210 HD
ENDBRANCH   5  11
BRANCH   1  13
ATOM     13  C   LIG    1        1.638  -0.106   0.370  0.00  0.00    +0.112 C 
BRANCH  13  14
ATOM     14  C   LIG    1        2.880  -0.775  -0.183  0.00  0.00    +0.171 C 
BRANCH  14  15
ATOM     15  O   LIG    1        3.773  -1.042   0.874  0.00  0.00    -0.394 OA
ATOM     16  H   LIG    1        3.309  -1.600   1.574  0.00  0.00    +0.209 HD
ENDBRANCH  14  15
ENDBRANCH  13  14
ENDBRANCH   1  13
BRANCH   2  17
ATOM     17  C   LIG    1        0.301   2.333   0.399  0.00  0.00    +0.177 C 
BRANCH  17  18
ATOM     18  O   LIG    1        1.237   2.956  -0.402  0.00  0.00    -0.393 OA
ATOM     19  H   LIG    1        1.200   3.942  -0.412  0.00  0.00    +0.209 HD
ENDBRANCH  17  18
ENDBRANCH   2  17
TORSDOF 8
