REMARK  Name = molecules/IBGBGRVKPALMCQ-UHFFFAOYSA-N.pdb
REMARK                            x       y       z     vdW  Elec       q    Type
REMARK                         _______ _______ _______ _____ _____    ______ ____
ROOT
ATOM      1  C   LIG    1        1.257   0.011  -0.126  0.00  0.00    +0.018 A 
ATOM      2  C   LIG    1        0.737  -1.256   0.022  0.00  0.00    +0.015 A 
ATOM      3  C   LIG    1       -0.625  -1.472   0.174  0.00  0.00    +0.050 A 
ATOM      4  C   LIG    1       -1.513  -0.416   0.182  0.00  0.00    +0.158 A 
ATOM      5  C   LIG    1       -1.000   0.856   0.035  0.00  0.00    +0.159 A 
ATOM      6  C   LIG    1        0.371   1.067  -0.118  0.00  0.00    +0.060 A 
ENDROOT
BRANCH   1   7
ATOM      7  C   LIG    1        2.682   0.270  -0.288  0.00  0.00    +0.258 C 
ATOM      8  O   LIG    1        3.549  -0.640  -0.305  0.00  0.00    -0.296 OA
ENDBRANCH   1   7
BRANCH   4   9
ATOM      9  O   LIG    1       -2.886  -0.576   0.331  0.00  0.00    -0.503 OA
ATOM     10  H   LIG    1       -3.353  -1.439   0.443  0.00  0.00    +0.292 HD
ENDBRANCH   4   9
BRANCH   5  11
ATOM     11  O   LIG    1       -1.887   1.922   0.042  0.00  0.00    -0.503 OA
ATOM     12  H   LIG    1       -1.568   2.883  -0.062  0.00  0.00    +0.292 HD
ENDBRANCH   5  11
TORSDOF 3
