REMARK  Name = molecules/IBLNKMRFIPWSOY-CYBMUJFWSA-N.pdb
REMARK                            x       y       z     vdW  Elec       q    Type
REMARK                         _______ _______ _______ _____ _____    ______ ____
ROOT
ATOM      1  C   LIG    1        2.782   1.246   0.413  0.00  0.00    +0.057 A 
ATOM      2  C   LIG    1        1.558   0.563   0.327  0.00  0.00    -0.022 A 
ATOM      3  C   LIG    1        1.669  -0.771   0.027  0.00  0.00    +0.012 A 
ATOM      4  C   LIG    1        2.915  -1.384  -0.173  0.00  0.00    +0.050 A 
ATOM      5  C   LIG    1        4.090  -0.686  -0.082  0.00  0.00    +0.166 A 
ATOM      6  O   LIG    1        5.420  -1.053  -0.233  0.00  0.00    -0.453 OA
ATOM      7  C   LIG    1        6.158   0.166  -0.370  0.00  0.00    +0.466 C 
ATOM      8  O   LIG    1        5.319   1.144   0.257  0.00  0.00    -0.453 OA
ATOM      9  C   LIG    1        4.002   0.651   0.217  0.00  0.00    +0.167 A 
ENDROOT
BRANCH   2  10
ATOM     10  C   LIG    1        0.317   1.269   0.549  0.00  0.00    +0.006 C 
ATOM     11  C   LIG    1       -0.909   0.927   0.529  0.00  0.00    +0.005 C 
BRANCH  11  12
ATOM     12  C   LIG    1       -1.539  -0.347   0.265  0.00  0.00    +0.143 C 
BRANCH  12  13
ATOM     13  C   LIG    1       -3.076  -0.189   0.127  0.00  0.00    -0.008 C 
ATOM     14  C   LIG    1       -3.686   0.347   1.378  0.00  0.00    +0.013 C 
ATOM     15  C   LIG    1       -3.594  -1.560  -0.255  0.00  0.00    +0.013 C 
ATOM     16  C   LIG    1       -3.410   0.749  -1.012  0.00  0.00    +0.013 C 
ENDBRANCH  12  13
BRANCH  12  17
ATOM     17  O   LIG    1       -1.404  -1.261   1.310  0.00  0.00    -0.387 OA
ATOM     18  H   LIG    1       -0.774  -0.853   1.956  0.00  0.00    +0.210 HD
ENDBRANCH  12  17
ENDBRANCH  11  12
ENDBRANCH   2  10
TORSDOF 4
