REMARK  Name = molecules/ICFJFFQQTFMIBG-UHFFFAOYSA-N.pdb
REMARK                            x       y       z     vdW  Elec       q    Type
REMARK                         _______ _______ _______ _____ _____    ______ ____
ROOT
ATOM      1  C   LIG    1        2.087   0.392  -0.752  0.00  0.00    +0.388 C 
ATOM      2  N   LIG    1        1.860   1.216  -1.717  0.00  0.00    -0.129 NA
ATOM      3  H   LIG    1        1.133   1.095  -2.428  0.00  0.00    +0.306 HD
ENDROOT
BRANCH   1   4
ATOM      4  N   LIG    1        3.106   0.598   0.214  0.00  0.00    -0.186 N 
ATOM      5  H   LIG    1        2.776   0.873   1.177  0.00  0.00    +0.271 HD
BRANCH   4   9
ATOM      6  N   LIG    1        5.102  -0.792   0.224  0.00  0.00    -0.289 N 
ATOM      7  H   LIG    1        4.564  -1.646   0.487  0.00  0.00    +0.255 HD
ATOM      8  H   LIG    1        6.149  -0.932   0.175  0.00  0.00    +0.255 HD
ATOM      9  C   LIG    1        4.489   0.456  -0.047  0.00  0.00    +0.385 C 
BRANCH   9  10
ATOM     10  N   LIG    1        5.205   1.416  -0.520  0.00  0.00    -0.129 NA
ATOM     11  H   LIG    1        4.848   2.354  -0.747  0.00  0.00    +0.306 HD
ENDBRANCH   9  10
ENDBRANCH   4   9
ENDBRANCH   1   4
BRANCH   1  12
ATOM     12  N   LIG    1        1.295  -0.780  -0.633  0.00  0.00    -0.275 N 
ATOM     13  H   LIG    1        1.630  -1.640  -1.111  0.00  0.00    +0.258 HD
BRANCH  12  14
ATOM     14  C   LIG    1        0.060  -0.831   0.112  0.00  0.00    +0.200 C 
BRANCH  14  15
ATOM     15  C   LIG    1       -0.976  -0.005  -0.576  0.00  0.00    +0.072 C 
BRANCH  15  16
ATOM     16  C   LIG    1       -2.280   0.037   0.065  0.00  0.00    -0.044 A 
ATOM     17  C   LIG    1       -2.657   0.968   1.009  0.00  0.00    +0.004 A 
ATOM     18  C   LIG    1       -3.914   0.927   1.559  0.00  0.00    +0.000 A 
ATOM     19  C   LIG    1       -4.851  -0.025   1.210  0.00  0.00    +0.000 A 
ATOM     20  C   LIG    1       -4.482  -0.959   0.267  0.00  0.00    +0.000 A 
ATOM     21  C   LIG    1       -3.220  -0.920  -0.287  0.00  0.00    +0.004 A 
ENDBRANCH  15  16
ENDBRANCH  14  15
ENDBRANCH  12  14
ENDBRANCH   1  12
TORSDOF 7
