REMARK  Name = molecules/ICMGLRUYEQNHPF-UHFFFAOYSA-N.pdb
REMARK                            x       y       z     vdW  Elec       q    Type
REMARK                         _______ _______ _______ _____ _____    ______ ____
ROOT
ATOM      1  C   LIG    1       -0.072  -0.239  -0.632  0.00  0.00    +0.086 C 
ENDROOT
BRANCH   1   5
ATOM      2  N   LIG    1       -3.657   0.462   0.149  0.00  0.00    -0.325 N 
ATOM      3  C   LIG    1       -2.470   0.560   0.968  0.00  0.00    +0.120 C 
ATOM      4  C   LIG    1       -1.494   1.450   0.198  0.00  0.00    +0.103 C 
ATOM      5  N   LIG    1       -1.080   0.715  -0.970  0.00  0.00    -0.299 NA
ATOM      6  C   LIG    1       -2.177   0.203  -1.718  0.00  0.00    +0.103 C 
ATOM      7  C   LIG    1       -3.517   0.742  -1.261  0.00  0.00    +0.120 C 
BRANCH   2  13
ATOM      8  C   LIG    1       -5.045  -1.098   1.412  0.00  0.00    +0.141 A 
ATOM      9  C   LIG    1       -6.227  -1.475   2.004  0.00  0.00    +0.047 A 
ATOM     10  C   LIG    1       -7.303  -0.623   1.936  0.00  0.00    +0.004 A 
ATOM     11  C   LIG    1       -7.174   0.581   1.282  0.00  0.00    +0.002 A 
ATOM     12  C   LIG    1       -5.972   0.948   0.689  0.00  0.00    +0.027 A 
ATOM     13  C   LIG    1       -4.887   0.102   0.750  0.00  0.00    +0.072 A 
BRANCH   8  14
ATOM     14  O   LIG    1       -3.932  -1.922   1.453  0.00  0.00    -0.493 OA
ATOM     15  C   LIG    1       -3.882  -3.178   2.074  0.00  0.00    +0.277 C 
ENDBRANCH   8  14
ENDBRANCH   2  13
ENDBRANCH   1   5
BRANCH   1  16
ATOM     16  C   LIG    1        1.256   0.372  -0.235  0.00  0.00    +0.034 C 
BRANCH  16  17
ATOM     17  C   LIG    1        1.798   1.204  -1.376  0.00  0.00    +0.104 C 
BRANCH  17  18
ATOM     18  N   LIG    1        3.055   1.766  -0.997  0.00  0.00    -0.330 N 
ATOM     19  H   LIG    1        3.050   2.807  -0.794  0.00  0.00    +0.147 HD
BRANCH  18  20
ATOM     20  C   LIG    1        4.283   1.070  -0.872  0.00  0.00    +0.108 A 
ATOM     21  N   LIG    1        5.392   1.714  -0.423  0.00  0.00    -0.285 N 
ATOM     22  C   LIG    1        5.231   3.119  -0.065  0.00  0.00    +0.155 C 
ATOM     23  C   LIG    1        6.588   1.095  -0.310  0.00  0.00    +0.333 A 
ATOM     24  O   LIG    1        7.577   1.750   0.113  0.00  0.00    -0.246 OA
ATOM     25  N   LIG    1        6.725  -0.202  -0.644  0.00  0.00    -0.264 N 
ATOM     26  C   LIG    1        7.994  -0.863  -0.524  0.00  0.00    +0.157 C 
ATOM     27  C   LIG    1        5.644  -0.870  -1.093  0.00  0.00    +0.258 A 
ATOM     28  O   LIG    1        5.764  -2.064  -1.401  0.00  0.00    -0.267 OA
ATOM     29  C   LIG    1        4.393  -0.256  -1.221  0.00  0.00    +0.112 A 
ENDBRANCH  18  20
ENDBRANCH  17  18
ENDBRANCH  16  17
ENDBRANCH   1  16
TORSDOF 7
