REMARK  Name = molecules/ICUTUKXCWQYESQ-UHFFFAOYSA-N.pdb
REMARK                            x       y       z     vdW  Elec       q    Type
REMARK                         _______ _______ _______ _____ _____    ______ ____
ROOT
ATOM      1  N   LIG    1        1.208  -0.786  -0.521  0.00  0.00    -0.269 N 
ATOM      2  C   LIG    1       -0.001  -0.184  -0.143  0.00  0.00    +0.308 C 
ATOM      3  O   LIG    1        0.040   0.846   0.550  0.00  0.00    -0.252 OA
ATOM      4  N   LIG    1       -1.246  -0.752  -0.553  0.00  0.00    -0.269 N 
ATOM      5  H   LIG    1       -1.201  -1.632  -1.145  0.00  0.00    +0.156 HD
ATOM      6  H   LIG    1        1.152  -1.662  -1.109  0.00  0.00    +0.156 HD
ENDROOT
BRANCH   1   7
ATOM      7  C   LIG    1        2.477  -0.293  -0.172  0.00  0.00    +0.036 A 
ATOM      8  C   LIG    1        2.724   1.013   0.197  0.00  0.00    +0.025 A 
ATOM      9  C   LIG    1        4.050   1.352   0.493  0.00  0.00    +0.023 A 
ATOM     10  C   LIG    1        5.062   0.424   0.420  0.00  0.00    +0.059 A 
ATOM     11 CL   LIG    1        6.701   0.870   0.793  0.00  0.00    -0.082 Cl
ATOM     12  C   LIG    1        4.803  -0.878   0.049  0.00  0.00    +0.061 A 
ATOM     13 CL   LIG    1        6.112  -2.071  -0.045  0.00  0.00    -0.082 Cl
ATOM     14  C   LIG    1        3.518  -1.223  -0.242  0.00  0.00    +0.044 A 
ENDBRANCH   1   7
BRANCH   4  15
ATOM     15  C   LIG    1       -2.500  -0.249  -0.237  0.00  0.00    +0.035 A 
ATOM     16  C   LIG    1       -2.724   0.703   0.711  0.00  0.00    +0.025 A 
ATOM     17  C   LIG    1       -4.032   1.152   0.986  0.00  0.00    +0.022 A 
ATOM     18  C   LIG    1       -5.089   0.614   0.283  0.00  0.00    +0.041 A 
ATOM     19 CL   LIG    1       -6.708   1.171   0.626  0.00  0.00    -0.084 Cl
ATOM     20  C   LIG    1       -4.900  -0.354  -0.684  0.00  0.00    +0.022 A 
ATOM     21  C   LIG    1       -3.618  -0.760  -0.920  0.00  0.00    +0.025 A 
ENDBRANCH   4  15
TORSDOF 2
