REMARK  Name = molecules/IDBPHNDTYPBSNI-UHFFFAOYSA-N.pdb
REMARK                            x       y       z     vdW  Elec       q    Type
REMARK                         _______ _______ _______ _____ _____    ______ ____
ROOT
ATOM      1  C   LIG    1       -1.450   0.398  -0.156  0.00  0.00    +0.068 C 
ATOM      2  C   LIG    1       -0.652   1.062   0.946  0.00  0.00    +0.044 C 
ATOM      3  C   LIG    1        0.775   0.521   0.897  0.00  0.00    +0.086 C 
ATOM      4  N   LIG    1        1.246   0.395  -0.442  0.00  0.00    -0.300 NA
ATOM      5  C   LIG    1        0.593   1.345  -1.282  0.00  0.00    +0.086 C 
ATOM      6  C   LIG    1       -0.836   0.815  -1.474  0.00  0.00    +0.044 C 
ENDROOT
BRANCH   1   7
ATOM      7  N   LIG    1       -2.842   0.775  -0.091  0.00  0.00    -0.263 N 
ATOM      8  C   LIG    1       -3.281   2.117  -0.277  0.00  0.00    +0.220 C 
ATOM      9  O   LIG    1       -2.471   3.056  -0.491  0.00  0.00    -0.275 OA
BRANCH   7  10
ATOM     10  C   LIG    1       -3.836  -0.222   0.165  0.00  0.00    +0.037 A 
ATOM     11  C   LIG    1       -4.060  -0.628   1.458  0.00  0.00    +0.023 A 
ATOM     12  C   LIG    1       -5.011  -1.584   1.710  0.00  0.00    +0.002 A 
ATOM     13  C   LIG    1       -5.742  -2.138   0.691  0.00  0.00    +0.000 A 
ATOM     14  C   LIG    1       -5.542  -1.751  -0.622  0.00  0.00    +0.002 A 
ATOM     15  C   LIG    1       -4.573  -0.783  -0.848  0.00  0.00    +0.023 A 
ENDBRANCH   7  10
BRANCH   8  16
ATOM     16  C   LIG    1       -4.727   2.464  -0.226  0.00  0.00    +0.093 C 
ATOM     17  C   LIG    1       -4.957   3.932  -0.448  0.00  0.00    +0.013 C 
ENDBRANCH   8  16
ENDBRANCH   1   7
BRANCH   4  18
ATOM     18  C   LIG    1        2.640   0.217  -0.628  0.00  0.00    +0.108 C 
BRANCH  18  19
ATOM     19  C   LIG    1        3.152  -0.829   0.323  0.00  0.00    +0.166 C 
BRANCH  19  20
ATOM     20  N   LIG    1        4.565  -1.072   0.173  0.00  0.00    -0.192 N 
ATOM     21  C   LIG    1        5.596  -0.479   0.788  0.00  0.00    +0.364 A 
ATOM     22  O   LIG    1        5.540   0.453   1.659  0.00  0.00    -0.243 OA
ATOM     23  N   LIG    1        6.738  -1.017   0.346  0.00  0.00    -0.194 N 
ATOM     24  N   LIG    1        6.385  -1.934  -0.534  0.00  0.00    -0.043 NA
ATOM     25  N   LIG    1        5.076  -1.977  -0.647  0.00  0.00    -0.043 NA
BRANCH  23  26
ATOM     26  C   LIG    1        8.117  -0.744   0.672  0.00  0.00    +0.147 C 
ATOM     27  C   LIG    1        8.620   0.329  -0.302  0.00  0.00    +0.029 C 
ENDBRANCH  23  26
ENDBRANCH  19  20
ENDBRANCH  18  19
ENDBRANCH   4  18
BRANCH   1  28
ATOM     28  C   LIG    1       -1.340  -1.092   0.068  0.00  0.00    +0.185 C 
BRANCH  28  29
ATOM     29  O   LIG    1       -2.038  -1.820  -0.890  0.00  0.00    -0.381 OA
ATOM     30  C   LIG    1       -1.880  -3.171  -0.594  0.00  0.00    +0.194 C 
ENDBRANCH  28  29
ENDBRANCH   1  28
TORSDOF 9
