REMARK  Name = molecules/IDINUJSAMVOPCM-INIZCTEOSA-N.pdb
REMARK                            x       y       z     vdW  Elec       q    Type
REMARK                         _______ _______ _______ _____ _____    ______ ____
ROOT
ATOM      1  C   LIG    1       -0.602  -1.914  -0.873  0.00  0.00    +0.290 C 
ENDROOT
BRANCH   1   2
ATOM      2  N   LIG    1       -1.255  -0.954  -0.137  0.00  0.00    -0.283 N 
ATOM      3  H   LIG    1       -1.079  -1.818   0.964  0.00  0.00    +0.152 HD
ATOM      4  C   LIG    1       -1.910  -0.093   0.712  0.00  0.00    +0.215 C 
ATOM      5  O   LIG    1       -2.199  -0.271   1.900  0.00  0.00    -0.276 OA
BRANCH   4   6
ATOM      6  C   LIG    1       -2.413   1.272   0.225  0.00  0.00    +0.096 C 
BRANCH   6   7
ATOM      7  C   LIG    1       -3.507   1.752   1.141  0.00  0.00    +0.009 C 
BRANCH   7   8
ATOM      8  C   LIG    1       -4.654   0.802   1.272  0.00  0.00    +0.001 C 
BRANCH   8   9
ATOM      9  C   LIG    1       -5.371   0.492  -0.020  0.00  0.00    +0.003 C 
BRANCH   9  10
ATOM     10  C   LIG    1       -6.411  -0.566   0.307  0.00  0.00    +0.037 C 
BRANCH  10  11
ATOM     11  C   LIG    1       -7.214  -1.019  -0.857  0.00  0.00    +0.196 C 
BRANCH  11  12
ATOM     12  N   LIG    1       -7.971   0.075  -1.411  0.00  0.00    -0.276 N 
ATOM     13  H   LIG    1       -7.752   0.458  -2.330  0.00  0.00    +0.258 HD
BRANCH  12  14
ATOM     14  C   LIG    1       -9.035   0.593  -0.596  0.00  0.00    +0.376 C 
ATOM     15  N   LIG    1       -9.149   1.766  -0.294  0.00  0.00    -0.130 NA
ATOM     16  H   LIG    1       -9.207   2.680  -0.080  0.00  0.00    +0.306 HD
BRANCH  14  17
ATOM     17  N   LIG    1       -9.967  -0.410  -0.125  0.00  0.00    -0.289 N 
ATOM     18  H   LIG    1       -9.611  -1.033   0.630  0.00  0.00    +0.255 HD
ATOM     19  H   LIG    1      -10.895  -0.481  -0.526  0.00  0.00    +0.255 HD
ENDBRANCH  14  17
ENDBRANCH  12  14
ENDBRANCH  11  12
ENDBRANCH  10  11
ENDBRANCH   9  10
ENDBRANCH   8   9
ENDBRANCH   7   8
ENDBRANCH   6   7
ENDBRANCH   4   6
ENDBRANCH   1   2
BRANCH   1  20
ATOM     20  C   LIG    1        0.869  -1.991  -0.484  0.00  0.00    +0.260 C 
ATOM     21  N   LIG    1        1.424  -0.964   0.286  0.00  0.00    -0.312 N 
ATOM     22  H   LIG    1        0.919  -0.210   0.749  0.00  0.00    +0.149 HD
ATOM     23  O   LIG    1        1.557  -2.959  -0.856  0.00  0.00    -0.271 OA
BRANCH  21  24
ATOM     24  C   LIG    1        2.859  -1.134   0.660  0.00  0.00    +0.104 C 
BRANCH  24  25
ATOM     25  C   LIG    1        3.459   0.045   1.304  0.00  0.00    +0.020 C 
BRANCH  25  26
ATOM     26  C   LIG    1        4.122   0.971   0.252  0.00  0.00    +0.017 C 
BRANCH  26  27
ATOM     27  C   LIG    1        5.398   0.271  -0.197  0.00  0.00    +0.081 C 
BRANCH  27  28
ATOM     28  N   LIG    1        6.086   1.006  -1.201  0.00  0.00    -0.316 NA
ATOM     29  H   LIG    1        5.626   0.951  -2.139  0.00  0.00    +0.122 HD
BRANCH  28  30
ATOM     30  C   LIG    1        7.476   0.511  -1.317  0.00  0.00    +0.082 C 
BRANCH  30  31
ATOM     31  C   LIG    1        8.271   1.046  -0.169  0.00  0.00    +0.030 C 
BRANCH  31  32
ATOM     32  C   LIG    1        9.680   0.472  -0.178  0.00  0.00    +0.079 C 
BRANCH  32  33
ATOM     33  N   LIG    1        9.562  -0.979  -0.009  0.00  0.00    -0.330 NA
ATOM     34  H   LIG    1        8.909  -1.085   0.840  0.00  0.00    +0.118 HD
ATOM     35  H   LIG    1       10.495  -1.368   0.221  0.00  0.00    +0.118 HD
ENDBRANCH  32  33
ENDBRANCH  31  32
ENDBRANCH  30  31
ENDBRANCH  28  30
ENDBRANCH  27  28
ENDBRANCH  26  27
ENDBRANCH  25  26
ENDBRANCH  24  25
ENDBRANCH  21  24
ENDBRANCH   1  20
BRANCH   1  36
ATOM     36  O   LIG    1       -0.551  -1.721  -2.279  0.00  0.00    -0.367 OA
ATOM     37  H   LIG    1        0.187  -1.113  -2.450  0.00  0.00    +0.212 HD
ENDBRANCH   1  36
TORSDOF 21
