REMARK  Name = molecules/IDKAXRLETRCXKS-UHFFFAOYSA-N.pdb
REMARK                            x       y       z     vdW  Elec       q    Type
REMARK                         _______ _______ _______ _____ _____    ______ ____
ROOT
ATOM      1  C   LIG    1        0.632  -0.627  -0.093  0.00  0.00    +0.132 A 
ATOM      2  C   LIG    1        0.166  -1.732   0.567  0.00  0.00    +0.046 A 
ATOM      3  C   LIG    1        1.023  -2.768   0.859  0.00  0.00    +0.004 A 
ATOM      4  C   LIG    1        2.346  -2.750   0.519  0.00  0.00    +0.001 A 
ATOM      5  C   LIG    1        2.816  -1.639  -0.144  0.00  0.00    +0.008 A 
ATOM      6  C   LIG    1        1.971  -0.591  -0.446  0.00  0.00    +0.005 A 
ENDROOT
BRANCH   1   7
ATOM      7  O   LIG    1       -0.193   0.403  -0.393  0.00  0.00    -0.454 OA
BRANCH   7   8
ATOM      8  C   LIG    1       -1.513   0.590  -0.202  0.00  0.00    +0.147 A 
ATOM      9  C   LIG    1       -1.951   1.631   0.624  0.00  0.00    +0.049 A 
ATOM     10  C   LIG    1       -3.309   1.804   0.805  0.00  0.00    +0.023 A 
ATOM     11  C   LIG    1       -4.252   0.996   0.207  0.00  0.00    +0.043 A 
ATOM     12 CL   LIG    1       -5.978   1.213   0.434  0.00  0.00    -0.083 Cl
ATOM     13  C   LIG    1       -3.816  -0.033  -0.610  0.00  0.00    +0.043 A 
ATOM     14  C   LIG    1       -2.445  -0.218  -0.801  0.00  0.00    +0.085 A 
ATOM     15 CL   LIG    1       -1.900  -1.495  -1.849  0.00  0.00    -0.080 Cl
ENDBRANCH   7   8
ENDBRANCH   1   7
BRANCH   6  16
ATOM     16  C   LIG    1        2.549   0.586  -1.167  0.00  0.00    +0.159 C 
BRANCH  16  17
ATOM     17  C   LIG    1        2.732   1.693  -0.193  0.00  0.00    +0.309 C 
ATOM     18  O   LIG    1        2.442   1.621   1.025  0.00  0.00    -0.251 OA
BRANCH  17  19
ATOM     19  O   LIG    1        3.261   2.886  -0.662  0.00  0.00    -0.480 OA
ATOM     20  H   LIG    1        2.705   3.643  -1.042  0.00  0.00    +0.295 HD
ENDBRANCH  17  19
ENDBRANCH  16  17
ENDBRANCH   6  16
TORSDOF 5
