REMARK  Name = molecules/IDPUKCWIGUEADI-UHFFFAOYSA-N.pdb
REMARK                            x       y       z     vdW  Elec       q    Type
REMARK                         _______ _______ _______ _____ _____    ______ ____
ROOT
ATOM      1  C   LIG    1        0.663  -0.125  -0.095  0.00  0.00    +0.111 A 
ATOM      2  C   LIG    1        1.246  -1.133   0.618  0.00  0.00    +0.275 A 
ATOM      3  O   LIG    1        0.609  -2.091   1.109  0.00  0.00    -0.266 OA
ATOM      4  N   LIG    1        2.578  -1.166   0.843  0.00  0.00    -0.274 N 
ATOM      5  H   LIG    1        3.004  -1.968   1.404  0.00  0.00    +0.173 HD
ATOM      6  C   LIG    1        3.406  -0.217   0.382  0.00  0.00    +0.327 A 
ATOM      7  O   LIG    1        4.660  -0.292   0.619  0.00  0.00    -0.247 OA
ATOM      8  N   LIG    1        2.853   0.776  -0.321  0.00  0.00    -0.313 N 
ATOM      9  H   LIG    1        3.487   1.544  -0.698  0.00  0.00    +0.170 HD
ATOM     10  C   LIG    1        1.546   0.863  -0.575  0.00  0.00    +0.116 A 
ENDROOT
BRANCH   1  11
ATOM     11  N   LIG    1       -0.709  -0.046  -0.405  0.00  0.00    -0.322 N 
BRANCH  11  12
ATOM     12  C   LIG    1       -1.410   1.214  -0.418  0.00  0.00    +0.121 C 
BRANCH  12  13
ATOM     13  C   LIG    1       -0.934   2.240   0.544  0.00  0.00    +0.127 C 
ATOM     14 CL   LIG    1       -1.119   1.608   2.244  0.00  0.00    -0.124 Cl
ENDBRANCH  12  13
ENDBRANCH  11  12
BRANCH  11  15
ATOM     15  C   LIG    1       -1.413  -1.201  -0.903  0.00  0.00    +0.121 C 
BRANCH  15  16
ATOM     16  C   LIG    1       -2.652  -1.570  -0.164  0.00  0.00    +0.127 C 
ATOM     17 CL   LIG    1       -2.497  -1.892   1.555  0.00  0.00    -0.124 Cl
ENDBRANCH  15  16
ENDBRANCH  11  15
ENDBRANCH   1  11
TORSDOF 5
