REMARK  Name = molecules/IDUMOVRJNBNOTR-BIZLIJPVSA-N.pdb
REMARK                            x       y       z     vdW  Elec       q    Type
REMARK                         _______ _______ _______ _____ _____    ______ ____
ROOT
ATOM      1  C   LIG    1        2.447   0.618  -0.353  0.00  0.00    +0.270 C 
ATOM      2  N   LIG    1        1.599  -0.353   0.191  0.00  0.00    -0.203 N 
ATOM      3  H   LIG    1        2.009  -1.184   0.666  0.00  0.00    +0.178 HD
ATOM      4  O   LIG    1        2.016   1.646  -0.941  0.00  0.00    -0.268 OA
ENDROOT
BRANCH   1   5
ATOM      5  C   LIG    1        3.905   0.453  -0.245  0.00  0.00    +0.078 A 
ATOM      6  C   LIG    1        4.589  -0.570   0.342  0.00  0.00    +0.023 A 
ATOM      7  C   LIG    1        5.931  -0.514   0.323  0.00  0.00    +0.041 A 
ATOM      8  C   LIG    1        6.506   0.570  -0.287  0.00  0.00    +0.164 A 
ATOM      9  S   LIG    1        5.148   1.472  -0.812  0.00  0.00    -0.060 S 
BRANCH   8  10
ATOM     10  N   LIG    1        7.896   0.870  -0.444  0.00  0.00    +0.063 N 
ATOM     11  O   LIG    1        8.725   0.080   0.013  0.00  0.00    -0.126 OA
ATOM     12  O   LIG    1        8.247   2.015  -1.091  0.00  0.00    -0.126 OA
ENDBRANCH   8  10
ENDBRANCH   1   5
BRANCH   2  13
ATOM     13  N   LIG    1        0.205  -0.297   0.145  0.00  0.00    -0.188 NA
ATOM     14  C   LIG    1       -0.466  -0.343  -0.951  0.00  0.00    +0.130 C 
BRANCH  14  15
ATOM     15  C   LIG    1       -1.943  -0.280  -0.947  0.00  0.00    +0.025 C 
ATOM     16  C   LIG    1       -2.620  -0.175   0.181  0.00  0.00    +0.048 C 
BRANCH  16  17
ATOM     17  C   LIG    1       -4.084  -0.112   0.207  0.00  0.00    +0.131 A 
ATOM     18  C   LIG    1       -4.866  -0.002   1.336  0.00  0.00    +0.052 A 
ATOM     19  C   LIG    1       -6.171   0.023   0.898  0.00  0.00    +0.076 A 
ATOM     20  C   LIG    1       -6.124  -0.070  -0.460  0.00  0.00    +0.280 A 
ATOM     21  O   LIG    1       -4.856  -0.151  -0.859  0.00  0.00    -0.435 OA
BRANCH  20  22
ATOM     22  N   LIG    1       -7.242  -0.084  -1.352  0.00  0.00    +0.093 N 
ATOM     23  O   LIG    1       -8.381  -0.002  -0.860  0.00  0.00    -0.123 OA
ATOM     24  O   LIG    1       -7.060  -0.183  -2.713  0.00  0.00    -0.123 OA
ENDBRANCH  20  22
ENDBRANCH  16  17
ENDBRANCH  14  15
ENDBRANCH   2  13
TORSDOF 6
