REMARK  Name = molecules/IDWVKNARDDZONS-UHFFFAOYSA-N.pdb
REMARK                            x       y       z     vdW  Elec       q    Type
REMARK                         _______ _______ _______ _____ _____    ______ ____
ROOT
ATOM      1  N   LIG    1        0.160  -0.081   0.280  0.00  0.00    -0.305 N 
ATOM      2  C   LIG    1       -0.456   1.200   0.312  0.00  0.00    +0.068 A 
ATOM      3  C   LIG    1       -1.786   1.585   0.442  0.00  0.00    +0.065 A 
ATOM      4  N   LIG    1       -2.929   0.753   0.588  0.00  0.00    -0.353 N 
ATOM      5  H   LIG    1       -3.806   1.248   0.894  0.00  0.00    +0.166 HD
ATOM      6  C   LIG    1       -3.037  -0.660   0.373  0.00  0.00    +0.052 A 
ATOM      7  C   LIG    1       -4.342  -1.073   0.334  0.00  0.00    +0.026 A 
ATOM      8  C   LIG    1       -4.637  -2.412   0.134  0.00  0.00    +0.002 A 
ATOM      9  C   LIG    1       -3.614  -3.290  -0.021  0.00  0.00    +0.001 A 
ATOM     10  C   LIG    1       -2.300  -2.937   0.009  0.00  0.00    +0.015 A 
ATOM     11  C   LIG    1       -2.023  -1.581   0.212  0.00  0.00    +0.063 A 
ATOM     12  C   LIG    1       -2.113   2.944   0.441  0.00  0.00    +0.047 A 
ATOM     13  C   LIG    1       -1.152   3.925   0.313  0.00  0.00    +0.043 A 
ATOM     14 CL   LIG    1       -1.646   5.605   0.322  0.00  0.00    -0.083 Cl
ATOM     15  C   LIG    1        0.168   3.542   0.184  0.00  0.00    +0.022 A 
ATOM     16  C   LIG    1        0.481   2.175   0.187  0.00  0.00    +0.029 A 
ATOM     17  C   LIG    1       -0.596  -1.311   0.229  0.00  0.00    +0.261 A 
ATOM     18  O   LIG    1        0.141  -2.332   0.193  0.00  0.00    -0.267 OA
ENDROOT
BRANCH   1  19
ATOM     19  C   LIG    1        1.579  -0.198   0.303  0.00  0.00    +0.141 C 
BRANCH  19  20
ATOM     20  C   LIG    1        2.258  -0.222  -1.023  0.00  0.00    +0.105 C 
BRANCH  20  21
ATOM     21  N   LIG    1        3.674  -0.339  -0.878  0.00  0.00    -0.307 NA
ATOM     22  C   LIG    1        4.335   0.785  -0.314  0.00  0.00    +0.104 C 
ATOM     23  C   LIG    1        4.120  -1.613  -0.397  0.00  0.00    +0.104 C 
ENDBRANCH  20  21
ENDBRANCH  19  20
ENDBRANCH   1  19
TORSDOF 3
