REMARK  Name = molecules/IFKLAQQSCNILHL-QHAWAJNXSA-N.pdb
REMARK                            x       y       z     vdW  Elec       q    Type
REMARK                         _______ _______ _______ _____ _____    ______ ____
ROOT
ATOM      1  C   LIG    1       -0.443  -0.836  -0.463  0.00  0.00    +0.091 C 
ATOM      2  C   LIG    1       -1.468  -0.579   0.599  0.00  0.00    +0.027 C 
ATOM      3  C   LIG    1       -0.740  -0.429   1.908  0.00  0.00    +0.030 C 
ATOM      4  C   LIG    1        0.730  -0.777   1.836  0.00  0.00    +0.086 C 
ATOM      5  N   LIG    1        1.423  -0.114   0.796  0.00  0.00    -0.296 NA
ATOM      6  C   LIG    1       -2.376  -1.756   0.704  0.00  0.00    +0.014 C 
ATOM      7  C   LIG    1       -2.845  -2.329  -0.573  0.00  0.00    +0.001 C 
ATOM      8  C   LIG    1       -1.974  -2.184  -1.762  0.00  0.00    +0.003 C 
ATOM      9  C   LIG    1       -2.124   0.701   0.279  0.00  0.00    -0.032 A 
ATOM     10  C   LIG    1       -3.459   0.957   0.351  0.00  0.00    +0.050 A 
ATOM     11  C   LIG    1       -4.035   2.176   0.036  0.00  0.00    +0.117 A 
ATOM     12  C   LIG    1       -3.190   3.189  -0.377  0.00  0.00    +0.045 A 
ATOM     13  C   LIG    1       -1.831   2.971  -0.462  0.00  0.00    +0.007 A 
ATOM     14  C   LIG    1       -1.303   1.738  -0.138  0.00  0.00    -0.042 A 
ATOM     15  C   LIG    1        0.168   1.609  -0.255  0.00  0.00    +0.057 C 
ATOM     16  C   LIG    1        0.639   0.202  -0.374  0.00  0.00    +0.093 C 
ATOM     17  C   LIG    1       -1.154  -0.890  -1.788  0.00  0.00    +0.037 C 
ENDROOT
BRANCH   1  18
ATOM     18  O   LIG    1        0.169  -2.082  -0.293  0.00  0.00    -0.386 OA
ATOM     19  H   LIG    1        0.498  -2.468  -1.124  0.00  0.00    +0.210 HD
ENDBRANCH   1  18
BRANCH  11  20
ATOM     20  O   LIG    1       -5.413   2.401   0.123  0.00  0.00    -0.507 OA
ATOM     21  H   LIG    1       -5.992   2.207  -0.706  0.00  0.00    +0.292 HD
ENDBRANCH  11  20
BRANCH   5  22
ATOM     22  C   LIG    1        2.663  -0.692   0.415  0.00  0.00    +0.088 C 
BRANCH  22  23
ATOM     23  C   LIG    1        3.492   0.421  -0.241  0.00  0.00    +0.003 C 
ATOM     24  C   LIG    1        4.239   1.187   0.862  0.00  0.00    +0.005 C 
ATOM     25  C   LIG    1        5.351   0.160   0.707  0.00  0.00    +0.001 C 
ATOM     26  C   LIG    1        4.841  -0.053  -0.715  0.00  0.00    +0.005 C 
ENDBRANCH  22  23
ENDBRANCH   5  22
TORSDOF 4
