REMARK  Name = molecules/IFKPLJWIEQBPGG-KRWDZBQOSA-N.pdb
REMARK                            x       y       z     vdW  Elec       q    Type
REMARK                         _______ _______ _______ _____ _____    ______ ____
ROOT
ATOM      1  C   LIG    1       -0.583   0.137   0.333  0.00  0.00    +0.082 C 
ENDROOT
BRANCH   1   2
ATOM      2  C   LIG    1       -0.786   1.461  -0.350  0.00  0.00    -0.029 A 
ATOM      3  C   LIG    1        0.081   2.505  -0.215  0.00  0.00    +0.005 A 
ATOM      4  C   LIG    1       -0.149   3.732  -0.851  0.00  0.00    +0.000 A 
ATOM      5  C   LIG    1       -1.289   3.827  -1.614  0.00  0.00    +0.000 A 
ATOM      6  C   LIG    1       -2.169   2.765  -1.749  0.00  0.00    +0.000 A 
ATOM      7  C   LIG    1       -1.944   1.563  -1.126  0.00  0.00    +0.005 A 
ENDBRANCH   1   2
BRANCH   1   8
ATOM      8  C   LIG    1       -0.930  -0.980  -0.570  0.00  0.00    -0.029 A 
ATOM      9  C   LIG    1       -1.335  -2.221  -0.131  0.00  0.00    +0.005 A 
ATOM     10  C   LIG    1       -1.641  -3.265  -0.974  0.00  0.00    +0.000 A 
ATOM     11  C   LIG    1       -1.552  -3.109  -2.328  0.00  0.00    +0.000 A 
ATOM     12  C   LIG    1       -1.152  -1.894  -2.805  0.00  0.00    +0.000 A 
ATOM     13  C   LIG    1       -0.847  -0.852  -1.962  0.00  0.00    +0.005 A 
ENDBRANCH   1   8
BRANCH   1  14
ATOM     14  C   LIG    1       -1.518   0.183   1.469  0.00  0.00    +0.148 C 
ATOM     15  O   LIG    1       -2.458  -0.585   1.482  0.00  0.00    -0.296 OA
BRANCH  14  16
ATOM     16  C   LIG    1       -1.393   1.116   2.619  0.00  0.00    +0.072 C 
ATOM     17  C   LIG    1       -2.483   0.917   3.636  0.00  0.00    +0.012 C 
ENDBRANCH  14  16
ENDBRANCH   1  14
BRANCH   1  18
ATOM     18  C   LIG    1        0.853  -0.088   0.772  0.00  0.00    +0.022 C 
ATOM     19  C   LIG    1        0.968  -1.215   1.737  0.00  0.00    +0.010 C 
BRANCH  18  20
ATOM     20  C   LIG    1        1.794  -0.164  -0.381  0.00  0.00    +0.088 C 
BRANCH  20  21
ATOM     21  N   LIG    1        3.171  -0.367   0.005  0.00  0.00    -0.308 NA
ATOM     22  C   LIG    1        3.474  -1.781   0.301  0.00  0.00    +0.104 C 
ATOM     23  C   LIG    1        3.926  -0.135  -1.267  0.00  0.00    +0.104 C 
ENDBRANCH  20  21
ENDBRANCH  18  20
ENDBRANCH   1  18
TORSDOF 7
