REMARK  Name = molecules/IGCSSLDDCHLXGL-UHFFFAOYSA-N.pdb
REMARK                            x       y       z     vdW  Elec       q    Type
REMARK                         _______ _______ _______ _____ _____    ______ ____
ROOT
ATOM      1  C   LIG    1       -1.453   1.234  -0.339  0.00  0.00    +0.139 A 
ATOM      2  C   LIG    1       -0.134   0.838  -0.173  0.00  0.00    +0.106 A 
ATOM      3  C   LIG    1        0.178  -0.496   0.051  0.00  0.00    +0.146 A 
ATOM      4  O   LIG    1        1.424  -0.815   0.199  0.00  0.00    -0.454 OA
ATOM      5  C   LIG    1        2.394   0.080   0.145  0.00  0.00    +0.139 A 
ATOM      6  C   LIG    1        2.159   1.410  -0.072  0.00  0.00    +0.098 A 
ATOM      7  C   LIG    1       -0.859  -1.415   0.104  0.00  0.00    +0.092 A 
ATOM      8  C   LIG    1       -2.168  -1.060  -0.055  0.00  0.00    +0.128 A 
ATOM      9  C   LIG    1        0.834   1.812  -0.239  0.00  0.00    +0.197 A 
ATOM     10  O   LIG    1        0.533   3.017  -0.443  0.00  0.00    -0.287 OA
ATOM     11  C   LIG    1       -2.435   0.291  -0.278  0.00  0.00    +0.092 A 
ENDROOT
BRANCH   5  12
ATOM     12  C   LIG    1        3.760  -0.385   0.325  0.00  0.00    +0.017 A 
ATOM     13  C   LIG    1        4.031  -1.741   0.549  0.00  0.00    +0.011 A 
ATOM     14  C   LIG    1        5.299  -2.237   0.725  0.00  0.00    +0.001 A 
ATOM     15  C   LIG    1        6.388  -1.401   0.689  0.00  0.00    +0.000 A 
ATOM     16  C   LIG    1        6.150  -0.071   0.472  0.00  0.00    +0.001 A 
ATOM     17  C   LIG    1        4.861   0.438   0.292  0.00  0.00    +0.011 A 
ENDBRANCH   5  12
BRANCH   1  18
ATOM     18  O   LIG    1       -1.734   2.562  -0.559  0.00  0.00    -0.480 OA
BRANCH  18  19
ATOM     19  C   LIG    1       -3.012   3.092  -0.742  0.00  0.00    +0.349 C 
BRANCH  19  20
ATOM     20  C   LIG    1       -2.883   4.558  -0.949  0.00  0.00    +0.343 C 
ATOM     21  O   LIG    1       -1.769   5.148  -0.947  0.00  0.00    -0.247 OA
BRANCH  20  22
ATOM     22  O   LIG    1       -4.003   5.373  -1.161  0.00  0.00    -0.478 OA
ATOM     23  H   LIG    1       -4.012   6.317  -0.791  0.00  0.00    +0.295 HD
ENDBRANCH  20  22
ENDBRANCH  19  20
ENDBRANCH  18  19
ENDBRANCH   1  18
BRANCH   8  24
ATOM     24  O   LIG    1       -3.240  -1.915  -0.015  0.00  0.00    -0.481 OA
BRANCH  24  25
ATOM     25  C   LIG    1       -3.196  -3.289   0.193  0.00  0.00    +0.349 C 
BRANCH  25  26
ATOM     26  C   LIG    1       -4.567  -3.837   0.164  0.00  0.00    +0.343 C 
ATOM     27  O   LIG    1       -4.819  -5.055   0.324  0.00  0.00    -0.247 OA
BRANCH  26  28
ATOM     28  O   LIG    1       -5.629  -2.980  -0.050  0.00  0.00    -0.478 OA
ATOM     29  H   LIG    1       -6.167  -2.650   0.752  0.00  0.00    +0.295 HD
ENDBRANCH  26  28
ENDBRANCH  25  26
ENDBRANCH  24  25
ENDBRANCH   8  24
TORSDOF 9
