REMARK  Name = molecules/IHEHEFLXQFOQJO-UHFFFAOYSA-N.pdb
REMARK                            x       y       z     vdW  Elec       q    Type
REMARK                         _______ _______ _______ _____ _____    ______ ____
ROOT
ATOM      1  C   LIG    1       -1.117   0.524   0.135  0.00  0.00    +0.086 C 
ENDROOT
BRANCH   1   2
ATOM      2  N   LIG    1        0.100   0.059  -0.488  0.00  0.00    -0.302 NA
ATOM      3  C   LIG    1        0.661  -1.116   0.122  0.00  0.00    +0.086 C 
ATOM      4  C   LIG    1        2.124  -0.976   0.490  0.00  0.00    +0.047 C 
ATOM      5  C   LIG    1        2.964  -0.492  -0.630  0.00  0.00    +0.101 C 
ATOM      6  C   LIG    1        2.214   0.552  -1.427  0.00  0.00    +0.047 C 
ATOM      7  C   LIG    1        1.105   1.128  -0.531  0.00  0.00    +0.086 C 
BRANCH   5   8
ATOM      8  N   LIG    1        4.231  -0.043  -0.173  0.00  0.00    -0.289 NA
ATOM      9  C   LIG    1        4.217   1.145   0.660  0.00  0.00    +0.085 C 
ATOM     10  C   LIG    1        5.633   1.507   1.045  0.00  0.00    +0.015 C 
ATOM     11  C   LIG    1        6.650   0.728   0.241  0.00  0.00    +0.002 C 
ATOM     12  C   LIG    1        6.463  -0.751   0.259  0.00  0.00    +0.015 C 
ATOM     13  C   LIG    1        5.027  -1.072   0.466  0.00  0.00    +0.085 C 
ENDBRANCH   5   8
BRANCH   5  14
ATOM     14  C   LIG    1        3.191  -1.636  -1.597  0.00  0.00    +0.231 C 
ATOM     15  O   LIG    1        2.276  -2.367  -2.010  0.00  0.00    -0.274 OA
ATOM     16  N   LIG    1        4.512  -1.871  -2.046  0.00  0.00    -0.328 N 
ATOM     17  H   LIG    1        4.908  -2.829  -2.070  0.00  0.00    +0.145 HD
ATOM     18  H   LIG    1        5.156  -1.107  -2.376  0.00  0.00    +0.145 HD
ENDBRANCH   5  14
ENDBRANCH   1   2
BRANCH   1  19
ATOM     19  C   LIG    1       -2.198  -0.512   0.174  0.00  0.00    +0.046 C 
BRANCH  19  20
ATOM     20  C   LIG    1       -3.461   0.009   0.832  0.00  0.00    +0.108 C 
BRANCH  20  21
ATOM     21  C   LIG    1       -4.524  -1.006   0.874  0.00  0.00    -0.023 A 
ATOM     22  C   LIG    1       -5.379  -1.017   1.954  0.00  0.00    +0.005 A 
ATOM     23  C   LIG    1       -6.410  -1.946   2.057  0.00  0.00    +0.000 A 
ATOM     24  C   LIG    1       -6.585  -2.881   1.058  0.00  0.00    +0.000 A 
ATOM     25  C   LIG    1       -5.723  -2.854  -0.011  0.00  0.00    +0.000 A 
ATOM     26  C   LIG    1       -4.696  -1.938  -0.126  0.00  0.00    +0.005 A 
ENDBRANCH  20  21
BRANCH  20  27
ATOM     27  C   LIG    1       -3.888   1.225   0.091  0.00  0.00    -0.023 A 
ATOM     28  C   LIG    1       -4.030   2.416   0.751  0.00  0.00    +0.005 A 
ATOM     29  C   LIG    1       -4.428   3.573   0.099  0.00  0.00    +0.000 A 
ATOM     30  C   LIG    1       -4.692   3.560  -1.236  0.00  0.00    +0.000 A 
ATOM     31  C   LIG    1       -4.550   2.360  -1.902  0.00  0.00    +0.000 A 
ATOM     32  C   LIG    1       -4.154   1.199  -1.266  0.00  0.00    +0.005 A 
ENDBRANCH  20  27
BRANCH  20  33
ATOM     33  C   LIG    1       -3.159   0.411   2.207  0.00  0.00    +0.079 C 
ATOM     34  N   LIG    1       -2.901   0.724   3.300  0.00  0.00    -0.195 NA
ENDBRANCH  20  33
ENDBRANCH  19  20
ENDBRANCH   1  19
TORSDOF 8
