REMARK  Name = molecules/IHLAQQPQKRMGSS-SCSAIBSYSA-N.pdb
REMARK                            x       y       z     vdW  Elec       q    Type
REMARK                         _______ _______ _______ _____ _____    ______ ____
ROOT
ATOM      1  C   LIG    1       -2.036   0.425   0.143  0.00  0.00    +0.141 C 
ATOM      2  C   LIG    1       -0.915  -0.432   0.698  0.00  0.00    +0.140 C 
ATOM      3  N   LIG    1        0.037  -0.433  -0.422  0.00  0.00    -0.290 N 
ATOM      4  C   LIG    1       -0.647  -0.102  -1.622  0.00  0.00    +0.219 C 
ATOM      5  O   LIG    1       -0.172   0.135  -2.761  0.00  0.00    -0.275 OA
ATOM      6  C   LIG    1       -2.092  -0.082  -1.284  0.00  0.00    +0.128 C 
ENDROOT
BRANCH   1   7
ATOM      7  O   LIG    1       -3.232   0.222   0.817  0.00  0.00    -0.390 OA
ATOM      8  H   LIG    1       -3.148   0.666   1.694  0.00  0.00    +0.210 HD
ENDBRANCH   1   7
BRANCH   3   9
ATOM      9  C   LIG    1        1.457  -0.716  -0.380  0.00  0.00    +0.203 C 
BRANCH   9  10
ATOM     10  C   LIG    1        2.253   0.502  -0.146  0.00  0.00    +0.228 C 
ATOM     11  O   LIG    1        1.679   1.601  -0.012  0.00  0.00    -0.274 OA
ATOM     12  N   LIG    1        3.651   0.437  -0.072  0.00  0.00    -0.328 N 
ATOM     13  H   LIG    1        4.102   0.172   0.818  0.00  0.00    +0.145 HD
ATOM     14  H   LIG    1        4.237   0.650  -0.894  0.00  0.00    +0.145 HD
ENDBRANCH   9  10
ENDBRANCH   3   9
TORSDOF 3
