REMARK  Name = molecules/IIBYAHWJQTYFKB-UHFFFAOYSA-N.pdb
REMARK                            x       y       z     vdW  Elec       q    Type
REMARK                         _______ _______ _______ _____ _____    ______ ____
ROOT
ATOM      1  C   LIG    1       -0.424  -0.234   0.258  0.00  0.00    -0.046 A 
ATOM      2  C   LIG    1       -1.021  -0.010   1.483  0.00  0.00    +0.007 A 
ATOM      3  C   LIG    1       -2.395   0.098   1.564  0.00  0.00    +0.046 A 
ATOM      4  C   LIG    1       -3.183  -0.019   0.408  0.00  0.00    +0.122 A 
ATOM      5  C   LIG    1       -2.601  -0.239  -0.800  0.00  0.00    +0.046 A 
ATOM      6  C   LIG    1       -1.221  -0.345  -0.861  0.00  0.00    +0.007 A 
ENDROOT
BRANCH   1   7
ATOM      7  C   LIG    1        1.044  -0.364   0.075  0.00  0.00    +0.054 C 
BRANCH   7   8
ATOM      8  C   LIG    1        1.681   0.965  -0.198  0.00  0.00    +0.109 C 
BRANCH   8  11
ATOM      9  C   LIG    1        3.954   0.270   0.624  0.00  0.00    +0.244 C 
ATOM     10  O   LIG    1        3.467  -0.069   1.760  0.00  0.00    -0.270 OA
ATOM     11  N   LIG    1        3.115   0.787  -0.374  0.00  0.00    -0.311 N 
ATOM     12  H   LIG    1        3.486   1.073  -1.305  0.00  0.00    +0.149 HD
BRANCH   9  13
ATOM     13  C   LIG    1        5.378   0.112   0.388  0.00  0.00    +0.037 A 
ATOM     14  C   LIG    1        6.209  -0.360   1.418  0.00  0.00    +0.014 A 
ATOM     15  C   LIG    1        7.563  -0.532   1.262  0.00  0.00    +0.021 A 
ATOM     16  C   LIG    1        8.155  -0.231   0.044  0.00  0.00    +0.041 A 
ATOM     17 CL   LIG    1        9.880  -0.451  -0.152  0.00  0.00    -0.084 Cl
ATOM     18  C   LIG    1        7.379   0.235  -0.994  0.00  0.00    +0.021 A 
ATOM     19  C   LIG    1        5.997   0.398  -0.798  0.00  0.00    +0.014 A 
ENDBRANCH   9  13
ENDBRANCH   8  11
ENDBRANCH   7   8
ENDBRANCH   1   7
BRANCH   4  20
ATOM     20  O   LIG    1       -4.539   0.099   0.569  0.00  0.00    -0.475 OA
BRANCH  20  21
ATOM     21  C   LIG    1       -5.535   0.001  -0.392  0.00  0.00    +0.200 C 
ATOM     22  C   LIG    1       -6.876   0.145   0.340  0.00  0.00    +0.067 C 
ATOM     23  C   LIG    1       -5.462   1.125  -1.407  0.00  0.00    +0.067 C 
BRANCH  21  24
ATOM     24  C   LIG    1       -5.592  -1.325  -1.066  0.00  0.00    +0.348 C 
ATOM     25  O   LIG    1       -6.406  -1.562  -1.980  0.00  0.00    -0.247 OA
BRANCH  24  26
ATOM     26  O   LIG    1       -4.707  -2.309  -0.649  0.00  0.00    -0.478 OA
ATOM     27  H   LIG    1       -4.734  -2.676   0.315  0.00  0.00    +0.295 HD
ENDBRANCH  24  26
ENDBRANCH  21  24
ENDBRANCH  20  21
ENDBRANCH   4  20
TORSDOF 8
