REMARK  Name = molecules/IIDJRNMFWXDHID-UHFFFAOYSA-N.pdb
REMARK                            x       y       z     vdW  Elec       q    Type
REMARK                         _______ _______ _______ _____ _____    ______ ____
ROOT
ATOM      1  C   LIG    1       -1.379   0.158   0.581  0.00  0.00    +0.271 C 
ENDROOT
BRANCH   1   2
ATOM      2  O   LIG    1       -2.505   0.282   1.413  0.00  0.00    -0.367 OA
ATOM      3  H   LIG    1       -3.171   0.899   1.057  0.00  0.00    +0.212 HD
ENDBRANCH   1   2
BRANCH   1   4
ATOM      4  P   LIG    1       -1.501  -1.440  -0.240  0.00  0.00    +0.371 P 
ATOM      5  O   LIG    1       -2.849  -1.622  -0.909  0.00  0.00    -0.255 OA
BRANCH   4   6
ATOM      6  O   LIG    1       -1.391  -2.667   0.941  0.00  0.00    -0.322 OA
ATOM      7  H   LIG    1       -2.277  -2.923   1.289  0.00  0.00    +0.220 HD
ENDBRANCH   4   6
BRANCH   4   8
ATOM      8  O   LIG    1       -0.289  -1.617  -1.411  0.00  0.00    -0.322 OA
ATOM      9  H   LIG    1       -0.282  -2.541  -1.743  0.00  0.00    +0.220 HD
ENDBRANCH   4   8
ENDBRANCH   1   4
BRANCH   1  10
ATOM     10  P   LIG    1       -1.456   1.460  -0.641  0.00  0.00    +0.371 P 
ATOM     11  O   LIG    1       -2.838   1.421  -1.279  0.00  0.00    -0.255 OA
BRANCH  10  12
ATOM     12  O   LIG    1       -1.279   2.997   0.035  0.00  0.00    -0.322 OA
ATOM     13  H   LIG    1       -1.683   3.681  -0.557  0.00  0.00    +0.220 HD
ENDBRANCH  10  12
BRANCH  10  14
ATOM     14  O   LIG    1       -0.346   1.222  -1.903  0.00  0.00    -0.322 OA
ATOM     15  H   LIG    1       -0.664   1.755  -2.660  0.00  0.00    +0.220 HD
ENDBRANCH  10  14
ENDBRANCH   1  10
BRANCH   1  16
ATOM     16  C   LIG    1       -0.162   0.200   1.451  0.00  0.00    +0.097 C 
BRANCH  16  17
ATOM     17  C   LIG    1        1.105   0.089   0.758  0.00  0.00    -0.025 A 
ATOM     18  C   LIG    1        1.708  -1.122   0.519  0.00  0.00    +0.007 A 
ATOM     19  C   LIG    1        2.930  -1.164  -0.154  0.00  0.00    +0.020 A 
ATOM     20  C   LIG    1        3.541  -0.001  -0.583  0.00  0.00    +0.111 A 
ATOM     21  N   LIG    1        2.934   1.156  -0.337  0.00  0.00    -0.263 NA
ATOM     22  C   LIG    1        1.744   1.225   0.316  0.00  0.00    +0.114 A 
ENDBRANCH  16  17
ENDBRANCH   1  16
TORSDOF 9
