REMARK  Name = molecules/IJTPQQVCKPZIMV-UHFFFAOYSA-N.pdb
REMARK                            x       y       z     vdW  Elec       q    Type
REMARK                         _______ _______ _______ _____ _____    ______ ____
ROOT
ATOM      1 CL   LIG    1        0.441   2.441  -1.214  0.00  0.00    -0.083 Cl
ATOM      2  C   LIG    1       -0.046   0.966  -0.384  0.00  0.00    +0.045 A 
ATOM      3  C   LIG    1        0.896   0.144   0.206  0.00  0.00    -0.026 A 
ATOM      4  C   LIG    1        0.437  -0.981   0.846  0.00  0.00    +0.006 A 
ATOM      5  C   LIG    1       -0.904  -1.334   0.932  0.00  0.00    +0.012 A 
ATOM      6  C   LIG    1       -1.817  -0.493   0.333  0.00  0.00    +0.019 A 
ATOM      7  C   LIG    1       -1.389   0.643  -0.317  0.00  0.00    +0.031 A 
ENDROOT
BRANCH   3   8
ATOM      8  C   LIG    1        2.326   0.511   0.112  0.00  0.00    +0.020 C 
ATOM      9  C   LIG    1        3.134  -0.432   0.971  0.00  0.00    +0.008 C 
ATOM     10  C   LIG    1        4.598  -0.068   0.976  0.00  0.00    +0.001 C 
ATOM     11  C   LIG    1        5.146   0.178  -0.399  0.00  0.00    +0.000 C 
ATOM     12  C   LIG    1        4.207   0.747  -1.391  0.00  0.00    +0.001 C 
ATOM     13  C   LIG    1        2.786   0.241  -1.312  0.00  0.00    +0.008 C 
ENDBRANCH   3   8
BRANCH   6  14
ATOM     14  C   LIG    1       -3.252  -0.849   0.410  0.00  0.00    +0.164 C 
ATOM     15  O   LIG    1       -3.597  -1.891   1.010  0.00  0.00    -0.292 OA
BRANCH  14  16
ATOM     16  C   LIG    1       -4.209   0.070  -0.241  0.00  0.00    +0.091 C 
BRANCH  16  17
ATOM     17  C   LIG    1       -5.638  -0.349  -0.058  0.00  0.00    +0.128 C 
BRANCH  17  18
ATOM     18  C   LIG    1       -5.987  -0.359   1.370  0.00  0.00    +0.305 C 
ATOM     19  O   LIG    1       -5.888  -1.400   2.044  0.00  0.00    -0.251 OA
BRANCH  18  20
ATOM     20  O   LIG    1       -6.431   0.802   1.970  0.00  0.00    -0.481 OA
ATOM     21  H   LIG    1       -5.932   1.668   1.834  0.00  0.00    +0.295 HD
ENDBRANCH  18  20
ENDBRANCH  17  18
ENDBRANCH  16  17
ENDBRANCH  14  16
ENDBRANCH   6  14
TORSDOF 6
