REMARK  Name = molecules/IJWPAFMIFNSIGD-UHFFFAOYSA-N.pdb
REMARK                            x       y       z     vdW  Elec       q    Type
REMARK                         _______ _______ _______ _____ _____    ______ ____
ROOT
ATOM      1  C   LIG    1       -1.637   0.581  -0.522  0.00  0.00    +0.071 C 
ATOM      2  C   LIG    1       -0.355   0.800  -0.801  0.00  0.00    +0.140 C 
ATOM      3  O   LIG    1       -0.231   2.024  -1.507  0.00  0.00    -0.477 OA
ATOM      4  C   LIG    1       -1.341   2.812  -1.105  0.00  0.00    +0.167 C 
ATOM      5  C   LIG    1       -1.134   3.199   0.346  0.00  0.00    +0.064 C 
ATOM      6  C   LIG    1       -1.652   3.957  -1.994  0.00  0.00    +0.064 C 
ATOM      7  C   LIG    1       -2.378   1.739  -1.084  0.00  0.00    +0.210 C 
ATOM      8  O   LIG    1       -3.561   1.697  -1.414  0.00  0.00    -0.288 OA
ENDROOT
BRANCH   1   9
ATOM      9  C   LIG    1       -2.208  -0.558   0.177  0.00  0.00    -0.008 A 
ATOM     10  C   LIG    1       -3.251  -0.459   1.081  0.00  0.00    +0.047 A 
ATOM     11  C   LIG    1       -3.777  -1.563   1.733  0.00  0.00    +0.124 A 
ATOM     12  F   LIG    1       -4.791  -1.415   2.600  0.00  0.00    -0.205 F 
ATOM     13  C   LIG    1       -3.256  -2.809   1.487  0.00  0.00    +0.038 A 
ATOM     14  C   LIG    1       -2.224  -2.928   0.597  0.00  0.00    +0.003 A 
ATOM     15  C   LIG    1       -1.713  -1.818  -0.044  0.00  0.00    +0.009 A 
ENDBRANCH   1   9
BRANCH   2  16
ATOM     16  C   LIG    1        0.832   0.018  -0.501  0.00  0.00    +0.018 A 
ATOM     17  C   LIG    1        1.066  -0.534   0.741  0.00  0.00    +0.013 A 
ATOM     18  C   LIG    1        2.229  -1.252   0.968  0.00  0.00    +0.029 A 
ATOM     19  C   LIG    1        3.150  -1.424  -0.017  0.00  0.00    +0.105 A 
ATOM     20  C   LIG    1        2.910  -0.870  -1.255  0.00  0.00    +0.029 A 
ATOM     21  C   LIG    1        1.765  -0.160  -1.484  0.00  0.00    +0.013 A 
BRANCH  19  22
ATOM     22  S   LIG    1        4.615  -2.351   0.246  0.00  0.00    +0.056 S 
ATOM     23  O   LIG    1        4.397  -3.228   1.466  0.00  0.00    -0.153 OA
ATOM     24  O   LIG    1        4.846  -3.217  -0.965  0.00  0.00    -0.153 OA
BRANCH  22  25
ATOM     25  N   LIG    1        5.952  -1.297   0.565  0.00  0.00    -0.204 NA
ATOM     26  H   LIG    1        5.574  -0.344   0.750  0.00  0.00    +0.144 HD
ATOM     27  H   LIG    1        6.489  -1.261  -0.355  0.00  0.00    +0.144 HD
ENDBRANCH  22  25
ENDBRANCH  19  22
ENDBRANCH   2  16
TORSDOF 4
