REMARK  Name = molecules/IKBKZGMPCYNSLU-UHFFFAOYSA-N.pdb
REMARK                            x       y       z     vdW  Elec       q    Type
REMARK                         _______ _______ _______ _____ _____    ______ ____
ROOT
ATOM      1  C   LIG    1       -1.505  -0.598  -1.223  0.00  0.00    +0.158 C 
ATOM      2  N   LIG    1       -0.251  -0.779  -1.291  0.00  0.00    -0.119 NA
ENDROOT
BRANCH   1   8
ATOM      3  C   LIG    1       -5.282   0.563   1.672  0.00  0.00    +0.030 A 
ATOM      4  C   LIG    1       -3.948   0.312   1.344  0.00  0.00    +0.047 A 
ATOM      5  N   LIG    1       -2.802   0.319   2.039  0.00  0.00    -0.360 N 
ATOM      6  H   LIG    1       -2.708   0.540   3.059  0.00  0.00    +0.165 HD
ATOM      7  C   LIG    1       -1.743  -0.003   1.243  0.00  0.00    +0.093 A 
ATOM      8  C   LIG    1       -2.230  -0.227  -0.019  0.00  0.00    +0.021 A 
ATOM      9  C   LIG    1       -3.605  -0.028   0.056  0.00  0.00    +0.012 A 
ATOM     10  C   LIG    1       -4.563  -0.125  -0.925  0.00  0.00    +0.056 A 
ATOM     11  C   LIG    1       -5.900   0.125  -0.602  0.00  0.00    +0.121 A 
ATOM     12  C   LIG    1       -6.259   0.466   0.682  0.00  0.00    +0.047 A 
BRANCH  11  13
ATOM     13  O   LIG    1       -6.875   0.033  -1.573  0.00  0.00    -0.495 OA
ATOM     14  C   LIG    1       -8.240   0.267  -1.337  0.00  0.00    +0.277 C 
ENDBRANCH  11  13
ENDBRANCH   1   8
BRANCH   2  15
ATOM     15  N   LIG    1        0.679  -0.674  -0.296  0.00  0.00    -0.155 N 
ATOM     16  H   LIG    1        0.752  -1.492   0.387  0.00  0.00    +0.292 HD
BRANCH  15  17
ATOM     17  C   LIG    1        1.548   0.428  -0.118  0.00  0.00    +0.402 C 
ATOM     18  N   LIG    1        1.225   1.595  -0.517  0.00  0.00    -0.128 NA
ATOM     19  H   LIG    1        1.839   2.424  -0.402  0.00  0.00    +0.306 HD
BRANCH  17  20
ATOM     20  N   LIG    1        2.798   0.226   0.515  0.00  0.00    -0.274 N 
ATOM     21  H   LIG    1        2.961  -0.541   1.211  0.00  0.00    +0.258 HD
BRANCH  20  22
ATOM     22  C   LIG    1        3.902   1.106   0.200  0.00  0.00    +0.196 C 
BRANCH  22  23
ATOM     23  C   LIG    1        5.108   0.686   0.988  0.00  0.00    +0.037 C 
BRANCH  23  24
ATOM     24  C   LIG    1        5.512  -0.716   0.669  0.00  0.00    +0.003 C 
BRANCH  24  25
ATOM     25  C   LIG    1        5.840  -0.811  -0.803  0.00  0.00    -0.003 C 
ATOM     26  C   LIG    1        6.984   0.161  -1.072  0.00  0.00    +0.004 C 
ENDBRANCH  24  25
ENDBRANCH  23  24
ENDBRANCH  22  23
ENDBRANCH  20  22
ENDBRANCH  17  20
ENDBRANCH  15  17
ENDBRANCH   2  15
TORSDOF 9
