REMARK  Name = molecules/IKIIZLYTISPENI-ZFORQUDYSA-N.pdb
REMARK                            x       y       z     vdW  Elec       q    Type
REMARK                         _______ _______ _______ _____ _____    ______ ____
ROOT
ATOM      1  C   LIG    1       -0.697  -1.890  -1.161  0.00  0.00    +0.177 A 
ATOM      2  C   LIG    1        0.506  -1.266  -0.758  0.00  0.00    +0.202 A 
ATOM      3  C   LIG    1        0.455  -0.141  -0.002  0.00  0.00    +0.172 A 
ATOM      4  C   LIG    1       -0.829   0.358   0.350  0.00  0.00    +0.096 A 
ATOM      5  C   LIG    1       -1.996  -0.235  -0.033  0.00  0.00    +0.146 A 
ATOM      6  O   LIG    1       -3.164   0.267   0.320  0.00  0.00    -0.454 OA
ATOM      7  C   LIG    1       -4.322  -0.259  -0.017  0.00  0.00    +0.139 A 
ATOM      8  C   LIG    1       -4.354  -1.398  -0.782  0.00  0.00    +0.098 A 
ATOM      9  C   LIG    1       -3.121  -1.948  -1.168  0.00  0.00    +0.197 A 
ATOM     10  O   LIG    1       -3.136  -2.974  -1.857  0.00  0.00    -0.287 OA
ATOM     11  C   LIG    1       -1.929  -1.376  -0.800  0.00  0.00    +0.109 A 
ENDROOT
BRANCH   7  12
ATOM     12  C   LIG    1       -5.564   0.391   0.435  0.00  0.00    +0.017 A 
ATOM     13  C   LIG    1       -5.485   1.552   1.214  0.00  0.00    +0.011 A 
ATOM     14  C   LIG    1       -6.623   2.182   1.652  0.00  0.00    +0.001 A 
ATOM     15  C   LIG    1       -7.869   1.683   1.333  0.00  0.00    +0.000 A 
ATOM     16  C   LIG    1       -7.968   0.542   0.569  0.00  0.00    +0.001 A 
ATOM     17  C   LIG    1       -6.806  -0.093   0.127  0.00  0.00    +0.011 A 
ENDBRANCH   7  12
BRANCH   1  18
ATOM     18  O   LIG    1       -0.565  -3.000  -1.908  0.00  0.00    -0.503 OA
ATOM     19  H   LIG    1       -1.160  -3.618  -2.315  0.00  0.00    +0.292 HD
ENDBRANCH   1  18
BRANCH   2  20
ATOM     20  O   LIG    1        1.713  -1.817  -1.144  0.00  0.00    -0.501 OA
ATOM     21  H   LIG    1        1.715  -2.651  -1.704  0.00  0.00    +0.292 HD
ENDBRANCH   2  20
BRANCH   3  22
ATOM     22  O   LIG    1        1.543   0.537   0.439  0.00  0.00    -0.457 OA
BRANCH  22  23
ATOM     23  C   LIG    1        2.858   0.343   0.291  0.00  0.00    +0.340 C 
ATOM     24  O   LIG    1        3.565   0.211   1.513  0.00  0.00    -0.322 OA
ATOM     25  C   LIG    1        4.764  -0.402   1.277  0.00  0.00    +0.261 C 
ATOM     26  C   LIG    1        5.644   0.317   0.294  0.00  0.00    +0.185 C 
ATOM     27  C   LIG    1        4.918   1.020  -0.790  0.00  0.00    +0.180 C 
ATOM     28  C   LIG    1        3.581   1.562  -0.347  0.00  0.00    +0.214 C 
BRANCH  25  29
ATOM     29  C   LIG    1        5.504  -0.503   2.563  0.00  0.00    +0.337 C 
ATOM     30  O   LIG    1        5.042  -0.074   3.651  0.00  0.00    -0.248 OA
BRANCH  29  31
ATOM     31  O   LIG    1        6.749  -1.090   2.569  0.00  0.00    -0.479 OA
ATOM     32  H   LIG    1        7.112  -1.601   1.776  0.00  0.00    +0.295 HD
ENDBRANCH  29  31
ENDBRANCH  25  29
BRANCH  26  33
ATOM     33  O   LIG    1        6.489  -0.636  -0.288  0.00  0.00    -0.386 OA
ATOM     34  H   LIG    1        6.177  -0.842  -1.198  0.00  0.00    +0.210 HD
ENDBRANCH  26  33
BRANCH  27  35
ATOM     35  O   LIG    1        5.724   2.008  -1.348  0.00  0.00    -0.386 OA
ATOM     36  H   LIG    1        5.785   2.754  -0.680  0.00  0.00    +0.210 HD
ENDBRANCH  27  35
BRANCH  28  37
ATOM     37  O   LIG    1        2.845   2.066  -1.391  0.00  0.00    -0.383 OA
ATOM     38  H   LIG    1        2.116   2.639  -1.040  0.00  0.00    +0.210 HD
ENDBRANCH  28  37
ENDBRANCH  22  23
ENDBRANCH   3  22
TORSDOF 10
