REMARK  Name = molecules/IKMPWMZBZSAONZ-UHFFFAOYSA-N.pdb
REMARK                            x       y       z     vdW  Elec       q    Type
REMARK                         _______ _______ _______ _____ _____    ______ ____
ROOT
ATOM      1  N   LIG    1       -2.308  -0.238  -0.487  0.00  0.00    -0.287 N 
ATOM      2  C   LIG    1       -1.377   0.851  -0.299  0.00  0.00    +0.044 A 
ATOM      3  C   LIG    1       -2.063   2.021  -0.123  0.00  0.00    +0.025 A 
ATOM      4  C   LIG    1       -1.285   3.170  -0.038  0.00  0.00    +0.022 A 
ATOM      5  C   LIG    1        0.091   3.124  -0.129  0.00  0.00    +0.042 A 
ATOM      6 CL   LIG    1        1.065   4.581  -0.016  0.00  0.00    -0.084 Cl
ATOM      7  C   LIG    1        0.750   1.933  -0.306  0.00  0.00    +0.032 A 
ATOM      8  C   LIG    1       -0.003   0.770  -0.387  0.00  0.00    +0.023 A 
ATOM      9  C   LIG    1        0.841  -0.428  -0.518  0.00  0.00    +0.078 C 
ATOM     10  N   LIG    1        0.456  -1.404  -1.294  0.00  0.00    -0.276 NA
ATOM     11  C   LIG    1       -0.712  -1.609  -2.122  0.00  0.00    +0.201 C 
ATOM     12  C   LIG    1       -1.998  -1.297  -1.437  0.00  0.00    +0.077 C 
ATOM     13  S   LIG    1       -3.259  -2.245  -1.815  0.00  0.00    -0.038 S 
ENDROOT
BRANCH   9  14
ATOM     14  C   LIG    1        2.078  -0.495   0.150  0.00  0.00    +0.036 A 
ATOM     15  C   LIG    1        2.561   0.299   1.131  0.00  0.00    +0.133 A 
ATOM     16  F   LIG    1        1.749   1.152   1.829  0.00  0.00    -0.205 F 
ATOM     17  C   LIG    1        3.870   0.229   1.624  0.00  0.00    +0.039 A 
ATOM     18  C   LIG    1        4.742  -0.698   1.103  0.00  0.00    +0.003 A 
ATOM     19  C   LIG    1        4.291  -1.531   0.105  0.00  0.00    +0.001 A 
ATOM     20  C   LIG    1        3.010  -1.435  -0.354  0.00  0.00    +0.013 A 
ENDBRANCH   9  14
BRANCH   1  21
ATOM     21  C   LIG    1       -3.499  -0.269   0.269  0.00  0.00    +0.224 C 
BRANCH  21  22
ATOM     22  C   LIG    1       -3.485  -1.335   1.361  0.00  0.00    +0.406 C 
ATOM     23  F   LIG    1       -2.429  -1.077   2.252  0.00  0.00    -0.169 F 
ATOM     24  F   LIG    1       -4.696  -1.442   2.007  0.00  0.00    -0.169 F 
ATOM     25  F   LIG    1       -3.187  -2.583   0.873  0.00  0.00    -0.169 F 
ENDBRANCH  21  22
ENDBRANCH   1  21
TORSDOF 3
