REMARK  Name = molecules/IKOCLISPVJZJEA-YUMQZZPRSA-N.pdb
REMARK                            x       y       z     vdW  Elec       q    Type
REMARK                         _______ _______ _______ _____ _____    ______ ____
ROOT
ATOM      1  C   UNK    1        2.182   0.919  -0.898  0.00  0.00    +0.113 C 
ATOM      2  N   UNK    1        2.756   0.315   0.265  0.00  0.00    -0.292 NA
ATOM      3  H   UNK    1        3.289   0.945   0.865  0.00  0.00    +0.124 HD
ATOM      4  C   UNK    1        3.599  -0.776  -0.153  0.00  0.00    +0.174 C 
ATOM      5  C   UNK    1        4.728  -0.109  -0.968  0.00  0.00    +0.100 C 
ATOM      6  S   UNK    1        3.655   0.958  -2.003  0.00  0.00    -0.140 S 
ENDROOT
BRANCH   4   7
ATOM      7  C   UNK    1        4.200  -1.363   1.058  0.00  0.00    +0.323 C 
ATOM      8  O   UNK    1        4.061  -0.963   2.228  0.00  0.00    -0.249 OA
BRANCH   7   9
ATOM      9  O   UNK    1        5.022  -2.498   0.878  0.00  0.00    -0.480 OA
ATOM     10  H   UNK    1        4.592  -3.421   1.052  0.00  0.00    +0.295 HD
ENDBRANCH   7   9
ENDBRANCH   4   7
BRANCH   1  11
ATOM     11  C   UNK    1        1.071   0.127  -1.525  0.00  0.00    +0.040 C 
BRANCH  11  12
ATOM     12  C   UNK    1       -0.029  -0.055  -0.513  0.00  0.00    +0.072 C 
BRANCH  12  13
ATOM     13  S   UNK    1       -0.723   1.547   0.021  0.00  0.00    -0.149 S 
BRANCH  13  14
ATOM     14  C   UNK    1       -1.982   1.161   1.308  0.00  0.00    +0.189 C 
BRANCH  14  15
ATOM     15  C   UNK    1       -3.083   0.363   0.771  0.00  0.00    +0.317 C 
ATOM     16  O   UNK    1       -3.123  -0.894   1.038  0.00  0.00    -0.250 OA
BRANCH  15  17
ATOM     17  O   UNK    1       -4.092   0.876  -0.019  0.00  0.00    -0.464 OA
BRANCH  17  18
ATOM     18  C   UNK    1       -5.117   0.044  -0.516  0.00  0.00    +0.229 C 
ATOM     19  C   UNK    1       -5.845  -0.555   0.673  0.00  0.00    +0.048 C 
ENDBRANCH  17  18
ENDBRANCH  15  17
ENDBRANCH  14  15
ENDBRANCH  13  14
ENDBRANCH  12  13
ENDBRANCH  11  12
ENDBRANCH   1  11
TORSDOF 9
