REMARK  Name = molecules/ILKJAFIWWBXGDU-MOGDOJJUSA-N.pdb
REMARK                            x       y       z     vdW  Elec       q    Type
REMARK                         _______ _______ _______ _____ _____    ______ ____
ROOT
ATOM      1  C   LIG    1       -1.752   0.142  -0.723  0.00  0.00    +0.165 C 
ATOM      2  O   LIG    1       -2.202  -0.843   0.164  0.00  0.00    -0.331 OA
ATOM      3  C   LIG    1       -2.330  -2.001  -0.550  0.00  0.00    +0.172 C 
ATOM      4  C   LIG    1       -1.804  -3.158   0.290  0.00  0.00    +0.065 C 
ATOM      5  C   LIG    1       -2.992  -3.792   0.946  0.00  0.00    +0.005 C 
ATOM      6  C   LIG    1       -4.212  -2.989   0.515  0.00  0.00    +0.005 C 
ATOM      7  C   LIG    1       -3.766  -2.433  -0.800  0.00  0.00    +0.065 C 
ATOM      8  O   LIG    1       -1.700  -1.872  -1.764  0.00  0.00    -0.342 OA
ATOM      9  C   LIG    1       -0.373   0.615  -0.336  0.00  0.00    +0.012 C 
ATOM     10  C   LIG    1       -0.050   0.390   1.118  0.00  0.00    +0.044 C 
ATOM     11  C   LIG    1        1.399   0.484   1.421  0.00  0.00    +0.154 C 
ATOM     12  C   LIG    1        2.309  -0.212   0.471  0.00  0.00    +0.153 C 
ATOM     13  F   LIG    1        2.175  -1.573   0.685  0.00  0.00    -0.238 F 
ATOM     14  C   LIG    1        3.763   0.124   0.681  0.00  0.00    +0.044 C 
ATOM     15  C   LIG    1        4.274  -0.256   1.985  0.00  0.00    -0.009 C 
ATOM     16  C   LIG    1        5.366  -0.964   2.213  0.00  0.00    +0.047 C 
ATOM     17  C   LIG    1        6.177  -1.442   1.106  0.00  0.00    +0.179 C 
ATOM     18  O   LIG    1        7.210  -2.106   1.261  0.00  0.00    -0.288 OA
ATOM     19  C   LIG    1        5.674  -1.075  -0.221  0.00  0.00    +0.051 C 
ATOM     20  C   LIG    1        3.936   1.669   0.627  0.00  0.00    +0.023 C 
ATOM     21  C   LIG    1        4.596  -0.379  -0.418  0.00  0.00    -0.053 C 
ATOM     22  C   LIG    1        4.146  -0.121  -1.843  0.00  0.00    +0.032 C 
ATOM     23  C   LIG    1        2.789  -0.811  -1.894  0.00  0.00    +0.011 C 
ATOM     24  C   LIG    1        1.896   0.018  -0.980  0.00  0.00    +0.034 C 
ATOM     25  C   LIG    1       -0.181   2.026  -0.752  0.00  0.00    +0.015 C 
ATOM     26  C   LIG    1        0.477  -0.376  -1.091  0.00  0.00    +0.007 C 
ATOM     27  C   LIG    1       -0.128  -0.314  -2.458  0.00  0.00    +0.039 C 
ATOM     28  C   LIG    1       -1.609  -0.518  -2.077  0.00  0.00    +0.162 C 
ENDROOT
BRANCH   1  29
ATOM     29  C   LIG    1       -2.720   1.265  -0.805  0.00  0.00    +0.205 C 
ATOM     30  O   LIG    1       -2.623   2.202  -1.562  0.00  0.00    -0.291 OA
BRANCH  29  31
ATOM     31  C   LIG    1       -3.908   1.266   0.099  0.00  0.00    +0.309 C 
BRANCH  31  32
ATOM     32  O   LIG    1       -4.751   2.354  -0.132  0.00  0.00    -0.457 OA
BRANCH  32  33
ATOM     33  C   LIG    1       -4.341   3.643   0.020  0.00  0.00    +0.304 C 
ATOM     34  O   LIG    1       -3.195   3.952   0.375  0.00  0.00    -0.251 OA
ATOM     35  C   LIG    1       -5.340   4.721  -0.260  0.00  0.00    +0.136 C 
ENDBRANCH  32  33
ENDBRANCH  31  32
ENDBRANCH  29  31
ENDBRANCH   1  29
BRANCH  11  36
ATOM     36  O   LIG    1        1.679   1.846   1.600  0.00  0.00    -0.389 OA
ATOM     37  H   LIG    1        0.965   2.193   2.189  0.00  0.00    +0.210 HD
ENDBRANCH  11  36
TORSDOF 5
