REMARK  Name = molecules/ILORKHQGIMGDFN-UHFFFAOYSA-N.pdb
REMARK                            x       y       z     vdW  Elec       q    Type
REMARK                         _______ _______ _______ _____ _____    ______ ____
ROOT
ATOM      1  C   LIG    1       -1.570   0.062  -0.252  0.00  0.00    +0.123 C 
ATOM      2  C   LIG    1       -0.257   0.557   0.221  0.00  0.00    +0.242 C 
ATOM      3  O   LIG    1       -0.179   1.219   1.257  0.00  0.00    -0.274 OA
ATOM      4  N   LIG    1        0.903   0.255  -0.542  0.00  0.00    -0.193 N 
ATOM      5  C   LIG    1        0.770   0.008  -1.949  0.00  0.00    +0.319 C 
ATOM      6  N   LIG    1       -0.545   0.087  -2.492  0.00  0.00    -0.239 N 
ATOM      7  H   LIG    1       -0.698  -0.088  -3.531  0.00  0.00    +0.159 HD
ATOM      8  O   LIG    1        1.779  -0.264  -2.649  0.00  0.00    -0.251 OA
ATOM      9  C   LIG    1       -1.673   0.397  -1.677  0.00  0.00    +0.235 C 
ATOM     10  O   LIG    1       -2.659   0.928  -2.247  0.00  0.00    -0.274 OA
ENDROOT
BRANCH   4  11
ATOM     11  C   LIG    1        2.205   0.194   0.053  0.00  0.00    +0.045 A 
ATOM     12  C   LIG    1        2.501  -0.642   1.122  0.00  0.00    +0.024 A 
ATOM     13  C   LIG    1        3.774  -0.680   1.675  0.00  0.00    +0.002 A 
ATOM     14  C   LIG    1        4.796   0.109   1.188  0.00  0.00    +0.000 A 
ATOM     15  C   LIG    1        4.485   0.943   0.115  0.00  0.00    +0.002 A 
ATOM     16  C   LIG    1        3.224   0.977  -0.429  0.00  0.00    +0.024 A 
ENDBRANCH   4  11
BRANCH   1  17
ATOM     17  C   LIG    1       -2.709   0.475   0.591  0.00  0.00    +0.022 C 
ATOM     18  C   LIG    1       -3.002   1.931   0.671  0.00  0.00    +0.005 C 
ENDBRANCH   1  17
BRANCH   1  19
ATOM     19  C   LIG    1       -1.482  -1.469  -0.165  0.00  0.00    +0.022 C 
ATOM     20  C   LIG    1       -2.739  -2.131  -0.649  0.00  0.00    +0.005 C 
ENDBRANCH   1  19
TORSDOF 3
