REMARK  Name = molecules/ILROKGAXBGPFAI-UHFFFAOYSA-N.pdb
REMARK                            x       y       z     vdW  Elec       q    Type
REMARK                         _______ _______ _______ _____ _____    ______ ____
ROOT
ATOM      1  N   LIG    1        0.565   0.192   0.443  0.00  0.00    -0.297 N 
ATOM      2  C   LIG    1        1.376  -0.967   0.492  0.00  0.00    +0.049 A 
ATOM      3  C   LIG    1        0.834  -2.243   0.715  0.00  0.00    +0.044 A 
ATOM      4  C   LIG    1        1.621  -3.393   0.750  0.00  0.00    +0.043 A 
ATOM      5 CL   LIG    1        0.866  -4.943   1.034  0.00  0.00    -0.083 Cl
ATOM      6  C   LIG    1        2.957  -3.313   0.567  0.00  0.00    +0.021 A 
ATOM      7  C   LIG    1        3.504  -2.080   0.348  0.00  0.00    +0.018 A 
ATOM      8  C   LIG    1        2.729  -0.959   0.315  0.00  0.00    +0.034 A 
ATOM      9  S   LIG    1        3.608   0.556   0.006  0.00  0.00    -0.086 S 
ATOM     10  C   LIG    1        2.372   1.830  -0.018  0.00  0.00    +0.034 A 
ATOM     11  C   LIG    1        2.783   3.097  -0.244  0.00  0.00    +0.017 A 
ATOM     12  C   LIG    1        1.878   4.148  -0.266  0.00  0.00    +0.001 A 
ATOM     13  C   LIG    1        0.552   3.860  -0.051  0.00  0.00    +0.002 A 
ATOM     14  C   LIG    1        0.150   2.538   0.182  0.00  0.00    +0.024 A 
ATOM     15  C   LIG    1        1.073   1.495   0.200  0.00  0.00    +0.048 A 
ENDROOT
BRANCH   1  16
ATOM     16  C   LIG    1       -0.885   0.024   0.634  0.00  0.00    +0.126 C 
BRANCH  16  17
ATOM     17  C   LIG    1       -1.618   0.011  -0.687  0.00  0.00    +0.103 C 
BRANCH  17  19
ATOM     18  C   LIG    1       -3.747  -0.149  -1.732  0.00  0.00    +0.104 C 
ATOM     19  N   LIG    1       -3.061  -0.139  -0.477  0.00  0.00    -0.307 NA
ATOM     20  C   LIG    1       -3.324  -1.302   0.341  0.00  0.00    +0.104 C 
ENDBRANCH  17  19
ENDBRANCH  16  17
ENDBRANCH   1  16
TORSDOF 3
