REMARK  Name = molecules/IMBXEJJVJRTNOW-XYMSELFBSA-N.pdb
REMARK                            x       y       z     vdW  Elec       q    Type
REMARK                         _______ _______ _______ _____ _____    ______ ____
ROOT
ATOM      1  C   LIG    1        0.428   0.402   2.031  0.00  0.00    +0.015 C 
ATOM      2  C   LIG    1        0.316  -0.159   0.656  0.00  0.00    +0.009 C 
ATOM      3  C   LIG    1       -0.792  -1.175   0.473  0.00  0.00    +0.002 C 
ATOM      4  C   LIG    1       -0.414  -2.197   1.480  0.00  0.00    +0.008 C 
ATOM      5  C   LIG    1        1.105  -2.271   1.277  0.00  0.00    +0.043 C 
ATOM      6  C   LIG    1       -2.087  -0.495   0.593  0.00  0.00    -0.000 C 
ATOM      7  C   LIG    1       -3.245  -1.423   0.838  0.00  0.00    +0.012 C 
ATOM      8  C   LIG    1       -4.573  -0.854   0.554  0.00  0.00    +0.013 C 
ATOM      9  C   LIG    1       -5.539  -1.957   0.101  0.00  0.00    +0.012 C 
ATOM     10  C   LIG    1       -4.597   0.281  -0.409  0.00  0.00    -0.053 C 
ATOM     11  C   LIG    1       -3.394   1.180  -0.567  0.00  0.00    +0.013 C 
ATOM     12  C   LIG    1       -3.297   1.861   0.810  0.00  0.00    +0.020 C 
ATOM     13  C   LIG    1       -3.587   2.231  -1.536  0.00  0.00    -0.012 C 
ATOM     14  C   LIG    1       -4.711   2.385  -2.221  0.00  0.00    +0.047 C 
ATOM     15  C   LIG    1       -5.854   1.494  -2.043  0.00  0.00    +0.179 C 
ATOM     16  O   LIG    1       -6.925   1.646  -2.701  0.00  0.00    -0.288 OA
ATOM     17  C   LIG    1       -5.714   0.431  -1.087  0.00  0.00    +0.051 C 
ATOM     18  C   LIG    1       -2.268   0.237  -0.757  0.00  0.00    +0.035 C 
ATOM     19  C   LIG    1       -0.995   0.666  -1.326  0.00  0.00    +0.120 C 
ATOM     20  C   LIG    1        1.470  -1.091   0.375  0.00  0.00    +0.133 C 
ATOM     21  C   LIG    1        0.118   0.925  -0.329  0.00  0.00    +0.041 C 
ENDROOT
BRANCH  19  22
ATOM     22  O   LIG    1       -1.000   1.737  -2.203  0.00  0.00    -0.391 OA
ATOM     23  H   LIG    1       -1.142   1.470  -3.128  0.00  0.00    +0.210 HD
ENDBRANCH  19  22
BRANCH  20  24
ATOM     24  C   LIG    1        2.795  -0.562   0.652  0.00  0.00    +0.202 C 
ATOM     25  O   LIG    1        3.074  -0.134   1.746  0.00  0.00    -0.291 OA
BRANCH  24  26
ATOM     26  C   LIG    1        3.824  -0.543  -0.411  0.00  0.00    +0.309 C 
BRANCH  26  27
ATOM     27  O   LIG    1        5.044  -0.009   0.000  0.00  0.00    -0.457 OA
BRANCH  27  28
ATOM     28  C   LIG    1        5.833  -0.487   1.010  0.00  0.00    +0.308 C 
ATOM     29  O   LIG    1        5.442  -1.502   1.642  0.00  0.00    -0.251 OA
BRANCH  28  30
ATOM     30  C   LIG    1        7.122   0.143   1.386  0.00  0.00    +0.132 C 
BRANCH  30  31
ATOM     31  C   LIG    1        7.411   1.325   0.501  0.00  0.00    +0.131 C 
BRANCH  31  32
ATOM     32  C   LIG    1        7.500   0.931  -0.910  0.00  0.00    +0.305 C 
ATOM     33  O   LIG    1        7.345  -0.276  -1.246  0.00  0.00    -0.251 OA
BRANCH  32  34
ATOM     34  O   LIG    1        7.755   1.876  -1.893  0.00  0.00    -0.481 OA
ATOM     35  H   LIG    1        7.800   2.856  -1.714  0.00  0.00    +0.295 HD
ENDBRANCH  32  34
ENDBRANCH  31  32
ENDBRANCH  30  31
ENDBRANCH  28  30
ENDBRANCH  27  28
ENDBRANCH  26  27
ENDBRANCH  24  26
ENDBRANCH  20  24
BRANCH  20  36
ATOM     36  O   LIG    1        1.320  -1.557  -0.935  0.00  0.00    -0.380 OA
ATOM     37  H   LIG    1        1.573  -2.518  -0.969  0.00  0.00    +0.211 HD
ENDBRANCH  20  36
TORSDOF 10
