REMARK  Name = molecules/IMONTRJLAWHYGT-ZCPXKWAGSA-N.pdb
REMARK                            x       y       z     vdW  Elec       q    Type
REMARK                         _______ _______ _______ _____ _____    ______ ____
ROOT
ATOM      1  C   LIG    1        2.806  -0.046   0.066  0.00  0.00    +0.178 C 
ATOM      2  C   LIG    1        1.340   0.060   0.385  0.00  0.00    +0.022 C 
ATOM      3  C   LIG    1        1.033  -0.707   1.622  0.00  0.00    +0.016 C 
ATOM      4  C   LIG    1        0.822   1.466   0.390  0.00  0.00    +0.012 C 
ATOM      5  C   LIG    1       -0.659   1.434   0.534  0.00  0.00    +0.005 C 
ATOM      6  C   LIG    1       -1.362   0.496  -0.372  0.00  0.00    -0.000 C 
ATOM      7  C   LIG    1       -2.751   0.156   0.163  0.00  0.00    +0.019 C 
ATOM      8  C   LIG    1       -3.413   1.309   0.859  0.00  0.00    +0.016 C 
ATOM      9  C   LIG    1       -4.897   1.068   1.034  0.00  0.00    +0.079 C 
ATOM     10  C   LIG    1       -5.469   0.909  -0.321  0.00  0.00    +0.156 C 
ATOM     11  O   LIG    1       -6.540   1.499  -0.589  0.00  0.00    -0.293 OA
ATOM     12  C   LIG    1       -4.727   0.065  -1.253  0.00  0.00    +0.045 C 
ATOM     13  C   LIG    1       -3.479  -0.288  -1.042  0.00  0.00    -0.063 C 
ATOM     14  C   LIG    1       -2.789  -1.132  -2.022  0.00  0.00    +0.031 C 
ATOM     15  C   LIG    1       -1.406  -1.541  -1.707  0.00  0.00    +0.008 C 
ATOM     16  C   LIG    1       -0.707  -0.822  -0.594  0.00  0.00    -0.003 C 
ATOM     17  C   LIG    1        0.752  -0.609  -0.866  0.00  0.00    +0.003 C 
ATOM     18  C   LIG    1        1.557  -1.861  -0.935  0.00  0.00    +0.009 C 
ATOM     19  C   LIG    1        2.898  -1.532  -0.306  0.00  0.00    +0.062 C 
ENDROOT
BRANCH   1  20
ATOM     20  C   LIG    1        3.099   0.707  -1.127  0.00  0.00    -0.058 C 
ATOM     21  C   LIG    1        3.354   1.355  -2.119  0.00  0.00    +0.008 C 
ENDBRANCH   1  20
BRANCH   1  22
ATOM     22  O   LIG    1        3.627   0.259   1.165  0.00  0.00    -0.445 OA
BRANCH  22  23
ATOM     23  C   LIG    1        4.984   0.097   1.121  0.00  0.00    +0.305 C 
ATOM     24  C   LIG    1        5.894   0.405   2.257  0.00  0.00    +0.136 C 
ATOM     25  O   LIG    1        5.530  -0.338   0.070  0.00  0.00    -0.251 OA
ENDBRANCH  22  23
ENDBRANCH   1  22
TORSDOF 3
