REMARK  Name = molecules/IMOZEMNVLZVGJZ-QGZVFWFLSA-N.pdb
REMARK                            x       y       z     vdW  Elec       q    Type
REMARK                         _______ _______ _______ _____ _____    ______ ____
ROOT
ATOM      1  C   LIG    1        0.483  -2.010   0.005  0.00  0.00    +0.136 C 
ENDROOT
BRANCH   1   2
ATOM      2  N   LIG    1       -0.691  -1.349  -0.464  0.00  0.00    -0.225 N 
ATOM      3  C   LIG    1       -1.415  -0.234   0.093  0.00  0.00    +0.256 C 
ATOM      4  O   LIG    1       -1.130   0.337   1.170  0.00  0.00    -0.269 OA
ATOM      5  C   LIG    1       -2.524   0.116  -0.782  0.00  0.00    +0.071 A 
ATOM      6  C   LIG    1       -3.532   1.098  -0.736  0.00  0.00    +0.046 A 
ATOM      7  C   LIG    1       -4.467   1.178  -1.746  0.00  0.00    +0.024 A 
ATOM      8  C   LIG    1       -4.440   0.305  -2.822  0.00  0.00    +0.003 A 
ATOM      9  C   LIG    1       -3.469  -0.653  -2.884  0.00  0.00    +0.014 A 
ATOM     10  C   LIG    1       -2.521  -0.734  -1.857  0.00  0.00    +0.051 A 
ATOM     11  C   LIG    1       -1.398  -1.648  -1.683  0.00  0.00    +0.254 C 
ATOM     12  O   LIG    1       -1.108  -2.568  -2.504  0.00  0.00    -0.270 OA
BRANCH   6  13
ATOM     13  N   LIG    1       -3.527   1.965   0.370  0.00  0.00    -0.285 N 
ATOM     14  H   LIG    1       -2.772   1.832   1.097  0.00  0.00    +0.155 HD
ATOM     15  C   LIG    1       -4.428   2.988   0.598  0.00  0.00    +0.214 C 
ATOM     16  C   LIG    1       -4.279   3.831   1.842  0.00  0.00    +0.109 C 
ATOM     17  O   LIG    1       -5.374   3.294  -0.139  0.00  0.00    -0.276 OA
ENDBRANCH   6  13
ENDBRANCH   1   2
BRANCH   1  18
ATOM     18  C   LIG    1        1.773  -1.269  -0.230  0.00  0.00    -0.021 A 
ATOM     19  C   LIG    1        1.901   0.081  -0.198  0.00  0.00    +0.055 A 
ATOM     20  C   LIG    1        3.161   0.677  -0.414  0.00  0.00    +0.162 A 
ATOM     21  C   LIG    1        4.296  -0.055  -0.661  0.00  0.00    +0.162 A 
ATOM     22  C   LIG    1        4.162  -1.425  -0.694  0.00  0.00    +0.050 A 
ATOM     23  C   LIG    1        2.938  -2.016  -0.485  0.00  0.00    +0.009 A 
BRANCH  21  24
ATOM     24  O   LIG    1        5.534   0.536  -0.872  0.00  0.00    -0.491 OA
ATOM     25  C   LIG    1        6.662  -0.281  -1.123  0.00  0.00    +0.277 C 
ENDBRANCH  21  24
BRANCH  20  26
ATOM     26  O   LIG    1        3.300   2.055  -0.382  0.00  0.00    -0.489 OA
BRANCH  26  27
ATOM     27  C   LIG    1        2.159   2.891  -0.129  0.00  0.00    +0.226 C 
ATOM     28  C   LIG    1        2.562   4.349  -0.144  0.00  0.00    +0.048 C 
ENDBRANCH  26  27
ENDBRANCH  20  26
ENDBRANCH   1  18
BRANCH   1  29
ATOM     29  C   LIG    1        0.376  -2.547   1.375  0.00  0.00    +0.193 C 
BRANCH  29  30
ATOM     30  S   LIG    1       -0.959  -3.745   1.451  0.00  0.00    -0.032 S 
ATOM     31  C   LIG    1       -1.124  -4.414   3.071  0.00  0.00    +0.194 C 
ATOM     32  O   LIG    1       -2.252  -3.119   1.013  0.00  0.00    -0.175 OA
ATOM     33  O   LIG    1       -0.689  -4.887   0.508  0.00  0.00    -0.175 OA
ENDBRANCH  29  30
ENDBRANCH   1  29
TORSDOF 8
