REMARK  Name = molecules/IMSSROKUHAOUJS-MJCUULBUSA-N.pdb
REMARK                            x       y       z     vdW  Elec       q    Type
REMARK                         _______ _______ _______ _____ _____    ______ ____
ROOT
ATOM      1  C   LIG    1       -2.359  -1.983   0.390  0.00  0.00    +0.015 C 
ATOM      2  C   LIG    1       -2.374  -0.686  -0.401  0.00  0.00    +0.011 C 
ATOM      3  C   LIG    1       -1.806   0.464   0.445  0.00  0.00    +0.002 C 
ATOM      4  C   LIG    1       -2.721   0.491   1.581  0.00  0.00    +0.008 C 
ATOM      5  C   LIG    1       -4.083   0.382   0.888  0.00  0.00    +0.049 C 
ATOM      6  C   LIG    1       -0.390   0.157   0.646  0.00  0.00    +0.000 C 
ATOM      7  C   LIG    1        0.323   0.917   1.707  0.00  0.00    +0.009 C 
ATOM      8  C   LIG    1        1.694   0.235   1.858  0.00  0.00    +0.036 C 
ATOM      9  C   LIG    1        2.376   0.257   0.538  0.00  0.00    -0.040 A 
ATOM     10  C   LIG    1        3.746   0.111   0.516  0.00  0.00    +0.049 A 
ATOM     11  C   LIG    1        4.452   0.123  -0.677  0.00  0.00    +0.120 A 
ATOM     12  C   LIG    1        3.800   0.282  -1.880  0.00  0.00    +0.046 A 
ATOM     13  C   LIG    1        2.411   0.429  -1.840  0.00  0.00    +0.008 A 
ATOM     14  C   LIG    1        1.712   0.417  -0.654  0.00  0.00    -0.041 A 
ATOM     15  C   LIG    1        0.255   0.577  -0.688  0.00  0.00    +0.023 C 
ATOM     16  C   LIG    1       -0.420  -0.015  -1.868  0.00  0.00    +0.009 C 
ATOM     17  C   LIG    1       -3.802  -0.235  -0.484  0.00  0.00    +0.132 C 
ATOM     18  C   LIG    1       -1.647  -0.805  -1.668  0.00  0.00    +0.011 C 
ENDROOT
BRANCH  11  19
ATOM     19  O   LIG    1        5.833  -0.024  -0.713  0.00  0.00    -0.495 OA
ATOM     20  C   LIG    1        6.635  -0.195   0.427  0.00  0.00    +0.277 C 
ENDBRANCH  11  19
BRANCH  17  21
ATOM     21  O   LIG    1       -4.671  -1.312  -0.626  0.00  0.00    -0.376 OA
ATOM     22  H   LIG    1       -4.357  -1.937  -1.313  0.00  0.00    +0.211 HD
ENDBRANCH  17  21
BRANCH  17  23
ATOM     23  C   LIG    1       -3.969   0.722  -1.557  0.00  0.00    -0.070 C 
ATOM     24  C   LIG    1       -4.109   1.501  -2.461  0.00  0.00    +0.007 C 
ENDBRANCH  17  23
TORSDOF 3
