REMARK  Name = molecules/IMWZZHHPURKASS-LLVKDONJSA-N.pdb
REMARK                            x       y       z     vdW  Elec       q    Type
REMARK                         _______ _______ _______ _____ _____    ______ ____
ROOT
ATOM      1  O   LIG    1        0.678   0.469  -0.063  0.00  0.00    -0.488 OA
ENDROOT
BRANCH   1   5
ATOM      2  C   LIG    1       -2.747   1.113   0.963  0.00  0.00    -0.047 A 
ATOM      3  C   LIG    1       -3.513   2.188   1.647  0.00  0.00    +0.044 C 
ATOM      4  C   LIG    1       -1.387   1.294   0.769  0.00  0.00    +0.049 A 
ATOM      5  C   LIG    1       -0.663   0.311   0.139  0.00  0.00    +0.121 A 
ATOM      6  C   LIG    1       -1.266  -0.847  -0.301  0.00  0.00    +0.049 A 
ATOM      7  C   LIG    1       -2.615  -1.044  -0.117  0.00  0.00    -0.047 A 
ATOM      8  C   LIG    1       -3.237  -2.289  -0.596  0.00  0.00    +0.044 C 
ATOM      9  C   LIG    1       -3.341  -0.049   0.519  0.00  0.00    +0.007 A 
ENDBRANCH   1   5
BRANCH   1  10
ATOM     10  C   LIG    1        1.508  -0.484  -0.701  0.00  0.00    +0.275 C 
BRANCH  10  11
ATOM     11  C   LIG    1        2.893   0.071  -0.717  0.00  0.00    +0.232 C 
ATOM     12  C   LIG    1        3.459   0.244   0.681  0.00  0.00    +0.155 C 
ATOM     13  N   LIG    1        4.871   0.398   0.388  0.00  0.00    -0.277 N 
ATOM     14  H   LIG    1        5.555   0.931   0.965  0.00  0.00    +0.152 HD
ATOM     15  C   LIG    1        5.086  -0.320  -0.820  0.00  0.00    +0.401 C 
ATOM     16  O   LIG    1        6.229  -0.508  -1.323  0.00  0.00    -0.226 OA
ATOM     17  O   LIG    1        3.844  -0.759  -1.320  0.00  0.00    -0.442 OA
ENDBRANCH  10  11
ENDBRANCH   1  10
TORSDOF 3
