REMARK  Name = molecules/IMYZQPCYWPFTAG-YWVKMMECSA-N.pdb
REMARK                            x       y       z     vdW  Elec       q    Type
REMARK                         _______ _______ _______ _____ _____    ______ ____
ROOT
ATOM      1  C   LIG    1        0.637   0.153   0.115  0.00  0.00    +0.024 C 
ATOM      2  C   LIG    1        1.615  -0.178   1.218  0.00  0.00    +0.028 C 
ATOM      3  C   LIG    1       -0.026   1.464   0.426  0.00  0.00    +0.010 C 
ATOM      4  C   LIG    1       -1.131   1.022   1.384  0.00  0.00    +0.009 C 
ATOM      5  C   LIG    1       -1.757   0.030   0.402  0.00  0.00    -0.003 C 
ATOM      6  C   LIG    1       -2.108   0.987  -0.712  0.00  0.00    +0.004 C 
ATOM      7  C   LIG    1       -0.884   1.899  -0.748  0.00  0.00    +0.005 C 
ATOM      8  C   LIG    1       -0.541  -0.802   0.083  0.00  0.00    -0.014 C 
ATOM      9  C   LIG    1       -0.427  -1.848   1.184  0.00  0.00    +0.013 C 
ATOM     10  C   LIG    1       -0.656  -1.536  -1.222  0.00  0.00    +0.013 C 
ENDROOT
BRANCH   1  11
ATOM     11  N   LIG    1        1.339   0.273  -1.102  0.00  0.00    -0.313 NA
ATOM     12  C   LIG    1        2.721  -0.012  -1.110  0.00  0.00    +0.101 C 
ATOM     13  H   LIG    1        0.820   0.214  -1.978  0.00  0.00    +0.122 HD
ENDBRANCH   1  11
TORSDOF 1
