REMARK  Name = molecules/INJOMKTZOLKMBF-UHFFFAOYSA-N.pdb
REMARK                            x       y       z     vdW  Elec       q    Type
REMARK                         _______ _______ _______ _____ _____    ______ ____
ROOT
ATOM      1  N   LIG    1        2.144  -0.050  -0.857  0.00  0.00    -0.175 N 
ATOM      2  C   LIG    1        1.239  -0.891  -0.154  0.00  0.00    +0.280 C 
ATOM      3  O   LIG    1        1.380  -1.877   0.531  0.00  0.00    -0.257 OA
ATOM      4  H   LIG    1        1.805   0.403  -1.753  0.00  0.00    +0.254 HD
ENDROOT
BRANCH   1   6
ATOM      5  N   LIG    1        4.210   0.865  -1.242  0.00  0.00    -0.131 NA
ATOM      6  C   LIG    1        3.579  -0.170  -0.490  0.00  0.00    +0.375 C 
ATOM      7  H   LIG    1        5.177   0.990  -0.764  0.00  0.00    +0.306 HD
BRANCH   6   8
ATOM      8  N   LIG    1        3.910  -0.883   0.517  0.00  0.00    -0.291 N 
ATOM      9  H   LIG    1        3.474  -0.655   1.511  0.00  0.00    +0.254 HD
ATOM     10  H   LIG    1        4.466  -1.671   0.545  0.00  0.00    +0.254 HD
ENDBRANCH   6   8
ENDBRANCH   1   6
BRANCH   2  11
ATOM     11  C   LIG    1       -0.143  -0.423  -0.322  0.00  0.00    +0.152 C 
BRANCH  11  12
ATOM     12  C   LIG    1       -1.375  -0.029  -0.334  0.00  0.00    -0.001 A 
ATOM     13  C   LIG    1       -1.807   1.326  -0.237  0.00  0.00    +0.046 A 
ATOM     14  C   LIG    1       -3.177   1.585  -0.094  0.00  0.00    +0.020 A 
ATOM     15  C   LIG    1       -4.028   0.568  -0.017  0.00  0.00    +0.003 A 
ATOM     16  C   LIG    1       -3.659  -0.749  -0.089  0.00  0.00    +0.020 A 
ATOM     17 CL   LIG    1       -0.626   2.576  -0.465  0.00  0.00    -0.083 Cl
ATOM     18  C   LIG    1       -2.352  -1.031  -0.253  0.00  0.00    +0.046 A 
ATOM     19 CL   LIG    1       -1.727  -2.659  -0.412  0.00  0.00    -0.083 Cl
ENDBRANCH  11  12
ENDBRANCH   2  11
TORSDOF 4
