REMARK  Name = molecules/INOYCBNLWYEPSB-XHSDSOJGSA-N.pdb
REMARK                            x       y       z     vdW  Elec       q    Type
REMARK                         _______ _______ _______ _____ _____    ______ ____
ROOT
ATOM      1  C   LIG    1       -1.292   0.708   0.215  0.00  0.00    +0.197 C 
ATOM      2  O   LIG    1       -1.023   1.316   1.411  0.00  0.00    -0.342 OA
ATOM      3  C   LIG    1        0.385   1.526   1.357  0.00  0.00    +0.196 C 
ATOM      4  C   LIG    1        0.768   0.173   0.862  0.00  0.00    +0.164 C 
ATOM      5  O   LIG    1       -0.133   0.040  -0.218  0.00  0.00    -0.338 OA
ENDROOT
BRANCH   4   6
ATOM      6  C   LIG    1        2.169  -0.060   0.466  0.00  0.00    +0.085 C 
ATOM      7  N   LIG    1        2.296  -1.475   0.023  0.00  0.00    -0.311 NA
ATOM      8  H   LIG    1        1.718  -2.100   0.601  0.00  0.00    +0.122 HD
ATOM      9  C   LIG    1        3.719  -1.768   0.113  0.00  0.00    +0.081 C 
ATOM     10  C   LIG    1        4.557  -0.571  -0.272  0.00  0.00    +0.015 C 
ATOM     11  C   LIG    1        3.848   0.341  -1.258  0.00  0.00    +0.003 C 
ATOM     12  C   LIG    1        2.451   0.698  -0.856  0.00  0.00    +0.021 C 
ENDBRANCH   4   6
BRANCH   1  13
ATOM     13  C   LIG    1       -2.337  -0.333   0.232  0.00  0.00    +0.011 A 
ATOM     14  C   LIG    1       -2.951  -0.818   1.349  0.00  0.00    +0.009 A 
ATOM     15  C   LIG    1       -3.902  -1.819   1.285  0.00  0.00    +0.000 A 
ATOM     16  C   LIG    1       -4.250  -2.350   0.068  0.00  0.00    +0.000 A 
ATOM     17  C   LIG    1       -3.643  -1.876  -1.086  0.00  0.00    +0.000 A 
ATOM     18  C   LIG    1       -2.703  -0.882  -0.984  0.00  0.00    +0.009 A 
ENDBRANCH   1  13
BRANCH   1  19
ATOM     19  C   LIG    1       -1.659   1.811  -0.774  0.00  0.00    +0.067 C 
ATOM     20  C   LIG    1       -2.896   2.532  -0.317  0.00  0.00    +0.009 C 
ENDBRANCH   1  19
TORSDOF 3
