REMARK  Name = molecules/IPOPQVVNCFQFRK-OAQYLSRUSA-N.pdb
REMARK                            x       y       z     vdW  Elec       q    Type
REMARK                         _______ _______ _______ _____ _____    ______ ____
ROOT
ATOM      1  C   LIG    1       -2.135  -0.262   0.327  0.00  0.00    +0.095 C 
ATOM      2  C   LIG    1       -1.575  -1.629   0.339  0.00  0.00    +0.038 C 
ATOM      3  C   LIG    1       -0.686  -1.787  -0.892  0.00  0.00    +0.086 C 
ATOM      4  N   LIG    1        0.471  -0.969  -0.668  0.00  0.00    -0.302 NA
ATOM      5  C   LIG    1        0.177   0.398  -0.509  0.00  0.00    +0.086 C 
ATOM      6  C   LIG    1       -1.077   0.809   0.140  0.00  0.00    +0.038 C 
ENDROOT
BRANCH   1   7
ATOM      7  C   LIG    1       -2.872   0.008   1.576  0.00  0.00    -0.031 A 
ATOM      8  C   LIG    1       -2.846  -0.838   2.650  0.00  0.00    +0.005 A 
ATOM      9  C   LIG    1       -3.564  -0.585   3.816  0.00  0.00    +0.000 A 
ATOM     10  C   LIG    1       -4.334   0.547   3.915  0.00  0.00    +0.000 A 
ATOM     11  C   LIG    1       -4.380   1.416   2.853  0.00  0.00    +0.000 A 
ATOM     12  C   LIG    1       -3.648   1.137   1.692  0.00  0.00    +0.005 A 
ENDBRANCH   1   7
BRANCH   1  13
ATOM     13  C   LIG    1       -3.138  -0.144  -0.771  0.00  0.00    +0.318 C 
ATOM     14  O   LIG    1       -3.460  -1.195  -1.383  0.00  0.00    -0.250 OA
BRANCH  13  15
ATOM     15  O   LIG    1       -3.746   1.008  -1.181  0.00  0.00    -0.464 OA
BRANCH  15  16
ATOM     16  C   LIG    1       -4.684   1.144  -2.205  0.00  0.00    +0.229 C 
ATOM     17  C   LIG    1       -4.175   0.712  -3.561  0.00  0.00    +0.048 C 
ENDBRANCH  15  16
ENDBRANCH  13  15
ENDBRANCH   1  13
BRANCH   4  18
ATOM     18  C   LIG    1        1.421  -1.574   0.183  0.00  0.00    +0.087 C 
BRANCH  18  19
ATOM     19  C   LIG    1        2.714  -0.853   0.383  0.00  0.00    +0.051 C 
BRANCH  19  20
ATOM     20  C   LIG    1        3.515  -0.648  -0.874  0.00  0.00    +0.146 C 
BRANCH  20  21
ATOM     21  C   LIG    1        4.779   0.034  -0.484  0.00  0.00    -0.019 A 
ATOM     22  C   LIG    1        4.806   1.399  -0.252  0.00  0.00    +0.006 A 
ATOM     23  C   LIG    1        5.957   2.061   0.106  0.00  0.00    +0.000 A 
ATOM     24  C   LIG    1        7.143   1.376   0.248  0.00  0.00    +0.000 A 
ATOM     25  C   LIG    1        7.142   0.018   0.022  0.00  0.00    +0.000 A 
ATOM     26  C   LIG    1        5.975  -0.634  -0.338  0.00  0.00    +0.006 A 
ENDBRANCH  20  21
BRANCH  20  27
ATOM     27  O   LIG    1        2.850   0.076  -1.829  0.00  0.00    -0.387 OA
ATOM     28  H   LIG    1        3.179  -0.122  -2.743  0.00  0.00    +0.210 HD
ENDBRANCH  20  27
ENDBRANCH  19  20
ENDBRANCH  18  19
ENDBRANCH   4  18
TORSDOF 9
