REMARK  Name = molecules/IPVQLZZIHOAWMC-QXKUPLGCSA-N.pdb
REMARK                            x       y       z     vdW  Elec       q    Type
REMARK                         _______ _______ _______ _____ _____    ______ ____
ROOT
ATOM      1  C   ALA A  1       -0.792   0.635  -0.279  0.00  0.00    +0.233 C 
ATOM      2  N   UNK A  2       -2.152   0.286  -0.037  0.00  0.00    -0.283 N 
ATOM      3  C   UNK A  2       -2.616  -0.742   0.816  0.00  0.00    +0.185 C 
ATOM      4  C   UNK A  2       -4.145  -0.596   0.789  0.00  0.00    +0.039 C 
ATOM      5  C   UNK A  2       -4.304   0.849   0.433  0.00  0.00    +0.012 C 
ATOM      6  C   UNK A  2       -5.691   1.201  -0.030  0.00  0.00    +0.005 C 
ATOM      7  C   UNK A  2       -5.650   1.653  -1.495  0.00  0.00    +0.000 C 
ATOM      8  C   UNK A  2       -5.131   0.511  -2.300  0.00  0.00    +0.002 C 
ATOM      9  C   UNK A  2       -3.679   0.270  -1.920  0.00  0.00    +0.023 C 
ATOM     10  C   UNK A  2       -3.287   0.974  -0.682  0.00  0.00    +0.080 C 
ATOM     11  O   ALA A  1       -0.564   1.528  -1.152  0.00  0.00    -0.274 OA
ENDROOT
BRANCH   1  12
ATOM     12  CA  ALA A  1        0.378   0.059   0.392  0.00  0.00    +0.138 C 
ATOM     13  CB  ALA A  1        0.387   0.573   1.842  0.00  0.00    +0.034 C 
BRANCH  12  14
ATOM     14  N   ALA A  1        1.585   0.550  -0.216  0.00  0.00    -0.294 NA
ATOM     15  H   ALA A  1        1.636   0.406  -1.247  0.00  0.00    +0.123 HD
BRANCH  14  16
ATOM     16  C   UNK A  0        2.771   0.068   0.464  0.00  0.00    +0.164 C 
BRANCH  16  17
ATOM     17  C   UNK A  0        3.949   0.888   0.075  0.00  0.00    +0.324 C 
ATOM     18  O   UNK A  0        3.854   1.809  -0.761  0.00  0.00    -0.249 OA
BRANCH  17  19
ATOM     19  O   UNK A  0        5.178   0.638   0.640  0.00  0.00    -0.464 OA
BRANCH  19  20
ATOM     20  C   UNK A  0        6.297   1.419   0.266  0.00  0.00    +0.229 C 
ATOM     21  C   UNK A  0        6.136   2.875   0.533  0.00  0.00    +0.048 C 
ENDBRANCH  19  20
ENDBRANCH  17  19
ENDBRANCH  16  17
BRANCH  16  22
ATOM     22  C   UNK A  0        2.938  -1.378   0.138  0.00  0.00    +0.030 C 
BRANCH  22  23
ATOM     23  C   UNK A  0        4.149  -2.031   0.774  0.00  0.00    -0.001 C 
ATOM     24  C   UNK A  0        4.157  -3.516   0.360  0.00  0.00    +0.004 C 
ENDBRANCH  22  23
ENDBRANCH  16  22
ENDBRANCH  14  16
ENDBRANCH  12  14
ENDBRANCH   1  12
BRANCH   3  25
ATOM     25  C   UNK A  2       -2.245  -2.124   0.425  0.00  0.00    +0.325 C 
ATOM     26  O   UNK A  2       -1.677  -2.330  -0.662  0.00  0.00    -0.249 OA
BRANCH  25  27
ATOM     27  O   UNK A  2       -2.546  -3.162   1.297  0.00  0.00    -0.479 OA
ATOM     28  H   UNK A  2       -1.874  -3.911   1.456  0.00  0.00    +0.295 HD
ENDBRANCH  25  27
ENDBRANCH   3  25
TORSDOF 10
