REMARK  Name = molecules/IQPSEEYGBUAQFF-AREMUKBSSA-N.pdb
REMARK                            x       y       z     vdW  Elec       q    Type
REMARK                         _______ _______ _______ _____ _____    ______ ____
ROOT
ATOM      1  C   LIG    1        1.567  -0.388  -0.728  0.00  0.00    +0.186 A 
ATOM      2  N   LIG    1        2.406  -1.200  -0.091  0.00  0.00    -0.332 N 
ATOM      3  H   LIG    1        2.188  -2.174   0.175  0.00  0.00    +0.168 HD
ATOM      4  C   LIG    1        3.576  -0.593   0.165  0.00  0.00    +0.070 A 
ATOM      5  C   LIG    1        4.753  -0.954   0.776  0.00  0.00    +0.073 A 
ATOM      6  C   LIG    1        5.841  -0.077   0.900  0.00  0.00    +0.129 A 
ATOM      7  C   LIG    1        5.713   1.184   0.389  0.00  0.00    +0.048 A 
ATOM      8  C   LIG    1        4.510   1.549  -0.234  0.00  0.00    +0.033 A 
ATOM      9  C   LIG    1        3.447   0.681  -0.351  0.00  0.00    +0.090 A 
ATOM     10  N   LIG    1        2.234   0.784  -0.883  0.00  0.00    -0.221 NA
ENDROOT
BRANCH   1  11
ATOM     11  S   LIG    1       -0.075  -0.655  -1.300  0.00  0.00    +0.030 S 
ATOM     12  O   LIG    1       -0.264   0.139  -2.581  0.00  0.00    -0.154 OA
BRANCH  11  13
ATOM     13  C   LIG    1       -1.299  -0.231  -0.069  0.00  0.00    +0.157 C 
BRANCH  13  14
ATOM     14  C   LIG    1       -2.642  -0.487  -0.636  0.00  0.00    +0.098 A 
ATOM     15  C   LIG    1       -3.758  -0.234   0.130  0.00  0.00    +0.184 A 
ATOM     16  C   LIG    1       -5.005  -0.483  -0.426  0.00  0.00    +0.165 A 
ATOM     17  C   LIG    1       -5.096  -0.971  -1.714  0.00  0.00    +0.069 A 
ATOM     18  C   LIG    1       -3.959  -1.214  -2.455  0.00  0.00    +0.115 A 
ATOM     19  N   LIG    1       -2.777  -0.961  -1.882  0.00  0.00    -0.255 NA
BRANCH  15  20
ATOM     20  O   LIG    1       -3.705   0.254   1.419  0.00  0.00    -0.490 OA
ATOM     21  C   LIG    1       -3.711   1.649   1.703  0.00  0.00    +0.277 C 
ENDBRANCH  15  20
BRANCH  16  22
ATOM     22  O   LIG    1       -6.137  -0.232   0.335  0.00  0.00    -0.491 OA
ATOM     23  C   LIG    1       -7.422  -0.486  -0.232  0.00  0.00    +0.277 C 
ENDBRANCH  16  22
ENDBRANCH  13  14
ENDBRANCH  11  13
ENDBRANCH   1  11
BRANCH   6  24
ATOM     24  O   LIG    1        6.980  -0.515   1.524  0.00  0.00    -0.434 OA
BRANCH  24  25
ATOM     25  C   LIG    1        8.145   0.194   1.740  0.00  0.00    +0.541 C 
ATOM     26  F   LIG    1        8.391   0.335   3.097  0.00  0.00    -0.166 F 
ATOM     27  F   LIG    1        9.254  -0.395   1.142  0.00  0.00    -0.166 F 
ENDBRANCH  24  25
ENDBRANCH   6  24
TORSDOF 7
