REMARK  Name = molecules/IQWYAQCHYZHJOS-UHFFFAOYSA-N.pdb
REMARK                            x       y       z     vdW  Elec       q    Type
REMARK                         _______ _______ _______ _____ _____    ______ ____
ROOT
ATOM      1  C   LIG    1       -4.207  -0.487   0.934  0.00  0.00    +0.138 C 
ATOM      2  N   LIG    1       -2.995  -0.727   0.194  0.00  0.00    -0.272 N 
ATOM      3  C   LIG    1       -2.183   0.446  -0.090  0.00  0.00    +0.045 A 
ATOM      4  C   LIG    1       -2.932   1.594  -0.143  0.00  0.00    +0.025 A 
ATOM      5  C   LIG    1       -2.292   2.761  -0.500  0.00  0.00    +0.022 A 
ATOM      6  C   LIG    1       -0.920   2.746  -0.796  0.00  0.00    +0.042 A 
ATOM      7  C   LIG    1       -0.178   1.608  -0.744  0.00  0.00    +0.031 A 
ATOM      8 CL   LIG    1       -0.072   4.221  -1.255  0.00  0.00    -0.084 Cl
ATOM      9  C   LIG    1       -0.834   0.439  -0.377  0.00  0.00    +0.023 A 
ATOM     10  C   LIG    1        0.093  -0.681  -0.299  0.00  0.00    +0.071 C 
ATOM     11  N   LIG    1       -0.257  -1.900  -0.643  0.00  0.00    -0.274 NA
ATOM     12  C   LIG    1       -1.525  -2.438  -1.141  0.00  0.00    +0.238 C 
ATOM     13  C   LIG    1       -2.647  -2.030  -0.240  0.00  0.00    +0.241 C 
ATOM     14  O   LIG    1       -3.359  -2.947   0.175  0.00  0.00    -0.273 OA
ENDROOT
BRANCH  10  15
ATOM     15  C   LIG    1        1.424  -0.466   0.161  0.00  0.00    -0.026 C 
ATOM     16  C   LIG    1        1.961   0.701   0.839  0.00  0.00    +0.037 C 
ATOM     17  C   LIG    1        3.327   1.117   0.330  0.00  0.00    +0.005 C 
ATOM     18  C   LIG    1        4.192  -0.061   0.000  0.00  0.00    +0.004 C 
ATOM     19  C   LIG    1        3.673  -1.375   0.547  0.00  0.00    +0.027 C 
ATOM     20  C   LIG    1        2.277  -1.524   0.088  0.00  0.00    -0.021 C 
ENDBRANCH  10  15
TORSDOF 1
