REMARK  Name = molecules/IRQOBYXMACIFKD-UHFFFAOYSA-N.pdb
REMARK                            x       y       z     vdW  Elec       q    Type
REMARK                         _______ _______ _______ _____ _____    ______ ____
ROOT
ATOM      1  C   LIG    1        1.341  -0.128  -0.307  0.00  0.00    +0.224 A 
ATOM      2  N   LIG    1        0.123   0.389  -0.029  0.00  0.00    -0.181 NA
ATOM      3  C   LIG    1       -0.954  -0.382  -0.118  0.00  0.00    +0.224 A 
ATOM      4  N   LIG    1       -0.870  -1.674  -0.482  0.00  0.00    -0.180 NA
ATOM      5  C   LIG    1        0.316  -2.224  -0.766  0.00  0.00    +0.235 A 
ATOM      6  N   LIG    1        1.413  -1.431  -0.671  0.00  0.00    -0.180 NA
ENDROOT
BRANCH   5   7
ATOM      7  N   LIG    1        0.341  -3.569  -1.177  0.00  0.00    -0.252 N 
ATOM      8  H   LIG    1        0.200  -3.763  -2.204  0.00  0.00    +0.169 HD
BRANCH   7   9
ATOM      9  N   LIG    1        0.539  -4.598  -0.273  0.00  0.00    -0.254 NA
ATOM     10  H   LIG    1        1.073  -4.360   0.575  0.00  0.00    +0.140 HD
ATOM     11  H   LIG    1        1.072  -5.350  -0.779  0.00  0.00    +0.140 HD
ENDBRANCH   7   9
ENDBRANCH   5   7
BRANCH   1  12
ATOM     12  N   LIG    1        2.520   0.658  -0.218  0.00  0.00    -0.300 N 
BRANCH  12  13
ATOM     13  C   LIG    1        3.255   0.849   0.999  0.00  0.00    +0.104 C 
ATOM     14  C   LIG    1        2.648   0.188   2.197  0.00  0.00    +0.024 C 
ENDBRANCH  12  13
BRANCH  12  15
ATOM     15  C   LIG    1        3.020   1.298  -1.419  0.00  0.00    +0.104 C 
ATOM     16  C   LIG    1        2.874   2.774  -1.265  0.00  0.00    +0.024 C 
ENDBRANCH  12  15
ENDBRANCH   1  12
BRANCH   3  17
ATOM     17  N   LIG    1       -2.276   0.122   0.113  0.00  0.00    -0.300 N 
BRANCH  17  18
ATOM     18  C   LIG    1       -3.215  -0.738   0.751  0.00  0.00    +0.104 C 
ATOM     19  C   LIG    1       -3.612  -0.254   2.133  0.00  0.00    +0.024 C 
ENDBRANCH  17  18
BRANCH  17  20
ATOM     20  C   LIG    1       -2.581   1.462  -0.353  0.00  0.00    +0.104 C 
ATOM     21  C   LIG    1       -3.532   1.417  -1.544  0.00  0.00    +0.024 C 
ENDBRANCH  17  20
ENDBRANCH   3  17
TORSDOF 8
