REMARK  Name = molecules/IRSCQMHQWWYFCW-UHFFFAOYSA-N.pdb
REMARK                            x       y       z     vdW  Elec       q    Type
REMARK                         _______ _______ _______ _____ _____    ______ ____
ROOT
ATOM      1  N   LIG    1        0.280  -0.728   1.028  0.00  0.00    -0.291 N 
ATOM      2  C   LIG    1       -0.067  -2.022   0.913  0.00  0.00    +0.203 A 
ATOM      3  N   LIG    1        0.927  -2.630   0.217  0.00  0.00    -0.229 NA
ATOM      4  C   LIG    1        1.863  -1.728  -0.088  0.00  0.00    +0.172 A 
ATOM      5  C   LIG    1        3.078  -1.770  -0.772  0.00  0.00    +0.280 A 
ATOM      6  N   LIG    1        3.797  -0.643  -0.904  0.00  0.00    -0.293 N 
ATOM      7  C   LIG    1        3.427   0.557  -0.413  0.00  0.00    +0.195 A 
ATOM      8  N   LIG    1        2.247   0.588   0.249  0.00  0.00    -0.196 NA
ATOM      9  H   LIG    1        4.719  -0.665  -1.420  0.00  0.00    +0.172 HD
ATOM     10  O   LIG    1        3.441  -2.871  -1.236  0.00  0.00    -0.265 OA
ATOM     11  C   LIG    1        1.482  -0.506   0.414  0.00  0.00    +0.171 A 
ENDROOT
BRANCH   7  12
ATOM     12  N   LIG    1        4.231   1.717  -0.584  0.00  0.00    -0.329 N 
ATOM     13  H   LIG    1        4.282   2.390   0.207  0.00  0.00    +0.145 HD
ATOM     14  H   LIG    1        4.777   1.952  -1.437  0.00  0.00    +0.145 HD
ENDBRANCH   7  12
BRANCH   1  15
ATOM     15  C   LIG    1       -0.422   0.361   1.693  0.00  0.00    +0.287 C 
BRANCH  15  16
ATOM     16  O   LIG    1       -1.239   1.055   0.860  0.00  0.00    -0.351 OA
BRANCH  16  17
ATOM     17  C   LIG    1       -2.256   0.357   0.262  0.00  0.00    +0.171 C 
BRANCH  17  18
ATOM     18  C   LIG    1       -3.622   0.929   0.670  0.00  0.00    +0.189 C 
BRANCH  18  19
ATOM     19  O   LIG    1       -3.718   0.818   2.052  0.00  0.00    -0.392 OA
ATOM     20  H   LIG    1       -3.207   1.517   2.492  0.00  0.00    +0.210 HD
ENDBRANCH  18  19
ENDBRANCH  17  18
BRANCH  17  21
ATOM     21  C   LIG    1       -2.103   0.492  -1.260  0.00  0.00    +0.189 C 
BRANCH  21  22
ATOM     22  O   LIG    1       -3.114  -0.202  -1.907  0.00  0.00    -0.392 OA
ATOM     23  H   LIG    1       -3.495  -0.852  -1.248  0.00  0.00    +0.210 HD
ENDBRANCH  21  22
ENDBRANCH  17  21
ENDBRANCH  16  17
ENDBRANCH  15  16
ENDBRANCH   1  15
TORSDOF 8
