REMARK  Name = molecules/IRYJRGCIQBGHIV-UHFFFAOYSA-N.pdb
REMARK                            x       y       z     vdW  Elec       q    Type
REMARK                         _______ _______ _______ _____ _____    ______ ____
ROOT
ATOM      1  C   LIG    1        2.743  -0.214   0.003  0.00  0.00    +0.144 C 
ATOM      2  N   LIG    1        1.350   0.181  -0.012  0.00  0.00    -0.207 N 
ATOM      3  C   LIG    1        0.259  -0.696   0.210  0.00  0.00    +0.268 C 
ATOM      4  O   LIG    1        0.249  -1.910   0.514  0.00  0.00    -0.271 OA
ATOM      5  C   LIG    1       -0.965   0.116   0.009  0.00  0.00    +0.185 C 
ATOM      6  C   LIG    1       -1.788   0.023   1.262  0.00  0.00    +0.066 C 
ATOM      7  O   LIG    1       -0.546   1.438  -0.173  0.00  0.00    -0.434 OA
ATOM      8  C   LIG    1       -1.671  -0.396  -1.207  0.00  0.00    +0.066 C 
ATOM      9  C   LIG    1        0.845   1.480  -0.244  0.00  0.00    +0.410 C 
ATOM     10  O   LIG    1        1.469   2.546  -0.482  0.00  0.00    -0.226 OA
ENDROOT
TORSDOF 0
