REMARK  Name = molecules/IRZVVDMCEZNNCW-UHFFFAOYSA-N.pdb
REMARK                            x       y       z     vdW  Elec       q    Type
REMARK                         _______ _______ _______ _____ _____    ______ ____
ROOT
ATOM      1  C   LIG    1       -0.070  -1.583  -0.044  0.00  0.00    +0.039 C 
ATOM      2  C   LIG    1        0.561  -2.768   0.671  0.00  0.00    +0.013 C 
ATOM      3  C   LIG    1        1.088  -3.679  -0.412  0.00  0.00    +0.001 C 
ATOM      4  C   LIG    1        1.351  -2.763  -1.586  0.00  0.00    +0.001 C 
ATOM      5  C   LIG    1        0.195  -1.804  -1.505  0.00  0.00    +0.013 C 
ENDROOT
BRANCH   1   6
ATOM      6  C   LIG    1       -1.518  -1.558   0.305  0.00  0.00    +0.244 C 
BRANCH   6   7
ATOM      7  O   LIG    1       -2.198  -0.455  -0.263  0.00  0.00    -0.449 OA
BRANCH   7   8
ATOM      8  C   LIG    1       -3.561  -0.242  -0.062  0.00  0.00    +0.405 C 
ATOM      9  O   LIG    1       -4.140  -1.080   0.646  0.00  0.00    -0.226 OA
ATOM     10  N   LIG    1       -4.249   0.850  -0.620  0.00  0.00    -0.251 N 
ATOM     11  H   LIG    1       -3.646   1.504  -1.210  0.00  0.00    +0.158 HD
BRANCH  10  12
ATOM     12  C   LIG    1       -5.614   1.148  -0.475  0.00  0.00    +0.036 A 
ATOM     13  C   LIG    1       -6.507   0.406   0.242  0.00  0.00    +0.023 A 
ATOM     14  C   LIG    1       -7.851   0.739   0.358  0.00  0.00    +0.002 A 
ATOM     15  C   LIG    1       -8.344   1.852  -0.259  0.00  0.00    +0.000 A 
ATOM     16  C   LIG    1       -7.461   2.624  -0.994  0.00  0.00    +0.002 A 
ATOM     17  C   LIG    1       -6.137   2.288  -1.102  0.00  0.00    +0.023 A 
ENDBRANCH  10  12
ENDBRANCH   7   8
ENDBRANCH   6   7
ENDBRANCH   1   6
BRANCH   1  18
ATOM     18  C   LIG    1        0.664  -0.349   0.429  0.00  0.00    +0.244 C 
BRANCH  18  19
ATOM     19  O   LIG    1        2.020  -0.503   0.034  0.00  0.00    -0.449 OA
BRANCH  19  20
ATOM     20  C   LIG    1        2.978   0.473   0.321  0.00  0.00    +0.405 C 
ATOM     21  O   LIG    1        2.604   1.488   0.938  0.00  0.00    -0.226 OA
ATOM     22  N   LIG    1        4.304   0.273  -0.092  0.00  0.00    -0.251 N 
ATOM     23  H   LIG    1        4.475  -0.647  -0.612  0.00  0.00    +0.158 HD
BRANCH  22  24
ATOM     24  C   LIG    1        5.407   1.126   0.097  0.00  0.00    +0.036 A 
ATOM     25  C   LIG    1        5.336   2.324   0.739  0.00  0.00    +0.023 A 
ATOM     26  C   LIG    1        6.492   3.109   0.881  0.00  0.00    +0.002 A 
ATOM     27  C   LIG    1        7.700   2.689   0.381  0.00  0.00    +0.000 A 
ATOM     28  C   LIG    1        7.783   1.482  -0.269  0.00  0.00    +0.002 A 
ATOM     29  C   LIG    1        6.658   0.732  -0.400  0.00  0.00    +0.023 A 
ENDBRANCH  22  24
ENDBRANCH  19  20
ENDBRANCH  18  19
ENDBRANCH   1  18
TORSDOF 8
