REMARK  Name = molecules/ISAOCJYIOMOJEB-CYBMUJFWSA-N.pdb
REMARK                            x       y       z     vdW  Elec       q    Type
REMARK                         _______ _______ _______ _____ _____    ______ ____
ROOT
ATOM      1  C   LIG    1        0.489  -0.987  -1.066  0.00  0.00    +0.187 C 
ENDROOT
BRANCH   1   2
ATOM      2  C   LIG    1        1.772  -0.437  -0.478  0.00  0.00    -0.016 A 
ATOM      3  C   LIG    1        1.928   0.867  -0.123  0.00  0.00    +0.006 A 
ATOM      4  C   LIG    1        3.142   1.306   0.426  0.00  0.00    +0.000 A 
ATOM      5  C   LIG    1        4.186   0.444   0.617  0.00  0.00    +0.000 A 
ATOM      6  C   LIG    1        4.025  -0.865   0.258  0.00  0.00    +0.000 A 
ATOM      7  C   LIG    1        2.847  -1.299  -0.277  0.00  0.00    +0.006 A 
ENDBRANCH   1   2
BRANCH   1   8
ATOM      8  O   LIG    1        0.150  -2.103  -0.344  0.00  0.00    -0.384 OA
ATOM      9  H   LIG    1        0.577  -2.055   0.548  0.00  0.00    +0.210 HD
ENDBRANCH   1   8
BRANCH   1  10
ATOM     10  C   LIG    1       -0.511   0.059  -1.194  0.00  0.00    +0.197 C 
ATOM     11  O   LIG    1       -0.184   1.008  -2.007  0.00  0.00    -0.216 OA
BRANCH  10  12
ATOM     12  C   LIG    1       -1.800   0.177  -0.545  0.00  0.00    -0.007 A 
ATOM     13  C   LIG    1       -2.328  -0.709   0.359  0.00  0.00    +0.007 A 
ATOM     14  C   LIG    1       -3.581  -0.526   0.948  0.00  0.00    +0.000 A 
ATOM     15  C   LIG    1       -4.346   0.574   0.635  0.00  0.00    +0.000 A 
ATOM     16  C   LIG    1       -3.845   1.485  -0.271  0.00  0.00    +0.000 A 
ATOM     17  C   LIG    1       -2.618   1.277  -0.828  0.00  0.00    +0.007 A 
ENDBRANCH  10  12
ENDBRANCH   1  10
TORSDOF 4
