REMARK  Name = molecules/ISEHJSHTIVKELA-VDFGSOQMSA-N.pdb
REMARK                            x       y       z     vdW  Elec       q    Type
REMARK                         _______ _______ _______ _____ _____    ______ ____
ROOT
ATOM      1  C   LIG    1        0.180   0.645  -1.051  0.00  0.00    +0.053 C 
ENDROOT
BRANCH   1   2
ATOM      2  C   LIG    1        1.435   0.435  -0.266  0.00  0.00    -0.046 A 
ATOM      3  C   LIG    1        1.579   0.625   1.072  0.00  0.00    +0.005 A 
ATOM      4  C   LIG    1        2.809   0.424   1.722  0.00  0.00    +0.014 A 
ATOM      5  C   LIG    1        3.921   0.027   1.036  0.00  0.00    +0.013 A 
ATOM      6  I   LIG    1        5.782  -0.280   2.008  0.00  0.00    -0.044 I 
ATOM      7  C   LIG    1        3.799  -0.174  -0.327  0.00  0.00    +0.014 A 
ATOM      8  C   LIG    1        2.591   0.025  -0.955  0.00  0.00    +0.005 A 
ENDBRANCH   1   2
BRANCH   1   9
ATOM      9  C   LIG    1       -0.739  -0.538  -0.964  0.00  0.00    +0.055 C 
ATOM     10  C   LIG    1       -0.203  -1.795  -1.598  0.00  0.00    +0.024 C 
BRANCH   9  11
ATOM     11  N   LIG    1       -1.203  -0.755   0.343  0.00  0.00    -0.311 NA
ATOM     12  H   LIG    1       -0.491  -1.129   1.014  0.00  0.00    +0.122 HD
BRANCH  11  13
ATOM     13  C   LIG    1       -2.221   0.020   0.906  0.00  0.00    +0.048 C 
ATOM     14  C   LIG    1       -2.085   1.509   0.970  0.00  0.00    +0.023 C 
ATOM     15  C   LIG    1       -3.579  -0.241   0.189  0.00  0.00    +0.023 C 
ENDBRANCH  11  13
ENDBRANCH   9  11
ENDBRANCH   1   9
TORSDOF 4
