REMARK  Name = molecules/ISHXLNHNDMZNMC-XUDSTZEESA-N.pdb
REMARK                            x       y       z     vdW  Elec       q    Type
REMARK                         _______ _______ _______ _____ _____    ______ ____
ROOT
ATOM      1  C   LIG    1       -2.130   0.125  -0.370  0.00  0.00    +0.014 C 
ATOM      2  C   LIG    1       -1.530  -0.130   0.989  0.00  0.00    +0.002 C 
ATOM      3  C   LIG    1       -2.516  -1.046   1.610  0.00  0.00    +0.008 C 
ATOM      4  C   LIG    1       -3.843  -0.500   1.131  0.00  0.00    +0.049 C 
ATOM      5  C   LIG    1       -0.134  -0.637   0.880  0.00  0.00    -0.003 C 
ATOM      6  C   LIG    1        0.503  -0.940   2.190  0.00  0.00    +0.008 C 
ATOM      7  C   LIG    1        1.916  -0.557   2.379  0.00  0.00    +0.031 C 
ATOM      8  C   LIG    1        2.699  -0.367   1.153  0.00  0.00    -0.064 C 
ATOM      9  C   LIG    1        4.003  -0.216   1.223  0.00  0.00    +0.026 C 
ATOM     10  C   LIG    1        4.832  -0.013   0.043  0.00  0.00    +0.080 C 
ATOM     11  N   LIG    1        6.059   0.358   0.078  0.00  0.00    -0.092 NA
ATOM     12  C   LIG    1        4.208  -0.254  -1.274  0.00  0.00    +0.059 C 
ATOM     13  C   LIG    1        2.818   0.329  -1.226  0.00  0.00    +0.014 C 
ATOM     14  C   LIG    1        2.009  -0.336  -0.148  0.00  0.00    +0.019 C 
ATOM     15  C   LIG    1        0.692   0.356   0.140  0.00  0.00    -0.000 C 
ATOM     16  C   LIG    1        0.090   0.891  -1.109  0.00  0.00    +0.005 C 
ATOM     17  C   LIG    1       -3.539   0.503   0.030  0.00  0.00    +0.132 C 
ATOM     18  C   LIG    1       -1.365   1.235  -0.996  0.00  0.00    +0.011 C 
ENDROOT
BRANCH   1  19
ATOM     19  C   LIG    1       -2.221  -1.118  -1.209  0.00  0.00    +0.007 C 
ATOM     20  C   LIG    1       -2.819  -0.853  -2.551  0.00  0.00    +0.004 C 
ENDBRANCH   1  19
BRANCH  11  21
ATOM     21  O   LIG    1        6.845   0.552  -1.003  0.00  0.00    -0.409 OA
ATOM     22  H   LIG    1        7.708   1.058  -0.895  0.00  0.00    +0.328 HD
ENDBRANCH  11  21
BRANCH  17  23
ATOM     23  C   LIG    1       -3.500   1.867   0.555  0.00  0.00    -0.070 C 
ATOM     24  C   LIG    1       -3.468   2.991   1.010  0.00  0.00    +0.007 C 
ENDBRANCH  17  23
BRANCH  17  25
ATOM     25  O   LIG    1       -4.462   0.372  -0.975  0.00  0.00    -0.376 OA
ATOM     26  H   LIG    1       -4.763   1.258  -1.346  0.00  0.00    +0.211 HD
ENDBRANCH  17  25
TORSDOF 4
