REMARK  Name = molecules/ISRODTBNJUAWEJ-QGZVFWFLSA-N.pdb
REMARK                            x       y       z     vdW  Elec       q    Type
REMARK                         _______ _______ _______ _____ _____    ______ ____
ROOT
ATOM      1  C   LIG    1       -0.309   0.242  -0.195  0.00  0.00    +0.162 C 
ENDROOT
BRANCH   1   2
ATOM      2  C   LIG    1       -0.781   1.632  -0.341  0.00  0.00    -0.018 A 
ATOM      3  C   LIG    1       -1.338   2.287   0.731  0.00  0.00    +0.006 A 
ATOM      4  C   LIG    1       -1.768   3.582   0.555  0.00  0.00    +0.000 A 
ATOM      5  C   LIG    1       -1.657   4.231  -0.648  0.00  0.00    +0.000 A 
ATOM      6  C   LIG    1       -1.099   3.594  -1.746  0.00  0.00    +0.000 A 
ATOM      7  C   LIG    1       -0.678   2.298  -1.539  0.00  0.00    +0.006 A 
ENDBRANCH   1   2
BRANCH   1   8
ATOM      8  C   LIG    1       -1.223  -0.789  -0.765  0.00  0.00    +0.120 C 
BRANCH   8   9
ATOM      9  N   LIG    1       -2.549  -0.767  -0.178  0.00  0.00    -0.300 NA
ATOM     10  C   LIG    1       -2.528  -1.190   1.209  0.00  0.00    +0.084 C 
ATOM     11  C   LIG    1       -3.931  -1.708   1.433  0.00  0.00    +0.017 C 
ATOM     12  C   LIG    1       -4.161  -2.497   0.166  0.00  0.00    +0.017 C 
ATOM     13  C   LIG    1       -3.342  -1.770  -0.864  0.00  0.00    +0.084 C 
ENDBRANCH   8   9
ENDBRANCH   1   8
BRANCH   1  14
ATOM     14  O   LIG    1        0.931   0.120  -0.832  0.00  0.00    -0.371 OA
BRANCH  14  15
ATOM     15  C   LIG    1        1.966  -0.182   0.025  0.00  0.00    +0.161 C 
BRANCH  15  16
ATOM     16  C   LIG    1        3.222  -0.275  -0.842  0.00  0.00    +0.031 C 
BRANCH  16  17
ATOM     17  C   LIG    1        4.443  -0.604  -0.012  0.00  0.00    -0.015 C 
ATOM     18  C   LIG    1        4.779   0.507   0.956  0.00  0.00    +0.007 C 
ATOM     19  C   LIG    1        4.305  -1.923   0.707  0.00  0.00    +0.007 C 
ENDBRANCH  16  17
ENDBRANCH  15  16
ENDBRANCH  14  15
ENDBRANCH   1  14
TORSDOF 7
