REMARK  Name = molecules/ISWRGOKTTBVCFA-UHFFFAOYSA-N.pdb
REMARK                            x       y       z     vdW  Elec       q    Type
REMARK                         _______ _______ _______ _____ _____    ______ ____
ROOT
ATOM      1  O   LIG    1        0.127   0.097  -2.687  0.00  0.00    -0.267 OA
ATOM      2  C   LIG    1       -0.647   0.054  -1.685  0.00  0.00    +0.256 A 
ATOM      3  N   LIG    1       -0.196  -0.024  -0.418  0.00  0.00    -0.284 N 
ATOM      4  C   LIG    1       -1.087  -0.066   0.597  0.00  0.00    +0.098 A 
ATOM      5  C   LIG    1       -2.446  -0.033   0.394  0.00  0.00    -0.034 A 
ATOM      6  C   LIG    1       -3.381  -0.082   1.545  0.00  0.00    +0.045 C 
ATOM      7  C   LIG    1       -2.883   0.046  -0.913  0.00  0.00    +0.010 A 
ATOM      8  C   LIG    1       -2.006   0.092  -1.983  0.00  0.00    +0.071 A 
ENDROOT
BRANCH   3   9
ATOM      9  C   LIG    1        1.201  -0.060  -0.166  0.00  0.00    +0.049 A 
ATOM     10  C   LIG    1        1.728   0.956   0.630  0.00  0.00    +0.026 A 
ATOM     11  C   LIG    1        3.058   1.024   0.939  0.00  0.00    +0.002 A 
ATOM     12  C   LIG    1        3.892   0.040   0.433  0.00  0.00    +0.000 A 
ATOM     13  C   LIG    1        3.407  -0.985  -0.361  0.00  0.00    +0.002 A 
ATOM     14  C   LIG    1        2.042  -1.031  -0.662  0.00  0.00    +0.026 A 
ENDBRANCH   3   9
TORSDOF 1
