REMARK  Name = molecules/ISWSIDIOOBJBQZ-UHFFFAOYSA-N.pdb
REMARK                            x       y       z     vdW  Elec       q    Type
REMARK                         _______ _______ _______ _____ _____    ______ ____
ROOT
ATOM      1  C   LIG    1        1.100  -0.032   0.148  0.00  0.00    +0.117 A 
ATOM      2  C   LIG    1        0.349  -1.198   0.154  0.00  0.00    +0.045 A 
ATOM      3  C   LIG    1       -1.018  -1.153   0.056  0.00  0.00    +0.004 A 
ATOM      4  C   LIG    1       -1.655   0.054  -0.050  0.00  0.00    +0.000 A 
ATOM      5  C   LIG    1       -0.919   1.225  -0.058  0.00  0.00    +0.004 A 
ATOM      6  C   LIG    1        0.456   1.197   0.041  0.00  0.00    +0.045 A 
ENDROOT
BRANCH   1   7
ATOM      7  O   LIG    1        2.483  -0.119   0.249  0.00  0.00    -0.507 OA
ATOM      8  H   LIG    1        3.041  -0.196  -0.604  0.00  0.00    +0.292 HD
ENDBRANCH   1   7
TORSDOF 1
