REMARK  Name = molecules/ISZNZKHCRKXXAU-UHFFFAOYSA-N.pdb
REMARK                            x       y       z     vdW  Elec       q    Type
REMARK                         _______ _______ _______ _____ _____    ______ ____
ROOT
ATOM      1  C   LIG    1        0.720   0.774   0.087  0.00  0.00    +0.393 C 
ATOM      2  N   LIG    1        1.025   1.899   0.627  0.00  0.00    -0.129 NA
ATOM      3  H   LIG    1        0.373   2.366   1.286  0.00  0.00    +0.306 HD
ENDROOT
BRANCH   1   4
ATOM      4  N   LIG    1        1.653   0.160  -0.823  0.00  0.00    -0.243 N 
ATOM      5  H   LIG    1        1.339  -0.011  -1.792  0.00  0.00    +0.265 HD
BRANCH   4   6
ATOM      6  C   LIG    1        2.945  -0.178  -0.353  0.00  0.00    +0.101 A 
ATOM      7  C   LIG    1        3.366   0.046   0.933  0.00  0.00    +0.044 A 
ATOM      8  C   LIG    1        4.615  -0.280   1.390  0.00  0.00    +0.025 A 
ATOM      9  C   LIG    1        5.506  -0.867   0.521  0.00  0.00    +0.059 A 
ATOM     10 CL   LIG    1        7.135  -1.323   1.014  0.00  0.00    -0.082 Cl
ATOM     11  C   LIG    1        5.121  -1.117  -0.802  0.00  0.00    +0.062 A 
ATOM     12 CL   LIG    1        6.270  -1.864  -1.890  0.00  0.00    -0.082 Cl
ATOM     13  C   LIG    1        3.833  -0.765  -1.224  0.00  0.00    +0.063 A 
ENDBRANCH   4   6
ENDBRANCH   1   4
BRANCH   1  14
ATOM     14  N   LIG    1       -0.521   0.192   0.413  0.00  0.00    -0.186 N 
ATOM     15  H   LIG    1       -0.547  -0.566   1.111  0.00  0.00    +0.271 HD
BRANCH  14  16
ATOM     16  C   LIG    1       -1.709   0.636  -0.203  0.00  0.00    +0.388 C 
ATOM     17  N   LIG    1       -1.824   0.765  -1.499  0.00  0.00    -0.129 NA
ATOM     18  H   LIG    1       -1.038   0.545  -2.153  0.00  0.00    +0.306 HD
BRANCH  16  19
ATOM     19  N   LIG    1       -2.885   0.981   0.542  0.00  0.00    -0.273 N 
ATOM     20  H   LIG    1       -2.838   1.730   1.267  0.00  0.00    +0.258 HD
BRANCH  19  21
ATOM     21  C   LIG    1       -4.132   0.315   0.310  0.00  0.00    +0.139 C 
ATOM     22  C   LIG    1       -4.035  -1.185   0.488  0.00  0.00    +0.047 C 
ATOM     23  C   LIG    1       -4.525   0.548  -1.146  0.00  0.00    +0.047 C 
ENDBRANCH  19  21
ENDBRANCH  16  19
ENDBRANCH  14  16
ENDBRANCH   1  14
TORSDOF 6
