REMARK  Name = molecules/ITRJWOMZKQRYTA-RFZYENFJSA-N.pdb
REMARK                            x       y       z     vdW  Elec       q    Type
REMARK                         _______ _______ _______ _____ _____    ______ ____
ROOT
ATOM      1  C   LIG    1        1.348   0.794  -0.604  0.00  0.00    +0.015 C 
ATOM      2  C   LIG    1        1.111  -0.411   0.257  0.00  0.00    +0.013 C 
ATOM      3  C   LIG    1        0.120  -0.149   1.375  0.00  0.00    +0.002 C 
ATOM      4  C   LIG    1        0.967   0.605   2.349  0.00  0.00    +0.008 C 
ATOM      5  C   LIG    1        2.151  -0.337   2.447  0.00  0.00    +0.043 C 
ATOM      6  C   LIG    1       -1.051   0.576   0.835  0.00  0.00    +0.004 C 
ATOM      7  C   LIG    1       -1.976   1.103   1.916  0.00  0.00    +0.009 C 
ATOM      8  C   LIG    1       -3.058   1.899   1.218  0.00  0.00    +0.032 C 
ATOM      9  C   LIG    1       -3.790   0.954   0.334  0.00  0.00    -0.060 C 
ATOM     10  C   LIG    1       -5.109   0.981   0.380  0.00  0.00    +0.046 C 
ATOM     11  C   LIG    1       -5.944   0.107  -0.435  0.00  0.00    +0.156 C 
ATOM     12  O   LIG    1       -7.201   0.157  -0.378  0.00  0.00    -0.293 OA
ATOM     13  C   LIG    1       -5.279  -0.858  -1.349  0.00  0.00    +0.080 C 
ATOM     14  C   LIG    1       -3.954  -1.216  -0.739  0.00  0.00    +0.019 C 
ATOM     15  C   LIG    1       -3.074   0.028  -0.555  0.00  0.00    -0.001 C 
ATOM     16  C   LIG    1       -2.999   0.689  -1.923  0.00  0.00    +0.016 C 
ATOM     17  C   LIG    1       -1.768  -0.442  -0.041  0.00  0.00    +0.069 C 
ATOM     18  C   LIG    1       -0.832  -0.898  -1.078  0.00  0.00    +0.138 C 
ATOM     19  O   LIG    1       -1.065  -0.840  -2.273  0.00  0.00    -0.297 OA
ATOM     20  C   LIG    1        2.300  -0.890   1.017  0.00  0.00    +0.133 C 
ATOM     21  C   LIG    1        0.485  -1.466  -0.624  0.00  0.00    +0.084 C 
ENDROOT
BRANCH  20  22
ATOM     22  O   LIG    1        2.322  -2.287   1.065  0.00  0.00    -0.380 OA
ATOM     23  H   LIG    1        3.167  -2.695   0.828  0.00  0.00    +0.211 HD
ENDBRANCH  20  22
BRANCH  20  24
ATOM     24  C   LIG    1        3.571  -0.330   0.519  0.00  0.00    +0.202 C 
ATOM     25  O   LIG    1        3.680   0.864   0.412  0.00  0.00    -0.291 OA
BRANCH  24  26
ATOM     26  C   LIG    1        4.685  -1.228   0.161  0.00  0.00    +0.309 C 
BRANCH  26  27
ATOM     27  O   LIG    1        5.851  -0.577  -0.273  0.00  0.00    -0.457 OA
BRANCH  27  28
ATOM     28  C   LIG    1        5.855   0.234  -1.386  0.00  0.00    +0.304 C 
ATOM     29  C   LIG    1        7.085   0.918  -1.837  0.00  0.00    +0.136 C 
ATOM     30  O   LIG    1        4.795   0.397  -2.031  0.00  0.00    -0.251 OA
ENDBRANCH  27  28
ENDBRANCH  26  27
ENDBRANCH  24  26
ENDBRANCH  20  24
TORSDOF 5
