REMARK  Name = molecules/IUBSYMUCCVWXPE-AWEZNQCLSA-N.pdb
REMARK                            x       y       z     vdW  Elec       q    Type
REMARK                         _______ _______ _______ _____ _____    ______ ____
ROOT
ATOM      1  O   LIG    1       -0.398  -0.871   0.306  0.00  0.00    -0.489 OA
ENDROOT
BRANCH   1   2
ATOM      2  C   LIG    1        0.943  -0.583   0.030  0.00  0.00    +0.121 A 
ATOM      3  C   LIG    1        1.646   0.359   0.753  0.00  0.00    +0.046 A 
ATOM      4  C   LIG    1        2.979   0.634   0.466  0.00  0.00    +0.007 A 
ATOM      5  C   LIG    1        3.651  -0.014  -0.541  0.00  0.00    -0.045 A 
ATOM      6  C   LIG    1        2.922  -0.962  -1.259  0.00  0.00    +0.007 A 
ATOM      7  C   LIG    1        1.601  -1.245  -0.987  0.00  0.00    +0.046 A 
BRANCH   5   8
ATOM      8  C   LIG    1        5.067   0.215  -0.910  0.00  0.00    +0.063 C 
BRANCH   8   9
ATOM      9  C   LIG    1        6.008  -0.695  -0.177  0.00  0.00    +0.164 C 
BRANCH   9  10
ATOM     10  O   LIG    1        6.005  -0.579   1.186  0.00  0.00    -0.383 OA
ATOM     11  C   LIG    1        6.374   0.642   1.685  0.00  0.00    +0.193 C 
ENDBRANCH   9  10
ENDBRANCH   8   9
ENDBRANCH   5   8
ENDBRANCH   1   2
BRANCH   1  12
ATOM     12  C   LIG    1       -1.011  -0.161   1.357  0.00  0.00    +0.261 C 
BRANCH  12  13
ATOM     13  C   LIG    1       -2.440  -0.532   1.579  0.00  0.00    +0.166 C 
BRANCH  13  14
ATOM     14  O   LIG    1       -2.906   0.250   2.644  0.00  0.00    -0.387 OA
ATOM     15  H   LIG    1       -2.166   0.472   3.244  0.00  0.00    +0.210 HD
ENDBRANCH  13  14
BRANCH  13  16
ATOM     16  C   LIG    1       -3.195  -0.209   0.302  0.00  0.00    +0.115 C 
BRANCH  16  17
ATOM     17  N   LIG    1       -4.614  -0.447   0.423  0.00  0.00    -0.311 NA
ATOM     18  H   LIG    1       -5.056   0.141   1.162  0.00  0.00    +0.122 HD
BRANCH  17  19
ATOM     19  C   LIG    1       -5.192  -0.090  -0.878  0.00  0.00    +0.048 C 
ATOM     20  C   LIG    1       -6.665  -0.422  -0.804  0.00  0.00    +0.023 C 
ATOM     21  C   LIG    1       -4.966   1.379  -1.171  0.00  0.00    +0.023 C 
ENDBRANCH  17  19
ENDBRANCH  16  17
ENDBRANCH  13  16
ENDBRANCH  12  13
ENDBRANCH   1  12
TORSDOF 10
