REMARK  Name = molecules/IUCJMVBFZDHPDX-UHFFFAOYSA-N.pdb
REMARK                            x       y       z     vdW  Elec       q    Type
REMARK                         _______ _______ _______ _____ _____    ______ ____
ROOT
ATOM      1  C   LIG    1        1.351  -0.195   0.236  0.00  0.00    +0.224 A 
ATOM      2  N   LIG    1        0.852   1.048   0.227  0.00  0.00    -0.181 NA
ATOM      3  C   LIG    1       -0.445   1.308   0.004  0.00  0.00    +0.224 A 
ATOM      4  N   LIG    1       -1.267   0.267  -0.218  0.00  0.00    -0.181 NA
ATOM      5  C   LIG    1       -0.816  -1.007  -0.220  0.00  0.00    +0.224 A 
ATOM      6  N   LIG    1        0.491  -1.216   0.008  0.00  0.00    -0.181 NA
ENDROOT
BRANCH   1   7
ATOM      7  N   LIG    1        2.726  -0.450   0.474  0.00  0.00    -0.296 N 
ATOM      8  C   LIG    1        4.086  -0.080   0.751  0.00  0.00    +0.127 C 
ATOM      9  C   LIG    1        3.793  -1.500   0.600  0.00  0.00    +0.127 C 
ENDBRANCH   1   7
BRANCH   3  10
ATOM     10  N   LIG    1       -0.933   2.632   0.003  0.00  0.00    -0.296 N 
ATOM     11  C   LIG    1       -0.798   4.108   0.128  0.00  0.00    +0.127 C 
ATOM     12  C   LIG    1       -2.085   3.576  -0.147  0.00  0.00    +0.127 C 
ENDBRANCH   3  10
BRANCH   5  13
ATOM     13  N   LIG    1       -1.712  -2.093  -0.460  0.00  0.00    -0.296 N 
ATOM     14  C   LIG    1       -2.003  -3.496  -0.608  0.00  0.00    +0.127 C 
ATOM     15  C   LIG    1       -3.084  -2.554  -0.745  0.00  0.00    +0.127 C 
ENDBRANCH   5  13
TORSDOF 3
