REMARK  Name = molecules/IUJDSEJGGMCXSG-ZETCQYMHSA-N.pdb
REMARK                            x       y       z     vdW  Elec       q    Type
REMARK                         _______ _______ _______ _____ _____    ______ ____
ROOT
ATOM      1  C   LIG    1       -0.787  -0.313  -0.227  0.00  0.00    +0.126 C 
ATOM      2  C   LIG    1       -1.212   0.132   1.116  0.00  0.00    +0.234 C 
ATOM      3  O   LIG    1       -0.672  -0.357   2.134  0.00  0.00    -0.274 OA
ATOM      4  N   LIG    1       -2.230   1.112   1.282  0.00  0.00    -0.267 N 
ATOM      5  H   LIG    1       -2.418   1.488   2.228  0.00  0.00    +0.157 HD
ATOM      6  C   LIG    1       -2.986   1.575   0.168  0.00  0.00    +0.143 C 
ATOM      7  S   LIG    1       -4.146   2.699   0.392  0.00  0.00    -0.018 S 
ATOM      8  N   LIG    1       -2.752   1.082  -1.127  0.00  0.00    -0.267 N 
ATOM      9  H   LIG    1       -3.320   1.434  -1.946  0.00  0.00    +0.157 HD
ATOM     10  C   LIG    1       -1.736   0.106  -1.287  0.00  0.00    +0.234 C 
ATOM     11  O   LIG    1       -1.631  -0.447  -2.409  0.00  0.00    -0.274 OA
ENDROOT
BRANCH   1  12
ATOM     12  C   LIG    1        0.566   0.238  -0.613  0.00  0.00    +0.010 C 
ATOM     13  C   LIG    1        0.488   1.734  -0.725  0.00  0.00    +0.009 C 
BRANCH  12  14
ATOM     14  C   LIG    1        1.651  -0.180   0.335  0.00  0.00    +0.004 C 
BRANCH  14  16
ATOM     15  C   LIG    1        4.099  -0.117   0.851  0.00  0.00    +0.004 C 
ATOM     16  C   LIG    1        3.015   0.307  -0.108  0.00  0.00    -0.003 C 
ENDBRANCH  14  16
ENDBRANCH  12  14
ENDBRANCH   1  12
BRANCH   1  17
ATOM     17  C   LIG    1       -0.771  -1.827  -0.210  0.00  0.00    +0.022 C 
ATOM     18  C   LIG    1       -2.117  -2.397   0.172  0.00  0.00    +0.005 C 
ENDBRANCH   1  17
TORSDOF 4
