REMARK  Name = molecules/IUNJANQVIJDFTQ-TUAOUCFPSA-N.pdb
REMARK                            x       y       z     vdW  Elec       q    Type
REMARK                         _______ _______ _______ _____ _____    ______ ____
ROOT
ATOM      1  C   LIG    1        0.989  -0.109  -0.934  0.00  0.00    +0.064 A 
ATOM      2  C   LIG    1        0.555   1.139  -0.524  0.00  0.00    +0.049 A 
ATOM      3  C   LIG    1       -0.718   1.388  -0.070  0.00  0.00    +0.065 A 
ATOM      4  C   LIG    1       -1.585   0.302  -0.042  0.00  0.00    +0.040 A 
ATOM      5  I   LIG    1       -3.562   0.609   0.642  0.00  0.00    -0.042 I 
ATOM      6  C   LIG    1       -1.226  -0.987  -0.442  0.00  0.00    +0.065 A 
ATOM      7  I   LIG    1        1.954   2.722  -0.759  0.00  0.00    -0.041 I 
ATOM      8  C   LIG    1        0.062  -1.151  -0.877  0.00  0.00    +0.049 A 
ATOM      9  I   LIG    1        0.794  -3.044  -1.438  0.00  0.00    -0.041 I 
ENDROOT
BRANCH   3  10
ATOM     10  C   LIG    1       -1.198   2.665   0.441  0.00  0.00    +0.246 C 
ATOM     11  N   LIG    1       -0.495   3.701   1.037  0.00  0.00    -0.309 N 
ATOM     12  H   LIG    1        0.552   3.551   1.205  0.00  0.00    +0.149 HD
ATOM     13  O   LIG    1       -2.465   2.834   0.314  0.00  0.00    -0.270 OA
BRANCH  11  14
ATOM     14  C   LIG    1       -1.023   4.952   1.503  0.00  0.00    +0.138 C 
BRANCH  14  15
ATOM     15  C   LIG    1       -1.635   5.838   0.474  0.00  0.00    +0.157 C 
BRANCH  15  16
ATOM     16  O   LIG    1       -2.705   5.294  -0.181  0.00  0.00    -0.388 OA
ATOM     17  H   LIG    1       -2.616   5.321  -1.153  0.00  0.00    +0.210 HD
ENDBRANCH  15  16
BRANCH  15  18
ATOM     18  C   LIG    1       -2.071   7.171   1.053  0.00  0.00    +0.188 C 
BRANCH  18  19
ATOM     19  O   LIG    1       -3.124   7.031   1.943  0.00  0.00    -0.392 OA
ATOM     20  H   LIG    1       -3.949   6.798   1.447  0.00  0.00    +0.210 HD
ENDBRANCH  18  19
ENDBRANCH  15  18
ENDBRANCH  14  15
ENDBRANCH  11  14
ENDBRANCH   3  10
BRANCH   1  21
ATOM     21  N   LIG    1        2.311  -0.313  -1.383  0.00  0.00    -0.267 N 
ATOM     22  C   LIG    1        2.449  -0.627  -2.787  0.00  0.00    +0.217 C 
ATOM     23  O   LIG    1        3.581  -0.900  -3.299  0.00  0.00    -0.276 OA
ATOM     24  C   LIG    1        1.305  -0.652  -3.730  0.00  0.00    +0.109 C 
BRANCH  21  25
ATOM     25  C   LIG    1        3.512  -0.218  -0.633  0.00  0.00    +0.147 C 
BRANCH  25  26
ATOM     26  C   LIG    1        4.005  -1.470   0.014  0.00  0.00    +0.158 C 
BRANCH  26  27
ATOM     27  O   LIG    1        3.172  -2.024   0.958  0.00  0.00    -0.388 OA
ATOM     28  H   LIG    1        3.652  -2.532   1.635  0.00  0.00    +0.210 HD
ENDBRANCH  26  27
BRANCH  26  29
ATOM     29  C   LIG    1        5.344  -1.230   0.728  0.00  0.00    +0.192 C 
BRANCH  29  30
ATOM     30  O   LIG    1        5.038  -0.355   1.775  0.00  0.00    -0.380 OA
ATOM     31  C   LIG    1        6.200  -0.083   2.474  0.00  0.00    +0.194 C 
ENDBRANCH  29  30
ENDBRANCH  26  29
ENDBRANCH  25  26
ENDBRANCH  21  25
ENDBRANCH   1  21
BRANCH   6  32
ATOM     32  C   LIG    1       -2.237  -2.021  -0.433  0.00  0.00    +0.246 C 
ATOM     33  O   LIG    1       -3.155  -1.877   0.447  0.00  0.00    -0.270 OA
ATOM     34  N   LIG    1       -2.289  -3.110  -1.278  0.00  0.00    -0.309 N 
ATOM     35  H   LIG    1       -1.639  -3.326  -2.064  0.00  0.00    +0.149 HD
BRANCH  34  36
ATOM     36  C   LIG    1       -3.388  -4.070  -1.116  0.00  0.00    +0.138 C 
BRANCH  36  37
ATOM     37  C   LIG    1       -3.406  -4.710   0.240  0.00  0.00    +0.157 C 
BRANCH  37  38
ATOM     38  O   LIG    1       -2.216  -5.399   0.476  0.00  0.00    -0.388 OA
ATOM     39  H   LIG    1       -1.937  -5.354   1.403  0.00  0.00    +0.210 HD
ENDBRANCH  37  38
BRANCH  37  40
ATOM     40  C   LIG    1       -4.505  -5.782   0.172  0.00  0.00    +0.188 C 
BRANCH  40  41
ATOM     41  O   LIG    1       -5.698  -5.084  -0.065  0.00  0.00    -0.392 OA
ATOM     42  H   LIG    1       -6.433  -5.435   0.500  0.00  0.00    +0.210 HD
ENDBRANCH  40  41
ENDBRANCH  37  40
ENDBRANCH  36  37
ENDBRANCH  34  36
ENDBRANCH   6  32
TORSDOF 18
