REMARK  Name = molecules/IUWVALYLNVXWKX-UHFFFAOYSA-N.pdb
REMARK                            x       y       z     vdW  Elec       q    Type
REMARK                         _______ _______ _______ _____ _____    ______ ____
ROOT
ATOM      1  C   LIG    1        1.652  -0.232  -0.094  0.00  0.00    +0.059 A 
ATOM      2  C   LIG    1        2.176   1.028  -0.024  0.00  0.00    +0.017 A 
ATOM      3  C   LIG    1        3.518   1.277  -0.194  0.00  0.00    +0.023 A 
ATOM      4  C   LIG    1        4.397   0.232  -0.447  0.00  0.00    +0.025 A 
ATOM      5  C   LIG    1        3.896  -1.028  -0.521  0.00  0.00    +0.023 A 
ATOM      6  C   LIG    1        2.550  -1.260  -0.349  0.00  0.00    +0.017 A 
ENDROOT
BRANCH   4   7
ATOM      7  N   LIG    1        5.765   0.553  -0.613  0.00  0.00    -0.358 N 
ATOM      8  H   LIG    1        6.470   0.140   0.037  0.00  0.00    +0.142 HD
ATOM      9  H   LIG    1        6.105   1.192  -1.366  0.00  0.00    +0.142 HD
ENDBRANCH   4   7
BRANCH   1  10
ATOM     10  C   LIG    1        0.238  -0.522   0.081  0.00  0.00    +0.339 C 
ATOM     11  O   LIG    1       -0.160  -1.720  -0.001  0.00  0.00    -0.245 OA
BRANCH  10  12
ATOM     12  O   LIG    1       -0.712   0.437   0.335  0.00  0.00    -0.461 OA
BRANCH  12  13
ATOM     13  C   LIG    1       -2.092   0.203   0.512  0.00  0.00    +0.232 C 
BRANCH  13  14
ATOM     14  C   LIG    1       -2.732  -0.429  -0.700  0.00  0.00    +0.041 C 
BRANCH  14  15
ATOM     15  C   LIG    1       -4.218  -0.642  -0.419  0.00  0.00    -0.000 C 
ATOM     16  C   LIG    1       -4.923   0.643  -0.127  0.00  0.00    +0.004 C 
ENDBRANCH  14  15
ENDBRANCH  13  14
ENDBRANCH  12  13
ENDBRANCH  10  12
ENDBRANCH   1  10
TORSDOF 6
