REMARK  Name = molecules/IVDYZAAPOLNZKG-KWHRADDSSA-N.pdb
REMARK                            x       y       z     vdW  Elec       q    Type
REMARK                         _______ _______ _______ _____ _____    ______ ____
ROOT
ATOM      1  C   LIG    1       -3.477  -1.345  -0.588  0.00  0.00    +0.012 C 
ATOM      2  C   LIG    1       -3.359  -0.156   0.330  0.00  0.00    -0.025 C 
ATOM      3  C   LIG    1       -4.067  -0.440   1.645  0.00  0.00    +0.022 C 
ATOM      4  C   LIG    1       -5.383  -1.082   1.308  0.00  0.00    +0.060 C 
ATOM      5  S   LIG    1       -6.931  -0.412   1.777  0.00  0.00    -0.152 S 
ATOM      6  C   LIG    1       -6.086  -0.489   0.149  0.00  0.00    +0.060 C 
ATOM      7  C   LIG    1       -5.583   0.816  -0.332  0.00  0.00    +0.019 C 
ATOM      8  C   LIG    1       -1.947   0.273   0.577  0.00  0.00    -0.001 C 
ATOM      9  C   LIG    1       -1.140  -0.874   1.077  0.00  0.00    +0.005 C 
ATOM     10  C   LIG    1        0.333  -0.643   1.151  0.00  0.00    +0.010 C 
ATOM     11  C   LIG    1        0.850  -0.087  -0.126  0.00  0.00    -0.003 C 
ATOM     12  C   LIG    1        2.250   0.416  -0.115  0.00  0.00    +0.128 C 
ATOM     13  C   LIG    1        2.256   1.526  -1.201  0.00  0.00    +0.032 C 
ATOM     14  C   LIG    1        0.811   1.779  -1.545  0.00  0.00    +0.007 C 
ATOM     15  C   LIG    1        0.071   1.187  -0.409  0.00  0.00    +0.001 C 
ATOM     16  C   LIG    1        0.726  -1.078  -1.259  0.00  0.00    +0.014 C 
ATOM     17  C   LIG    1       -1.346   0.794  -0.725  0.00  0.00    -0.004 C 
ATOM     18  C   LIG    1       -2.113   1.953  -1.278  0.00  0.00    +0.004 C 
ATOM     19  C   LIG    1       -3.519   1.435  -1.609  0.00  0.00    +0.004 C 
ATOM     20  C   LIG    1       -4.117   1.019  -0.274  0.00  0.00    -0.004 C 
ENDROOT
BRANCH  12  21
ATOM     21  O   LIG    1        3.127  -0.533  -0.548  0.00  0.00    -0.345 OA
BRANCH  21  22
ATOM     22  C   LIG    1        4.234  -0.790   0.197  0.00  0.00    +0.170 C 
ATOM     23  C   LIG    1        3.983  -1.343   1.579  0.00  0.00    +0.065 C 
ATOM     24  C   LIG    1        5.123  -0.772   2.439  0.00  0.00    +0.005 C 
ATOM     25  C   LIG    1        5.216   0.642   1.896  0.00  0.00    +0.005 C 
ATOM     26  C   LIG    1        5.194   0.348   0.384  0.00  0.00    +0.065 C 
BRANCH  22  27
ATOM     27  O   LIG    1        4.935  -1.810  -0.498  0.00  0.00    -0.352 OA
ATOM     28  C   LIG    1        5.234  -1.317  -1.751  0.00  0.00    +0.197 C 
ENDBRANCH  22  27
ENDBRANCH  21  22
ENDBRANCH  12  21
TORSDOF 3
