REMARK  Name = molecules/IVQOFBKHQCTVQV-UHFFFAOYSA-N.pdb
REMARK                            x       y       z     vdW  Elec       q    Type
REMARK                         _______ _______ _______ _____ _____    ______ ____
ROOT
ATOM      1  C   LIG    1        1.639   0.458   0.403  0.00  0.00    +0.213 C 
ENDROOT
BRANCH   1   2
ATOM      2  C   LIG    1        2.820   1.339   0.227  0.00  0.00    -0.001 A 
ATOM      3  C   LIG    1        4.056   0.878   0.605  0.00  0.00    +0.007 A 
ATOM      4  C   LIG    1        5.176   1.667   0.453  0.00  0.00    +0.000 A 
ATOM      5  C   LIG    1        5.079   2.923  -0.074  0.00  0.00    +0.000 A 
ATOM      6  C   LIG    1        3.845   3.410  -0.463  0.00  0.00    +0.000 A 
ATOM      7  C   LIG    1        2.726   2.607  -0.306  0.00  0.00    +0.007 A 
ENDBRANCH   1   2
BRANCH   1   8
ATOM      8  C   LIG    1        1.837  -0.834  -0.290  0.00  0.00    -0.001 A 
ATOM      9  C   LIG    1        1.624  -2.042   0.341  0.00  0.00    +0.007 A 
ATOM     10  C   LIG    1        1.810  -3.246  -0.296  0.00  0.00    +0.000 A 
ATOM     11  C   LIG    1        2.221  -3.289  -1.604  0.00  0.00    +0.000 A 
ATOM     12  C   LIG    1        2.444  -2.100  -2.269  0.00  0.00    +0.000 A 
ATOM     13  C   LIG    1        2.247  -0.891  -1.600  0.00  0.00    +0.007 A 
ENDBRANCH   1   8
BRANCH   1  14
ATOM     14  O   LIG    1        1.649   0.140   1.790  0.00  0.00    -0.370 OA
ATOM     15  H   LIG    1        2.451  -0.366   1.981  0.00  0.00    +0.212 HD
ENDBRANCH   1  14
BRANCH   1  16
ATOM     16  C   LIG    1        0.371   1.137   0.055  0.00  0.00    +0.349 C 
ATOM     17  O   LIG    1        0.130   1.466  -1.124  0.00  0.00    -0.247 OA
BRANCH  16  18
ATOM     18  O   LIG    1       -0.601   1.437   1.011  0.00  0.00    -0.461 OA
BRANCH  18  19
ATOM     19  C   LIG    1       -1.806   2.053   0.820  0.00  0.00    +0.247 C 
BRANCH  19  20
ATOM     20  C   LIG    1       -2.894   1.441   0.053  0.00  0.00    +0.125 C 
BRANCH  20  21
ATOM     21  N   LIG    1       -3.434   0.168   0.576  0.00  0.00    -0.300 NA
BRANCH  21  22
ATOM     22  C   LIG    1       -2.514  -0.854   0.068  0.00  0.00    +0.081 C 
ATOM     23  C   LIG    1       -2.913  -2.264   0.425  0.00  0.00    +0.020 C 
ENDBRANCH  21  22
BRANCH  21  24
ATOM     24  C   LIG    1       -4.677   0.005  -0.231  0.00  0.00    +0.081 C 
ATOM     25  C   LIG    1       -5.565  -1.069   0.261  0.00  0.00    +0.020 C 
ENDBRANCH  21  24
ENDBRANCH  20  21
ENDBRANCH  19  20
ENDBRANCH  18  19
ENDBRANCH  16  18
ENDBRANCH   1  16
TORSDOF 10
