REMARK  Name = molecules/IWCWQNVIUXZOMJ-MISYRCLQSA-N.pdb
REMARK                            x       y       z     vdW  Elec       q    Type
REMARK                         _______ _______ _______ _____ _____    ______ ____
ROOT
ATOM      1  C   LIG    1        1.286  -1.161   1.886  0.00  0.00    +0.016 C 
ATOM      2  C   LIG    1        1.130  -0.699   0.462  0.00  0.00    -0.003 C 
ATOM      3  C   LIG    1       -0.279  -0.261   0.314  0.00  0.00    -0.036 A 
ATOM      4  C   LIG    1       -0.613   1.064   0.339  0.00  0.00    -0.043 A 
ATOM      5  C   LIG    1        0.370   2.174   0.509  0.00  0.00    +0.036 C 
ATOM      6  C   LIG    1        1.728   1.635   0.956  0.00  0.00    +0.010 C 
ATOM      7  C   LIG    1       -1.950   1.451   0.199  0.00  0.00    +0.009 A 
ATOM      8  C   LIG    1       -2.944   0.518   0.036  0.00  0.00    -0.017 A 
ATOM      9  C   LIG    1       -2.634  -0.828   0.007  0.00  0.00    +0.121 A 
ATOM     10  C   LIG    1       -1.286  -1.178   0.149  0.00  0.00    +0.034 A 
ATOM     11  C   LIG    1        2.004   0.442   0.081  0.00  0.00    +0.016 C 
ATOM     12  C   LIG    1        3.458   0.123  -0.083  0.00  0.00    +0.068 C 
ATOM     13  C   LIG    1        4.132  -0.401   1.144  0.00  0.00    +0.023 C 
ATOM     14  C   LIG    1        3.533  -0.967  -1.163  0.00  0.00    +0.018 C 
ATOM     15  C   LIG    1        2.745  -2.171  -0.777  0.00  0.00    +0.002 C 
ATOM     16  C   LIG    1        1.314  -1.899  -0.432  0.00  0.00    +0.011 C 
ENDROOT
BRANCH   9  17
ATOM     17  S   LIG    1       -3.776  -2.095  -0.177  0.00  0.00    +0.110 S 
ATOM     18  O   LIG    1       -4.910  -2.044   0.790  0.00  0.00    -0.142 OA
ATOM     19  O   LIG    1       -4.375  -2.014  -1.566  0.00  0.00    -0.142 OA
BRANCH  17  20
ATOM     20  O   LIG    1       -2.998  -3.586  -0.114  0.00  0.00    -0.250 OA
ATOM     21  H   LIG    1       -2.489  -3.671  -0.970  0.00  0.00    +0.245 HD
ENDBRANCH  17  20
ENDBRANCH   9  17
BRANCH   8  22
ATOM     22  C   LIG    1       -4.362   0.925  -0.121  0.00  0.00    +0.015 C 
ATOM     23  C   LIG    1       -4.435   2.412   0.261  0.00  0.00    +0.012 C 
ATOM     24  C   LIG    1       -4.747   0.899  -1.596  0.00  0.00    +0.012 C 
ENDBRANCH   8  22
BRANCH  12  25
ATOM     25  C   LIG    1        4.171   1.309  -0.561  0.00  0.00    +0.311 C 
ATOM     26  O   LIG    1        5.092   1.810   0.122  0.00  0.00    -0.250 OA
BRANCH  25  27
ATOM     27  O   LIG    1        3.869   1.920  -1.766  0.00  0.00    -0.480 OA
ATOM     28  H   LIG    1        4.346   1.702  -2.630  0.00  0.00    +0.295 HD
ENDBRANCH  25  27
ENDBRANCH  12  25
TORSDOF 5
