REMARK  Name = molecules/IWKXDMQDITUYRK-KUBHLMPHSA-N.pdb
REMARK                            x       y       z     vdW  Elec       q    Type
REMARK                         _______ _______ _______ _____ _____    ______ ____
ROOT
ATOM      1  C   UNK    1       -0.314  -0.772  -0.903  0.00  0.00    +0.119 C 
ATOM      2  C   UNK    1       -1.262  -1.460  -0.062  0.00  0.00    +0.166 C 
ATOM      3  C   UNK    1       -1.942  -0.446   0.762  0.00  0.00    +0.164 C 
ATOM      4  C   UNK    1       -2.167   0.602  -0.336  0.00  0.00    +0.111 C 
ATOM      5  N   UNK    1       -1.332   0.251  -1.417  0.00  0.00    -0.300 NA
ATOM      6  H   UNK    1       -0.892   0.927  -1.987  0.00  0.00    +0.123 HD
ENDROOT
BRANCH   1  13
ATOM      7  C   UNK    1        4.156   0.364   0.629  0.00  0.00    +0.297 A 
ATOM      8  N   UNK    1        4.456  -0.908   0.947  0.00  0.00    -0.198 NA
ATOM      9  C   UNK    1        3.615  -1.933   0.816  0.00  0.00    +0.201 A 
ATOM     10  N   UNK    1        2.377  -1.683   0.330  0.00  0.00    -0.344 N 
ATOM     11  H   UNK    1        1.701  -2.432   0.211  0.00  0.00    +0.167 HD
ATOM     12  C   UNK    1        1.992  -0.428  -0.012  0.00  0.00    +0.076 A 
ATOM     13  C   UNK    1        0.769   0.037  -0.493  0.00  0.00    +0.013 A 
ATOM     14  C   UNK    1        0.995   1.388  -0.625  0.00  0.00    +0.090 A 
ATOM     15  N   UNK    1        2.241   1.690  -0.246  0.00  0.00    -0.355 N 
ATOM     16  H   UNK    1        2.677   2.652  -0.247  0.00  0.00    +0.166 HD
ATOM     17  O   UNK    1        4.973   1.334   0.763  0.00  0.00    -0.264 OA
ATOM     18  C   UNK    1        2.889   0.595   0.139  0.00  0.00    +0.130 A 
ENDBRANCH   1  13
BRANCH   3  19
ATOM     19  O   UNK    1       -3.199  -0.944   1.149  0.00  0.00    -0.388 OA
ATOM     20  H   UNK    1       -3.596  -1.303   0.323  0.00  0.00    +0.210 HD
ENDBRANCH   3  19
BRANCH   2  21
ATOM     21  O   UNK    1       -2.284  -1.964  -0.934  0.00  0.00    -0.387 OA
ATOM     22  H   UNK    1       -2.311  -1.460  -1.784  0.00  0.00    +0.210 HD
ENDBRANCH   2  21
BRANCH   4  23
ATOM     23  C   UNK    1       -2.087   1.945   0.276  0.00  0.00    +0.177 C 
BRANCH  23  24
ATOM     24  O   UNK    1       -3.048   2.057   1.306  0.00  0.00    -0.393 OA
ATOM     25  H   UNK    1       -3.561   1.259   1.381  0.00  0.00    +0.209 HD
ENDBRANCH  23  24
ENDBRANCH   4  23
TORSDOF 5
