REMARK  Name = molecules/IWUCXVSUMQZMFG-AFCXAGJDSA-N.pdb
REMARK                            x       y       z     vdW  Elec       q    Type
REMARK                         _______ _______ _______ _____ _____    ______ ____
ROOT
ATOM      1  C2* LIG    1       -1.028  -1.077   0.330  0.00  0.00    +0.196 C 
ATOM      2  C3* LIG    1       -2.134  -0.102   0.700  0.00  0.00    +0.178 C 
ATOM      3  C4* LIG    1       -2.244   0.695  -0.595  0.00  0.00    +0.177 C 
ATOM      4  O4* LIG    1       -0.919   0.892  -0.916  0.00  0.00    -0.344 OA
ATOM      5  C1* LIG    1       -0.357  -0.378  -0.820  0.00  0.00    +0.270 C 
ENDROOT
BRANCH   5   6
ATOM      6  N   LIG    1        1.059  -0.271  -0.514  0.00  0.00    -0.220 N 
ATOM      7  C   LIG    1        1.521   0.066   0.705  0.00  0.00    +0.223 A 
ATOM      8  N   LIG    1        2.849   0.072   0.642  0.00  0.00    -0.211 NA
ATOM      9  C   LIG    1        3.233  -0.256  -0.603  0.00  0.00    +0.236 A 
ATOM     10  N   LIG    1        2.102  -0.465  -1.303  0.00  0.00    -0.142 NA
BRANCH   9  11
ATOM     11  C   LIG    1        4.610  -0.350  -1.042  0.00  0.00    +0.281 C 
ATOM     12  N   LIG    1        5.667  -0.087  -0.137  0.00  0.00    -0.323 N 
ATOM     13  H   LIG    1        6.136  -0.842   0.407  0.00  0.00    +0.145 HD
ATOM     14  H   LIG    1        5.983   0.902  -0.017  0.00  0.00    +0.145 HD
ATOM     15  O   LIG    1        4.870  -0.665  -2.229  0.00  0.00    -0.267 OA
ENDBRANCH   9  11
ENDBRANCH   5   6
BRANCH   1  16
ATOM     16  O2* LIG    1       -1.631  -2.257  -0.096  0.00  0.00    -0.385 OA
ATOM     17  H2* LIG    1       -1.298  -2.548  -0.997  0.00  0.00    +0.210 HD
ENDBRANCH   1  16
BRANCH   2  18
ATOM     18  O3* LIG    1       -3.312  -0.728   1.032  0.00  0.00    -0.386 OA
ATOM     19  H3* LIG    1       -3.305  -0.881   2.025  0.00  0.00    +0.210 HD
ENDBRANCH   2  18
BRANCH   3  20
ATOM     20  C5* LIG    1       -2.994   1.961  -0.313  0.00  0.00    +0.190 C 
BRANCH  20  21
ATOM     21  O5* LIG    1       -4.312   1.616  -0.005  0.00  0.00    -0.392 OA
ATOM     22  H5* LIG    1       -4.574   0.736  -0.403  0.00  0.00    +0.210 HD
ENDBRANCH  20  21
ENDBRANCH   3  20
TORSDOF 6
