REMARK  Name = molecules/IWVCMVBTMGNXQD-PXOLEDIWSA-N.pdb
REMARK                            x       y       z     vdW  Elec       q    Type
REMARK                         _______ _______ _______ _____ _____    ______ ____
ROOT
ATOM      1  C   LIG    1       -2.268  -0.174   0.739  0.00  0.00    +0.132 C 
ATOM      2  C   LIG    1       -3.523   0.558   0.471  0.00  0.00    +0.127 C 
ATOM      3  C   LIG    1       -3.442   1.726  -0.135  0.00  0.00    +0.121 C 
ATOM      4  C   LIG    1       -2.123   2.220  -0.502  0.00  0.00    +0.211 C 
ATOM      5  O   LIG    1       -1.901   3.461  -0.476  0.00  0.00    -0.288 OA
ATOM      6  C   LIG    1       -1.065   1.261  -0.900  0.00  0.00    +0.192 C 
ATOM      7  C   LIG    1        0.225   1.783  -0.431  0.00  0.00    +0.141 C 
ATOM      8  C   LIG    1        1.308   0.983  -0.384  0.00  0.00    +0.049 C 
ATOM      9  C   LIG    1        2.587   1.508   0.074  0.00  0.00    +0.197 C 
ATOM     10  O   LIG    1        2.678   2.752   0.344  0.00  0.00    -0.287 OA
ATOM     11  C   LIG    1        3.707   0.599   0.204  0.00  0.00    +0.069 A 
ATOM     12  C   LIG    1        4.939   1.052   0.627  0.00  0.00    +0.128 A 
ATOM     13  C   LIG    1        6.015   0.142   0.740  0.00  0.00    +0.046 A 
ATOM     14  C   LIG    1        5.803  -1.172   0.422  0.00  0.00    +0.004 A 
ATOM     15  C   LIG    1        4.577  -1.606   0.003  0.00  0.00    +0.007 A 
ATOM     16  C   LIG    1        3.499  -0.717  -0.113  0.00  0.00    -0.001 A 
ATOM     17  C   LIG    1        2.245  -1.326  -0.569  0.00  0.00    +0.098 C 
ATOM     18  C   LIG    1        2.580  -2.108  -1.847  0.00  0.00    +0.047 C 
ATOM     19  C   LIG    1        1.114  -0.401  -0.816  0.00  0.00    +0.091 C 
ATOM     20  C   LIG    1       -0.146  -0.961  -0.138  0.00  0.00    +0.134 C 
ATOM     21  C   LIG    1       -1.366  -0.149  -0.495  0.00  0.00    +0.090 C 
ENDROOT
BRANCH   3  22
ATOM     22  C   LIG    1       -4.654   2.516  -0.435  0.00  0.00    +0.248 C 
ATOM     23  O   LIG    1       -5.763   2.044  -0.097  0.00  0.00    -0.270 OA
ATOM     24  N   LIG    1       -4.549   3.770  -1.087  0.00  0.00    -0.325 N 
ATOM     25  H   LIG    1       -4.515   4.681  -0.591  0.00  0.00    +0.145 HD
ATOM     26  H   LIG    1       -4.504   3.780  -2.127  0.00  0.00    +0.145 HD
ENDBRANCH   3  22
BRANCH   1  28
ATOM     27  C   LIG    1       -3.154  -2.403   0.340  0.00  0.00    +0.105 C 
ATOM     28  N   LIG    1       -2.478  -1.510   1.202  0.00  0.00    -0.298 NA
ATOM     29  C   LIG    1       -2.863  -1.625   2.570  0.00  0.00    +0.105 C 
ENDBRANCH   1  28
BRANCH   2  30
ATOM     30  O   LIG    1       -4.777   0.088   0.820  0.00  0.00    -0.509 OA
ATOM     31  H   LIG    1       -5.400  -0.261   0.081  0.00  0.00    +0.292 HD
ENDBRANCH   2  30
BRANCH   7  32
ATOM     32  O   LIG    1        0.404   3.109  -0.018  0.00  0.00    -0.507 OA
ATOM     33  H   LIG    1        0.349   3.260   0.991  0.00  0.00    +0.292 HD
ENDBRANCH   7  32
BRANCH  12  34
ATOM     34  O   LIG    1        5.195   2.347   0.953  0.00  0.00    -0.506 OA
ATOM     35  H   LIG    1        4.705   3.180   0.985  0.00  0.00    +0.292 HD
ENDBRANCH  12  34
BRANCH  17  36
ATOM     36  O   LIG    1        1.876  -2.319   0.367  0.00  0.00    -0.384 OA
ATOM     37  H   LIG    1        2.023  -1.877   1.261  0.00  0.00    +0.211 HD
ENDBRANCH  17  36
BRANCH  20  38
ATOM     38  O   LIG    1       -0.322  -2.261  -0.592  0.00  0.00    -0.391 OA
ATOM     39  H   LIG    1       -0.337  -2.947   0.119  0.00  0.00    +0.210 HD
ENDBRANCH  20  38
BRANCH   6  40
ATOM     40  O   LIG    1       -1.030   1.294  -2.312  0.00  0.00    -0.373 OA
ATOM     41  H   LIG    1       -0.178   1.613  -2.653  0.00  0.00    +0.211 HD
ENDBRANCH   6  40
TORSDOF 8
