REMARK  Name = molecules/IWVRVEIKCBFZNF-ZDUSSCGKSA-N.pdb
REMARK                            x       y       z     vdW  Elec       q    Type
REMARK                         _______ _______ _______ _____ _____    ______ ____
ROOT
ATOM      1  C   LIG    1        4.923  -0.066  -0.091  0.00  0.00    +0.044 C 
ATOM      2  C   LIG    1        3.502   0.290   0.153  0.00  0.00    -0.050 A 
ATOM      3  C   LIG    1        3.127   1.496   0.715  0.00  0.00    +0.005 A 
ATOM      4  C   LIG    1        1.818   1.854   0.953  0.00  0.00    +0.026 A 
ATOM      5  C   LIG    1        0.848   0.941   0.602  0.00  0.00    +0.050 A 
ATOM      6  N   LIG    1       -0.510   0.972   0.697  0.00  0.00    -0.341 N 
ATOM      7  C   LIG    1       -1.487   1.912   1.178  0.00  0.00    +0.137 C 
ATOM      8  C   LIG    1       -2.687   1.983   0.303  0.00  0.00    +0.103 C 
ATOM      9  N   LIG    1       -3.033   0.768  -0.338  0.00  0.00    -0.306 NA
ATOM     10  C   LIG    1       -2.433  -0.433   0.179  0.00  0.00    +0.101 C 
ATOM     11  C   LIG    1       -2.800  -1.591  -0.705  0.00  0.00    +0.025 C 
ATOM     12  C   LIG    1       -1.676  -2.166  -1.482  0.00  0.00    +0.007 C 
ATOM     13  C   LIG    1       -0.365  -2.307  -0.780  0.00  0.00    +0.037 C 
ATOM     14  C   LIG    1        0.011  -0.997  -0.215  0.00  0.00    -0.017 A 
ATOM     15  H   LIG    1       -4.050   0.677  -0.543  0.00  0.00    +0.123 HD
ATOM     16  C   LIG    1       -0.980  -0.182   0.209  0.00  0.00    +0.040 A 
ATOM     17  C   LIG    1        1.193  -0.293   0.030  0.00  0.00    +0.004 A 
ATOM     18  C   LIG    1        2.498  -0.611  -0.190  0.00  0.00    +0.013 A 
ENDROOT
TORSDOF 0
