REMARK  Name = molecules/IWXAZSAGYJHXPX-BCEWYCLDSA-N.pdb
REMARK                            x       y       z     vdW  Elec       q    Type
REMARK                         _______ _______ _______ _____ _____    ______ ____
ROOT
ATOM      1  S   LIG    1        0.905  -0.986   1.091  0.00  0.00    -0.055 S 
ENDROOT
BRANCH   1   3
ATOM      2  C   LIG    1        2.219   0.879  -0.497  0.00  0.00    +0.021 C 
ATOM      3  C   LIG    1        2.236  -0.007   0.426  0.00  0.00    +0.017 C 
ATOM      4  C   LIG    1        0.849   1.019  -1.193  0.00  0.00    +0.062 C 
BRANCH   2   5
ATOM      5  N   LIG    1        3.253   1.650  -1.038  0.00  0.00    -0.273 N 
ATOM      6  C   LIG    1        2.864   2.811  -1.851  0.00  0.00    +0.332 C 
ATOM      7  O   LIG    1        1.727   3.248  -1.951  0.00  0.00    -0.279 OA
BRANCH   5   8
ATOM      8  C   LIG    1        4.645   1.348  -1.026  0.00  0.00    +0.153 C 
BRANCH   8   9
ATOM      9  C   LIG    1        5.064   0.399  -2.111  0.00  0.00    +0.028 A 
ATOM     10  C   LIG    1        6.386   0.035  -2.195  0.00  0.00    +0.124 A 
ATOM     11  N   LIG    1        6.753  -0.830  -3.178  0.00  0.00    -0.218 NA
ATOM     12  C   LIG    1        5.842  -1.308  -4.035  0.00  0.00    +0.128 A 
ATOM     13  N   LIG    1        4.562  -0.947  -3.941  0.00  0.00    -0.240 NA
ATOM     14  C   LIG    1        6.321  -2.259  -5.096  0.00  0.00    +0.088 C 
ATOM     15  C   LIG    1        4.124  -0.079  -2.975  0.00  0.00    +0.121 A 
BRANCH  10  16
ATOM     16  N   LIG    1        7.383   0.525  -1.299  0.00  0.00    -0.343 N 
ATOM     17  H   LIG    1        7.185   1.418  -0.776  0.00  0.00    +0.144 HD
ATOM     18  H   LIG    1        8.259  -0.003  -1.190  0.00  0.00    +0.144 HD
ENDBRANCH  10  16
ENDBRANCH   8   9
ENDBRANCH   5   8
ENDBRANCH   2   5
BRANCH   3  19
ATOM     19  C   LIG    1        3.530  -0.232   1.172  0.00  0.00    +0.085 C 
BRANCH  19  20
ATOM     20  C   LIG    1        3.169  -0.617   2.638  0.00  0.00    +0.237 C 
BRANCH  20  21
ATOM     21  O   LIG    1        4.282  -0.827   3.431  0.00  0.00    -0.461 OA
BRANCH  21  22
ATOM     22  C   LIG    1        5.290  -1.735   3.295  0.00  0.00    +0.339 C 
ATOM     23  O   LIG    1        5.251  -2.519   2.324  0.00  0.00    -0.245 OA
BRANCH  22  24
ATOM     24  C   LIG    1        6.394  -1.821   4.233  0.00  0.00    +0.059 A 
ATOM     25  C   LIG    1        6.482  -0.984   5.331  0.00  0.00    +0.015 A 
ATOM     26  C   LIG    1        7.533  -1.067   6.218  0.00  0.00    +0.001 A 
ATOM     27  C   LIG    1        8.551  -1.980   6.066  0.00  0.00    +0.000 A 
ATOM     28  C   LIG    1        8.469  -2.832   4.956  0.00  0.00    +0.001 A 
ATOM     29  C   LIG    1        7.409  -2.736   4.076  0.00  0.00    +0.015 A 
ENDBRANCH  22  24
ENDBRANCH  21  22
ENDBRANCH  20  21
ENDBRANCH  19  20
ENDBRANCH   3  19
ENDBRANCH   1   3
BRANCH   1  30
ATOM     30  S   LIG    1       -0.880  -0.039   1.176  0.00  0.00    -0.055 S 
BRANCH  30  31
ATOM     31  C   LIG    1       -2.036  -0.204  -0.114  0.00  0.00    +0.017 C 
ATOM     32  C   LIG    1       -2.068  -1.212  -0.954  0.00  0.00    +0.021 C 
ATOM     33  C   LIG    1       -1.081  -2.315  -0.541  0.00  0.00    +0.062 C 
BRANCH  32  34
ATOM     34  N   LIG    1       -2.939  -1.457  -2.030  0.00  0.00    -0.273 N 
ATOM     35  C   LIG    1       -2.576  -2.533  -2.928  0.00  0.00    +0.332 C 
ATOM     36  O   LIG    1       -1.542  -3.164  -2.796  0.00  0.00    -0.279 OA
BRANCH  34  37
ATOM     37  C   LIG    1       -4.195  -0.850  -2.363  0.00  0.00    +0.153 C 
BRANCH  37  38
ATOM     38  C   LIG    1       -5.327  -1.557  -1.638  0.00  0.00    +0.028 A 
ATOM     39  C   LIG    1       -5.061  -2.615  -0.830  0.00  0.00    +0.121 A 
ATOM     40  N   LIG    1       -6.078  -3.230  -0.207  0.00  0.00    -0.240 NA
ATOM     41  C   LIG    1       -7.352  -2.821  -0.366  0.00  0.00    +0.128 A 
ATOM     42  C   LIG    1       -8.426  -3.553   0.352  0.00  0.00    +0.088 C 
ATOM     43  N   LIG    1       -7.607  -1.770  -1.169  0.00  0.00    -0.218 NA
ATOM     44  C   LIG    1       -6.620  -1.128  -1.810  0.00  0.00    +0.124 A 
BRANCH  44  45
ATOM     45  N   LIG    1       -6.918   0.000  -2.665  0.00  0.00    -0.343 N 
ATOM     46  H   LIG    1       -7.037   0.922  -2.196  0.00  0.00    +0.144 HD
ATOM     47  H   LIG    1       -7.014  -0.071  -3.683  0.00  0.00    +0.144 HD
ENDBRANCH  44  45
ENDBRANCH  37  38
ENDBRANCH  34  37
ENDBRANCH  32  34
BRANCH  31  48
ATOM     48  C   LIG    1       -3.113   0.865  -0.244  0.00  0.00    +0.085 C 
BRANCH  48  49
ATOM     49  C   LIG    1       -2.692   1.987   0.723  0.00  0.00    +0.237 C 
BRANCH  49  50
ATOM     50  O   LIG    1       -3.646   3.013   0.693  0.00  0.00    -0.461 OA
BRANCH  50  51
ATOM     51  C   LIG    1       -4.965   2.846   1.076  0.00  0.00    +0.339 C 
ATOM     52  O   LIG    1       -5.330   1.717   1.472  0.00  0.00    -0.245 OA
BRANCH  51  53
ATOM     53  C   LIG    1       -5.912   3.933   1.029  0.00  0.00    +0.059 A 
ATOM     54  C   LIG    1       -7.211   3.738   1.472  0.00  0.00    +0.015 A 
ATOM     55  C   LIG    1       -8.148   4.738   1.448  0.00  0.00    +0.001 A 
ATOM     56  C   LIG    1       -7.762   5.969   0.961  0.00  0.00    +0.000 A 
ATOM     57  C   LIG    1       -6.468   6.177   0.515  0.00  0.00    +0.001 A 
ATOM     58  C   LIG    1       -5.534   5.159   0.546  0.00  0.00    +0.015 A 
ENDBRANCH  51  53
ENDBRANCH  50  51
ENDBRANCH  49  50
ENDBRANCH  48  49
ENDBRANCH  31  48
ENDBRANCH  30  31
ENDBRANCH   1  30
TORSDOF 21
