REMARK  Name = molecules/IWYDHOAUDWTVEP-SSDOTTSWSA-N.pdb
REMARK                            x       y       z     vdW  Elec       q    Type
REMARK                         _______ _______ _______ _____ _____    ______ ____
ROOT
ATOM      1  C   LIG    1        1.370  -0.590  -0.658  0.00  0.00    +0.253 C 
ENDROOT
BRANCH   1   2
ATOM      2  C   LIG    1       -0.010  -0.205  -0.335  0.00  0.00    -0.008 A 
ATOM      3  C   LIG    1       -0.331   1.069   0.082  0.00  0.00    +0.007 A 
ATOM      4  C   LIG    1       -1.630   1.412   0.381  0.00  0.00    +0.000 A 
ATOM      5  C   LIG    1       -2.618   0.457   0.258  0.00  0.00    +0.000 A 
ATOM      6  C   LIG    1       -2.307  -0.808  -0.154  0.00  0.00    +0.000 A 
ATOM      7  C   LIG    1       -1.009  -1.148  -0.452  0.00  0.00    +0.007 A 
ENDBRANCH   1   2
BRANCH   1   8
ATOM      8  O   LIG    1        1.955   0.406  -1.439  0.00  0.00    -0.376 OA
ATOM      9  H   LIG    1        2.054   1.258  -0.970  0.00  0.00    +0.211 HD
ENDBRANCH   1   8
BRANCH   1  10
ATOM     10  C   LIG    1        2.120  -0.778   0.611  0.00  0.00    +0.338 C 
ATOM     11  O   LIG    1        1.708  -1.643   1.414  0.00  0.00    -0.248 OA
BRANCH  10  12
ATOM     12  O   LIG    1        3.227  -0.006   0.858  0.00  0.00    -0.479 OA
ATOM     13  H   LIG    1        3.095   0.903   1.280  0.00  0.00    +0.295 HD
ENDBRANCH  10  12
ENDBRANCH   1  10
TORSDOF 4
