REMARK  Name = molecules/IWYJYHUNXVAVAA-OAHLLOKOSA-N.pdb
REMARK                            x       y       z     vdW  Elec       q    Type
REMARK                         _______ _______ _______ _____ _____    ______ ____
ROOT
ATOM      1  N   LIG    1        0.625   0.892   0.371  0.00  0.00    -0.277 N 
ATOM      2  C   LIG    1        1.219   2.099   0.395  0.00  0.00    +0.333 A 
ATOM      3  O   LIG    1        2.338   2.273   0.911  0.00  0.00    -0.246 OA
ATOM      4  N   LIG    1        0.664   3.231  -0.134  0.00  0.00    -0.264 N 
ATOM      5  C   LIG    1        1.355   4.510  -0.097  0.00  0.00    +0.157 C 
ATOM      6  C   LIG    1       -0.538   3.200  -0.723  0.00  0.00    +0.258 A 
ATOM      7  C   LIG    1       -1.179   2.007  -0.771  0.00  0.00    +0.112 A 
ATOM      8  O   LIG    1       -1.045   4.268  -1.214  0.00  0.00    -0.267 OA
ATOM      9  C   LIG    1       -0.587   0.871  -0.221  0.00  0.00    +0.111 A 
ENDROOT
BRANCH   9  10
ATOM     10  N   LIG    1       -1.438  -0.267  -0.276  0.00  0.00    -0.315 N 
ATOM     11  C   LIG    1       -2.252  -0.549   0.904  0.00  0.00    +0.125 C 
ATOM     12  C   LIG    1       -3.698  -0.831   0.536  0.00  0.00    +0.068 C 
ATOM     13  C   LIG    1       -3.909  -1.132  -0.910  0.00  0.00    +0.021 C 
ATOM     14  C   LIG    1       -2.790  -1.908  -1.518  0.00  0.00    +0.020 C 
ATOM     15  C   LIG    1       -1.529  -1.047  -1.463  0.00  0.00    +0.106 C 
BRANCH  12  16
ATOM     16  N   LIG    1       -4.123  -1.982   1.353  0.00  0.00    -0.326 NA
ATOM     17  H   LIG    1       -3.285  -2.593   1.522  0.00  0.00    +0.119 HD
ATOM     18  H   LIG    1       -4.906  -2.486   0.923  0.00  0.00    +0.119 HD
ENDBRANCH  12  16
ENDBRANCH   9  10
BRANCH   1  19
ATOM     19  C   LIG    1        1.157  -0.270   0.984  0.00  0.00    +0.164 C 
BRANCH  19  21
ATOM     20  C   LIG    1        3.588  -0.665   0.938  0.00  0.00    +0.057 A 
ATOM     21  C   LIG    1        2.339  -0.903   0.380  0.00  0.00    -0.008 A 
ATOM     22  C   LIG    1        2.327  -1.644  -0.770  0.00  0.00    +0.045 A 
ATOM     23  C   LIG    1        3.493  -2.143  -1.371  0.00  0.00    +0.124 A 
ATOM     24  C   LIG    1        4.709  -1.896  -0.806  0.00  0.00    +0.039 A 
ATOM     25  F   LIG    1        3.429  -2.868  -2.517  0.00  0.00    -0.205 F 
ATOM     26  C   LIG    1        4.769  -1.151   0.358  0.00  0.00    +0.022 A 
BRANCH  20  27
ATOM     27  C   LIG    1        3.779   0.009   2.184  0.00  0.00    +0.099 C 
ATOM     28  N   LIG    1        3.918   0.546   3.223  0.00  0.00    -0.191 NA
ENDBRANCH  20  27
ENDBRANCH  19  21
ENDBRANCH   1  19
TORSDOF 5
