REMARK  Name = molecules/IXHBTMCLRNMKHZ-LBPRGKRZSA-N.pdb
REMARK                            x       y       z     vdW  Elec       q    Type
REMARK                         _______ _______ _______ _____ _____    ______ ____
ROOT
ATOM      1  O   LIG    1        0.663  -0.114   0.749  0.00  0.00    -0.489 OA
ENDROOT
BRANCH   1   2
ATOM      2  C   LIG    1        1.729  -0.880   0.275  0.00  0.00    +0.124 A 
ATOM      3  C   LIG    1        1.626  -2.247   0.145  0.00  0.00    +0.046 A 
ATOM      4  C   LIG    1        2.635  -3.063  -0.316  0.00  0.00    +0.004 A 
ATOM      5  C   LIG    1        3.818  -2.450  -0.665  0.00  0.00    +0.012 A 
ATOM      6  C   LIG    1        3.952  -1.056  -0.543  0.00  0.00    +0.024 A 
ATOM      7  C   LIG    1        5.201  -0.402  -0.904  0.00  0.00    +0.164 C 
ATOM      8  C   LIG    1        5.274   1.066  -0.981  0.00  0.00    +0.080 C 
ATOM      9  C   LIG    1        4.299   1.816  -0.163  0.00  0.00    +0.013 C 
ATOM     10  C   LIG    1        2.987   1.194   0.077  0.00  0.00    +0.040 C 
ATOM     11  O   LIG    1        6.200  -1.119  -1.145  0.00  0.00    -0.292 OA
ATOM     12  C   LIG    1        2.929  -0.269  -0.081  0.00  0.00    +0.005 A 
ENDBRANCH   1   2
BRANCH   1  13
ATOM     13  C   LIG    1       -0.545  -0.715   1.109  0.00  0.00    +0.261 C 
BRANCH  13  14
ATOM     14  C   LIG    1       -1.562   0.304   1.591  0.00  0.00    +0.166 C 
BRANCH  14  15
ATOM     15  O   LIG    1       -1.008   0.955   2.702  0.00  0.00    -0.387 OA
ATOM     16  H   LIG    1       -0.391   0.318   3.142  0.00  0.00    +0.210 HD
ENDBRANCH  14  15
BRANCH  14  17
ATOM     17  C   LIG    1       -1.888   1.303   0.521  0.00  0.00    +0.116 C 
BRANCH  17  18
ATOM     18  N   LIG    1       -2.465   0.802  -0.660  0.00  0.00    -0.309 NA
ATOM     19  H   LIG    1       -2.278   1.352  -1.521  0.00  0.00    +0.123 HD
BRANCH  18  20
ATOM     20  C   LIG    1       -3.787   0.316  -0.659  0.00  0.00    +0.011 C 
ATOM     21  C   LIG    1       -4.095  -0.903   0.130  0.00  0.00    +0.027 C 
ATOM     22  C   LIG    1       -4.811   1.387  -0.297  0.00  0.00    +0.027 C 
ATOM     23  C   LIG    1       -4.120  -0.027  -2.134  0.00  0.00    +0.027 C 
ENDBRANCH  18  20
ENDBRANCH  17  18
ENDBRANCH  14  17
ENDBRANCH  13  14
ENDBRANCH   1  13
TORSDOF 7
