REMARK  Name = molecules/IXTMWRCNAAVVAI-UHFFFAOYSA-N.pdb
REMARK                            x       y       z     vdW  Elec       q    Type
REMARK                         _______ _______ _______ _____ _____    ______ ____
ROOT
ATOM      1  N   LIG    1        0.193  -0.122   0.404  0.00  0.00    -0.302 NA
ATOM      2  C   LIG    1        0.041   0.688   1.569  0.00  0.00    +0.105 C 
ENDROOT
BRANCH   1   3
ATOM      3  C   LIG    1        1.583  -0.353   0.123  0.00  0.00    +0.089 C 
BRANCH   3   4
ATOM      4  C   LIG    1        2.358   0.900  -0.176  0.00  0.00    +0.050 C 
BRANCH   4   8
ATOM      5  C   LIG    1        6.526  -0.011  -0.999  0.00  0.00    +0.048 A 
ATOM      6  C   LIG    1        6.066   0.255   0.270  0.00  0.00    +0.025 A 
ATOM      7  C   LIG    1        4.739   0.548   0.544  0.00  0.00    +0.005 A 
ATOM      8  C   LIG    1        3.791   0.589  -0.456  0.00  0.00    -0.046 A 
ATOM      9  C   LIG    1        4.236   0.325  -1.733  0.00  0.00    +0.005 A 
ATOM     10  C   LIG    1        5.549   0.034  -2.010  0.00  0.00    +0.025 A 
BRANCH   5  11
ATOM     11  N   LIG    1        7.869  -0.318  -1.332  0.00  0.00    -0.221 N 
ATOM     12  H   LIG    1        8.045  -1.116  -1.974  0.00  0.00    +0.173 HD
BRANCH  11  13
ATOM     13  S   LIG    1        9.189   0.571  -0.719  0.00  0.00    +0.040 S 
ATOM     14  C   LIG    1        9.374   0.542   1.020  0.00  0.00    +0.218 C 
ATOM     15  O   LIG    1        8.954   2.018  -1.141  0.00  0.00    -0.155 OA
ATOM     16  O   LIG    1       10.461   0.144  -1.402  0.00  0.00    -0.155 OA
ENDBRANCH  11  13
ENDBRANCH   5  11
ENDBRANCH   4   8
ENDBRANCH   3   4
ENDBRANCH   1   3
BRANCH   1  17
ATOM     17  C   LIG    1       -0.521   0.318  -0.745  0.00  0.00    +0.125 C 
BRANCH  17  18
ATOM     18  C   LIG    1       -1.985   0.563  -0.492  0.00  0.00    +0.244 C 
BRANCH  18  19
ATOM     19  O   LIG    1       -2.650  -0.603  -0.045  0.00  0.00    -0.491 OA
BRANCH  19  20
ATOM     20  C   LIG    1       -3.996  -0.635   0.251  0.00  0.00    +0.121 A 
ATOM     21  C   LIG    1       -4.539  -1.825   0.680  0.00  0.00    +0.047 A 
ATOM     22  C   LIG    1       -5.866  -1.942   0.993  0.00  0.00    +0.028 A 
ATOM     23  C   LIG    1       -6.684  -0.823   0.874  0.00  0.00    +0.048 A 
ATOM     24  C   LIG    1       -6.178   0.385   0.448  0.00  0.00    +0.028 A 
ATOM     25  C   LIG    1       -4.822   0.455   0.140  0.00  0.00    +0.047 A 
BRANCH  23  26
ATOM     26  N   LIG    1       -8.056  -0.964   1.200  0.00  0.00    -0.221 N 
ATOM     27  H   LIG    1       -8.330  -1.452   2.068  0.00  0.00    +0.173 HD
BRANCH  26  28
ATOM     28  S   LIG    1       -9.262  -0.334   0.170  0.00  0.00    +0.040 S 
ATOM     29  O   LIG    1      -10.639  -0.595   0.755  0.00  0.00    -0.155 OA
ATOM     30  O   LIG    1       -9.109   1.151   0.056  0.00  0.00    -0.155 OA
ATOM     31  C   LIG    1       -9.175  -1.119  -1.437  0.00  0.00    +0.218 C 
ENDBRANCH  26  28
ENDBRANCH  23  26
ENDBRANCH  19  20
ENDBRANCH  18  19
ENDBRANCH  17  18
ENDBRANCH   1  17
TORSDOF 11
