REMARK  Name = molecules/IXWDUZLHWJKVPX-UHFFFAOYSA-N.pdb
REMARK                            x       y       z     vdW  Elec       q    Type
REMARK                         _______ _______ _______ _____ _____    ______ ____
ROOT
ATOM      1 CL   LIG    1        4.892  -1.406   1.544  0.00  0.00    -0.082 Cl
ATOM      2  C   LIG    1        4.089  -0.264   0.469  0.00  0.00    +0.062 A 
ATOM      3  C   LIG    1        2.708  -0.128   0.455  0.00  0.00    -0.041 A 
ATOM      4  C   LIG    1        1.697  -0.830   1.246  0.00  0.00    -0.038 C 
ATOM      5  N   LIG    1        0.436  -0.643   0.456  0.00  0.00    +0.382 N 
ATOM      6  C   LIG    1        0.610   0.641  -0.128  0.00  0.00    -0.038 C 
ATOM      7  C   LIG    1        0.571  -1.636  -0.601  0.00  0.00    -0.091 C 
ATOM      8  C   LIG    1        2.062   0.747  -0.365  0.00  0.00    -0.041 A 
ATOM      9  C   LIG    1        2.828   1.525  -1.213  0.00  0.00    +0.062 A 
ATOM     10  C   LIG    1        4.213   1.430  -1.240  0.00  0.00    +0.079 A 
ATOM     11 CL   LIG    1        5.178   2.421  -2.319  0.00  0.00    -0.080 Cl
ATOM     12 CL   LIG    1        2.000   2.652  -2.269  0.00  0.00    -0.082 Cl
ATOM     13  C   LIG    1        4.810   0.535  -0.395  0.00  0.00    +0.079 A 
ATOM     14 CL   LIG    1        6.565   0.376  -0.391  0.00  0.00    -0.080 Cl
ENDROOT
BRANCH   5  15
ATOM     15  C   LIG    1       -0.677  -0.833   1.316  0.00  0.00    -0.093 C 
BRANCH  15  16
ATOM     16  C   LIG    1       -1.846   0.047   1.272  0.00  0.00    -0.095 C 
BRANCH  16  17
ATOM     17  N   LIG    1       -2.678   0.143   0.141  0.00  0.00    +0.373 N 
ATOM     18  C   LIG    1       -4.114   0.015   0.556  0.00  0.00    -0.093 C 
ATOM     19  C   LIG    1       -2.616   1.477  -0.427  0.00  0.00    -0.093 C 
ATOM     20  C   LIG    1       -2.514  -0.799  -0.915  0.00  0.00    -0.093 C 
ENDBRANCH  16  17
ENDBRANCH  15  16
ENDBRANCH   5  15
TORSDOF 3
