REMARK  Name = molecules/IYEPZNKOJZOGJG-HNNXBMFYSA-N.pdb
REMARK                            x       y       z     vdW  Elec       q    Type
REMARK                         _______ _______ _______ _____ _____    ______ ____
ROOT
ATOM      1  C   LIG    1       -1.353   0.052  -0.126  0.00  0.00    -0.034 A 
ATOM      2  C   LIG    1       -0.724  -0.336   1.039  0.00  0.00    +0.005 A 
ATOM      3  C   LIG    1        0.656  -0.406   1.112  0.00  0.00    +0.009 A 
ATOM      4  C   LIG    1        1.469  -0.098   0.041  0.00  0.00    -0.018 A 
ATOM      5  C   LIG    1        0.822   0.289  -1.123  0.00  0.00    +0.009 A 
ATOM      6  C   LIG    1       -0.554   0.362  -1.206  0.00  0.00    +0.005 A 
ENDROOT
BRANCH   4   7
ATOM      7  C   LIG    1        2.925  -0.167   0.099  0.00  0.00    -0.018 A 
ATOM      8  C   LIG    1        3.607  -1.068   0.896  0.00  0.00    +0.008 A 
ATOM      9  C   LIG    1        5.001  -1.105   0.927  0.00  0.00    +0.001 A 
ATOM     10  C   LIG    1        5.736  -0.234   0.156  0.00  0.00    +0.000 A 
ATOM     11  C   LIG    1        5.079   0.677  -0.649  0.00  0.00    +0.001 A 
ATOM     12  C   LIG    1        3.701   0.687  -0.657  0.00  0.00    +0.008 A 
ENDBRANCH   4   7
BRANCH   1  13
ATOM     13  C   LIG    1       -2.834   0.137  -0.231  0.00  0.00    +0.127 C 
BRANCH  13  14
ATOM     14  C   LIG    1       -3.405   1.141   0.749  0.00  0.00    +0.016 C 
ATOM     15  C   LIG    1       -4.912   1.168   0.519  0.00  0.00    +0.005 C 
ENDBRANCH  13  14
BRANCH  13  16
ATOM     16  C   LIG    1       -3.389  -1.197  -0.023  0.00  0.00    +0.312 C 
ATOM     17  O   LIG    1       -4.072  -1.751  -0.910  0.00  0.00    -0.250 OA
BRANCH  16  18
ATOM     18  O   LIG    1       -3.158  -1.856   1.169  0.00  0.00    -0.480 OA
ATOM     19  H   LIG    1       -3.900  -2.204   1.769  0.00  0.00    +0.295 HD
ENDBRANCH  16  18
ENDBRANCH  13  16
ENDBRANCH   1  13
TORSDOF 5
