REMARK  Name = molecules/IYFNEFQTYQPVOC-QGZVFWFLSA-N.pdb
REMARK                            x       y       z     vdW  Elec       q    Type
REMARK                         _______ _______ _______ _____ _____    ______ ____
ROOT
ATOM      1  C   LIG    1        1.223   1.867  -0.709  0.00  0.00    +0.131 A 
ATOM      2  C   LIG    1        0.232   2.842  -0.835  0.00  0.00    +0.048 A 
ATOM      3  C   LIG    1       -1.050   2.527  -1.237  0.00  0.00    +0.032 A 
ATOM      4  C   LIG    1       -1.399   1.225  -1.529  0.00  0.00    +0.106 A 
ATOM      5  C   LIG    1       -0.413   0.295  -1.396  0.00  0.00    +0.043 A 
ATOM      6  C   LIG    1        0.899   0.568  -0.993  0.00  0.00    +0.061 A 
ENDROOT
BRANCH   6   7
ATOM      7  C   LIG    1        1.832  -0.576  -0.914  0.00  0.00    +0.146 A 
ATOM      8  N   LIG    1        3.109  -0.508  -0.577  0.00  0.00    -0.336 N 
ATOM      9  H   LIG    1        3.554   0.380  -0.341  0.00  0.00    +0.167 HD
ATOM     10  C   LIG    1        3.918  -1.611  -0.522  0.00  0.00    +0.095 A 
ATOM     11  C   LIG    1        5.249  -1.785  -0.204  0.00  0.00    +0.087 A 
ATOM     12  N   LIG    1        5.529  -3.112  -0.316  0.00  0.00    -0.174 NA
ATOM     13  N   LIG    1        4.434  -3.756  -0.686  0.00  0.00    -0.260 N 
ATOM     14  C   LIG    1        4.308  -5.201  -0.918  0.00  0.00    +0.173 C 
ATOM     15  C   LIG    1        3.434  -2.865  -0.819  0.00  0.00    +0.151 A 
ATOM     16  C   LIG    1        2.103  -2.931  -1.170  0.00  0.00    +0.299 A 
ATOM     17  O   LIG    1        1.645  -4.071  -1.445  0.00  0.00    -0.263 OA
ATOM     18  N   LIG    1        1.356  -1.819  -1.208  0.00  0.00    -0.189 NA
BRANCH  11  19
ATOM     19  C   LIG    1        6.158  -0.686   0.179  0.00  0.00    +0.059 C 
BRANCH  19  20
ATOM     20  C   LIG    1        5.927  -0.215   1.603  0.00  0.00    +0.003 C 
ATOM     21  C   LIG    1        6.137  -1.310   2.600  0.00  0.00    +0.004 C 
ENDBRANCH  19  20
ENDBRANCH  11  19
ENDBRANCH   6   7
BRANCH   4  22
ATOM     22  S   LIG    1       -3.026   0.801  -2.045  0.00  0.00    +0.058 S 
ATOM     23  O   LIG    1       -3.591   1.919  -2.835  0.00  0.00    -0.153 OA
ATOM     24  O   LIG    1       -2.917  -0.406  -2.921  0.00  0.00    -0.153 OA
BRANCH  22  25
ATOM     25  N   LIG    1       -4.011   0.450  -0.654  0.00  0.00    -0.190 NA
ATOM     26  H   LIG    1       -4.162   1.276  -0.070  0.00  0.00    +0.148 HD
BRANCH  25  27
ATOM     27  C   LIG    1       -3.475  -0.682   0.077  0.00  0.00    +0.107 C 
BRANCH  27  28
ATOM     28  C   LIG    1       -4.326  -0.997   1.291  0.00  0.00    +0.035 C 
BRANCH  28  29
ATOM     29  C   LIG    1       -5.758  -1.335   0.854  0.00  0.00    +0.058 C 
ATOM     30  C   LIG    1       -6.621  -1.649   2.030  0.00  0.00    +0.020 C 
ATOM     31  C   LIG    1       -7.707  -0.586   2.034  0.00  0.00    +0.017 C 
ATOM     32  C   LIG    1       -7.068   0.540   1.226  0.00  0.00    +0.084 C 
ATOM     33  N   LIG    1       -6.287  -0.149   0.218  0.00  0.00    -0.302 NA
ATOM     34  C   LIG    1       -7.065  -0.455  -0.956  0.00  0.00    +0.105 C 
ENDBRANCH  28  29
ENDBRANCH  27  28
ENDBRANCH  25  27
ENDBRANCH  22  25
ENDBRANCH   4  22
BRANCH   1  35
ATOM     35  O   LIG    1        2.481   2.165  -0.315  0.00  0.00    -0.491 OA
BRANCH  35  36
ATOM     36  C   LIG    1        3.149   3.305   0.026  0.00  0.00    +0.229 C 
BRANCH  36  38
ATOM     37  C   LIG    1        4.073   5.511  -0.390  0.00  0.00    +0.007 C 
ATOM     38  C   LIG    1        3.307   4.361  -1.030  0.00  0.00    +0.038 C 
ENDBRANCH  36  38
ENDBRANCH  35  36
ENDBRANCH   1  35
TORSDOF 11
