REMARK  Name = molecules/IYJMSDVSVHDVGT-PEQKVOOWSA-N.pdb
REMARK                            x       y       z     vdW  Elec       q    Type
REMARK                         _______ _______ _______ _____ _____    ______ ____
ROOT
ATOM      1  C   LIG    1       -0.038  -1.583  -0.134  0.00  0.00    +0.253 C 
ATOM      2  O   LIG    1        0.539  -1.515   1.159  0.00  0.00    -0.346 OA
ATOM      3  C   LIG    1        1.927  -1.800   1.068  0.00  0.00    +0.150 C 
ATOM      4  C   LIG    1        2.314  -2.259   2.470  0.00  0.00    +0.041 C 
ATOM      5  C   LIG    1        2.570  -0.505   0.688  0.00  0.00    +0.178 C 
ATOM      6  C   LIG    1        1.540   0.307  -0.070  0.00  0.00    +0.151 C 
ATOM      7  C   LIG    1        0.749  -0.611  -1.021  0.00  0.00    +0.095 C 
ENDROOT
BRANCH   6   8
ATOM      8  O   LIG    1        2.121   1.310  -0.837  0.00  0.00    -0.389 OA
ATOM      9  H   LIG    1        1.992   1.200  -1.801  0.00  0.00    +0.210 HD
ENDBRANCH   6   8
BRANCH   1  10
ATOM     10  O   LIG    1       -1.306  -1.111  -0.055  0.00  0.00    -0.348 OA
BRANCH  10  19
ATOM     11  C   LIG    1       -7.701   1.584  -0.826  0.00  0.00    +0.077 C 
ATOM     12  C   LIG    1       -8.302   1.658   0.575  0.00  0.00    +0.029 C 
ATOM     13  C   LIG    1       -7.304   1.674   1.663  0.00  0.00    +0.124 C 
ATOM     14  C   LIG    1       -5.881   1.579   1.177  0.00  0.00    +0.036 C 
ATOM     15  C   LIG    1       -5.821   0.363   0.285  0.00  0.00    +0.003 C 
ATOM     16  C   LIG    1       -4.397  -0.063   0.011  0.00  0.00    -0.026 C 
ATOM     17  C   LIG    1       -3.899  -0.774   1.229  0.00  0.00    +0.010 C 
ATOM     18  C   LIG    1       -3.172  -2.068   0.964  0.00  0.00    +0.032 C 
ATOM     19  C   LIG    1       -2.334  -1.986  -0.293  0.00  0.00    +0.122 C 
ATOM     20  C   LIG    1       -3.160  -1.663  -1.503  0.00  0.00    +0.035 C 
ATOM     21  C   LIG    1       -3.492   1.162  -0.190  0.00  0.00    +0.012 C 
ATOM     22  C   LIG    1       -4.364  -0.836  -1.259  0.00  0.00    -0.002 C 
ATOM     23  C   LIG    1       -5.669  -1.592  -1.503  0.00  0.00    +0.004 C 
ATOM     24  C   LIG    1       -6.772  -0.561  -1.749  0.00  0.00    +0.007 C 
ATOM     25  C   LIG    1       -9.116   2.936   0.659  0.00  0.00    +0.017 C 
ATOM     26  C   LIG    1       -9.254   0.497   0.603  0.00  0.00    +0.030 C 
ATOM     27  C   LIG    1       -9.963   0.665  -0.741  0.00  0.00    +0.011 C 
ATOM     28  C   LIG    1       -6.513   0.709  -0.979  0.00  0.00    +0.025 C 
ATOM     29  C   LIG    1       -8.899   1.181  -1.643  0.00  0.00    +0.036 C 
BRANCH  26  30
ATOM     30  C   LIG    1      -10.319   0.538   1.625  0.00  0.00    -0.022 C 
ATOM     31  C   LIG    1      -10.455   1.362   2.637  0.00  0.00    +0.094 C 
ATOM     32  C   LIG    1      -11.681   1.027   3.401  0.00  0.00    +0.332 C 
ATOM     33  O   LIG    1      -12.112   1.611   4.423  0.00  0.00    -0.246 OA
ATOM     34  O   LIG    1      -12.266  -0.047   2.781  0.00  0.00    -0.457 OA
ATOM     35  C   LIG    1      -11.490  -0.415   1.680  0.00  0.00    +0.264 C 
ENDBRANCH  26  30
BRANCH  11  36
ATOM     36  O   LIG    1       -7.385   2.893  -1.175  0.00  0.00    -0.388 OA
ATOM     37  H   LIG    1       -6.926   2.931  -2.049  0.00  0.00    +0.210 HD
ENDBRANCH  11  36
BRANCH  13  38
ATOM     38  O   LIG    1       -7.324   2.873   2.431  0.00  0.00    -0.391 OA
ATOM     39  H   LIG    1       -6.856   2.615   3.288  0.00  0.00    +0.210 HD
ENDBRANCH  13  38
ENDBRANCH  10  19
ENDBRANCH   1  10
BRANCH   5  40
ATOM     40  O   LIG    1        3.690  -0.516  -0.017  0.00  0.00    -0.343 OA
BRANCH  40  41
ATOM     41  C   LIG    1        4.866  -0.026   0.404  0.00  0.00    +0.254 C 
ATOM     42  C   LIG    1        5.783  -1.205   0.680  0.00  0.00    +0.095 C 
ATOM     43  C   LIG    1        6.324  -1.637  -0.678  0.00  0.00    +0.151 C 
ATOM     44  C   LIG    1        7.151  -0.436  -1.120  0.00  0.00    +0.178 C 
ATOM     45  C   LIG    1        6.155   0.706  -1.323  0.00  0.00    +0.150 C 
ATOM     46  C   LIG    1        5.306   0.344  -2.519  0.00  0.00    +0.041 C 
ATOM     47  O   LIG    1        5.438   1.034  -0.197  0.00  0.00    -0.346 OA
BRANCH  43  48
ATOM     48  O   LIG    1        7.061  -2.792  -0.625  0.00  0.00    -0.389 OA
ATOM     49  H   LIG    1        8.018  -2.541  -0.664  0.00  0.00    +0.210 HD
ENDBRANCH  43  48
BRANCH  44  50
ATOM     50  O   LIG    1        8.011  -0.079  -0.090  0.00  0.00    -0.343 OA
BRANCH  50  51
ATOM     51  C   LIG    1        9.348  -0.073  -0.442  0.00  0.00    +0.254 C 
ATOM     52  O   LIG    1       10.030  -0.886   0.457  0.00  0.00    -0.346 OA
ATOM     53  C   LIG    1       11.347  -1.109   0.098  0.00  0.00    +0.149 C 
ATOM     54  C   LIG    1       11.999  -1.876   1.227  0.00  0.00    +0.041 C 
ATOM     55  C   LIG    1       12.087   0.188  -0.137  0.00  0.00    +0.175 C 
ATOM     56  C   LIG    1       11.234   1.305   0.458  0.00  0.00    +0.150 C 
ATOM     57  C   LIG    1        9.876   1.339  -0.239  0.00  0.00    +0.095 C 
BRANCH  56  58
ATOM     58  O   LIG    1       11.912   2.502   0.228  0.00  0.00    -0.389 OA
ATOM     59  H   LIG    1       11.999   3.038   1.055  0.00  0.00    +0.210 HD
ENDBRANCH  56  58
BRANCH  55  60
ATOM     60  O   LIG    1       12.188   0.465  -1.500  0.00  0.00    -0.375 OA
ATOM     61  C   LIG    1       13.504   0.721  -1.879  0.00  0.00    +0.194 C 
ENDBRANCH  55  60
ENDBRANCH  50  51
ENDBRANCH  44  50
ENDBRANCH  40  41
ENDBRANCH   5  40
TORSDOF 13
