REMARK  Name = molecules/IZEKFCXSFNUWAM-UHFFFAOYSA-N.pdb
REMARK                            x       y       z     vdW  Elec       q    Type
REMARK                         _______ _______ _______ _____ _____    ______ ____
ROOT
ATOM      1  C   LIG    1        2.522   0.181   0.066  0.00  0.00    +0.220 A 
ATOM      2  N   LIG    1        1.464   1.042   0.184  0.00  0.00    -0.209 NA
ATOM      3  C   LIG    1        0.214   0.591   0.083  0.00  0.00    +0.136 A 
ATOM      4  C   LIG    1       -0.848   1.466   0.215  0.00  0.00    +0.153 A 
ATOM      5  N   LIG    1       -2.076   0.922   0.112  0.00  0.00    -0.197 NA
ATOM      6  C   LIG    1       -2.285  -0.372  -0.104  0.00  0.00    +0.220 A 
ATOM      7  N   LIG    1       -1.258  -1.225  -0.234  0.00  0.00    -0.209 NA
ATOM      8  C   LIG    1       -0.018  -0.768  -0.144  0.00  0.00    +0.136 A 
ATOM      9  C   LIG    1        1.036  -1.653  -0.267  0.00  0.00    +0.153 A 
ATOM     10  N   LIG    1        2.251  -1.115  -0.153  0.00  0.00    -0.197 NA
ENDROOT
BRANCH   4  11
ATOM     11  N   LIG    1       -0.696   2.863   0.425  0.00  0.00    -0.313 N 
ATOM     12  C   LIG    1       -1.114   3.578   1.596  0.00  0.00    +0.106 C 
ATOM     13  C   LIG    1       -2.131   4.623   1.158  0.00  0.00    +0.019 C 
ATOM     14  C   LIG    1       -1.510   5.552   0.169  0.00  0.00    +0.003 C 
ATOM     15  C   LIG    1       -0.193   5.124  -0.383  0.00  0.00    +0.019 C 
ATOM     16  C   LIG    1       -0.056   3.659  -0.635  0.00  0.00    +0.106 C 
ENDBRANCH   4  11
BRANCH   9  17
ATOM     17  N   LIG    1        0.892  -3.044  -0.500  0.00  0.00    -0.313 N 
ATOM     18  C   LIG    1        1.417  -3.980   0.436  0.00  0.00    +0.106 C 
ATOM     19  C   LIG    1        1.494  -5.393   0.002  0.00  0.00    +0.019 C 
ATOM     20  C   LIG    1        0.960  -5.701  -1.357  0.00  0.00    +0.003 C 
ATOM     21  C   LIG    1        1.065  -4.547  -2.336  0.00  0.00    +0.019 C 
ATOM     22  C   LIG    1        0.187  -3.453  -1.726  0.00  0.00    +0.106 C 
ENDBRANCH   9  17
BRANCH   1  23
ATOM     23  N   LIG    1        3.847   0.665   0.190  0.00  0.00    -0.295 N 
BRANCH  23  24
ATOM     24  C   LIG    1        5.005  -0.121   0.036  0.00  0.00    +0.136 C 
BRANCH  24  25
ATOM     25  C   LIG    1        4.859  -1.525  -0.427  0.00  0.00    +0.174 C 
BRANCH  25  26
ATOM     26  O   LIG    1        4.263  -1.577  -1.699  0.00  0.00    -0.393 OA
ATOM     27  H   LIG    1        4.908  -1.160  -2.330  0.00  0.00    +0.209 HD
ENDBRANCH  25  26
ENDBRANCH  24  25
ENDBRANCH  23  24
BRANCH  23  28
ATOM     28  C   LIG    1        4.063   2.083   0.531  0.00  0.00    +0.136 C 
BRANCH  28  29
ATOM     29  C   LIG    1        4.633   2.158   1.947  0.00  0.00    +0.174 C 
BRANCH  29  30
ATOM     30  O   LIG    1        4.841   3.497   2.270  0.00  0.00    -0.393 OA
ATOM     31  H   LIG    1        4.634   3.691   3.217  0.00  0.00    +0.209 HD
ENDBRANCH  29  30
ENDBRANCH  28  29
ENDBRANCH  23  28
ENDBRANCH   1  23
BRANCH   6  32
ATOM     32  N   LIG    1       -3.599  -0.901  -0.211  0.00  0.00    -0.295 N 
BRANCH  32  33
ATOM     33  C   LIG    1       -4.340  -0.633  -1.390  0.00  0.00    +0.136 C 
BRANCH  33  34
ATOM     34  C   LIG    1       -5.567   0.194  -1.313  0.00  0.00    +0.174 C 
BRANCH  34  35
ATOM     35  O   LIG    1       -5.438   1.467  -0.832  0.00  0.00    -0.393 OA
ATOM     36  H   LIG    1       -4.556   1.802  -0.633  0.00  0.00    +0.209 HD
ENDBRANCH  34  35
ENDBRANCH  33  34
ENDBRANCH  32  33
BRANCH  32  37
ATOM     37  C   LIG    1       -4.053  -1.694   0.887  0.00  0.00    +0.136 C 
BRANCH  37  38
ATOM     38  C   LIG    1       -5.126  -1.142   1.753  0.00  0.00    +0.174 C 
BRANCH  38  39
ATOM     39  O   LIG    1       -4.697   0.068   2.327  0.00  0.00    -0.393 OA
ATOM     40  H   LIG    1       -4.472   0.677   1.598  0.00  0.00    +0.209 HD
ENDBRANCH  38  39
ENDBRANCH  37  38
ENDBRANCH  32  37
ENDBRANCH   6  32
TORSDOF 16
