REMARK  Name = molecules/IZRPKIZLIFYYKR-UHFFFAOYSA-N.pdb
REMARK                            x       y       z     vdW  Elec       q    Type
REMARK                         _______ _______ _______ _____ _____    ______ ____
ROOT
ATOM      1  C   LIG    1        0.541  -1.321   1.041  0.00  0.00    -0.001 A 
ATOM      2  C   LIG    1        1.121  -2.511   1.395  0.00  0.00    +0.007 A 
ATOM      3  C   LIG    1        1.527  -3.415   0.433  0.00  0.00    +0.001 A 
ATOM      4  C   LIG    1        1.344  -3.107  -0.901  0.00  0.00    +0.004 A 
ATOM      5  C   LIG    1        0.752  -1.890  -1.245  0.00  0.00    +0.046 A 
ATOM      6  C   LIG    1        0.340  -0.981  -0.312  0.00  0.00    +0.124 A 
ENDROOT
BRANCH   1   7
ATOM      7  C   LIG    1        0.144  -0.393   2.149  0.00  0.00    +0.074 C 
BRANCH   7   8
ATOM      8  C   LIG    1        1.124   0.731   2.278  0.00  0.00    -0.043 A 
ATOM      9  C   LIG    1        2.325   0.519   2.917  0.00  0.00    +0.004 A 
ATOM     10  C   LIG    1        3.260   1.513   3.066  0.00  0.00    +0.000 A 
ATOM     11  C   LIG    1        3.006   2.768   2.569  0.00  0.00    +0.000 A 
ATOM     12  C   LIG    1        1.785   2.978   1.922  0.00  0.00    +0.000 A 
ATOM     13  C   LIG    1        0.853   1.973   1.777  0.00  0.00    +0.004 A 
ENDBRANCH   7   8
ENDBRANCH   1   7
BRANCH   6  14
ATOM     14  O   LIG    1       -0.231   0.197  -0.585  0.00  0.00    -0.490 OA
BRANCH  14  15
ATOM     15  C   LIG    1       -0.551   0.753  -1.795  0.00  0.00    +0.244 C 
BRANCH  15  16
ATOM     16  C   LIG    1       -1.582   0.066  -2.637  0.00  0.00    +0.124 C 
BRANCH  16  17
ATOM     17  N   LIG    1       -2.873  -0.043  -2.001  0.00  0.00    -0.305 NA
ATOM     18  C   LIG    1       -2.882  -0.755  -0.763  0.00  0.00    +0.104 C 
ATOM     19  C   LIG    1       -3.445   1.285  -1.886  0.00  0.00    +0.104 C 
ENDBRANCH  16  17
ENDBRANCH  15  16
ENDBRANCH  14  15
ENDBRANCH   6  14
TORSDOF 6
