REMARK  Name = molecules/IZTQOLKUZKXIRV-YRVFCXMDSA-N.pdb
REMARK                            x       y       z     vdW  Elec       q    Type
REMARK                         _______ _______ _______ _____ _____    ______ ____
ROOT
ATOM      1  N   LIG    1        9.957  -2.682   0.000  0.00  0.00    -0.129 NA
ATOM      2  C   LIG    1        8.531  -2.219   0.000  0.00  0.00    +0.166 C 
ENDROOT
BRANCH   2   3
ATOM      3  C   LIG    1        8.994  -0.792   0.000  0.00  0.00    +0.083 C 
ATOM      4  N   LIG    1        7.991   0.323   0.000  0.00  0.00    -0.276 NA
BRANCH   4   5
ATOM      5  C   LIG    1        8.454   1.749   0.000  0.00  0.00    +0.164 C 
BRANCH   5   6
ATOM      6  C   LIG    1        7.028   2.213   0.000  0.00  0.00    +0.219 C 
ATOM      7  N   LIG    1        6.716   3.680   0.000  0.00  0.00    -0.099 NA
BRANCH   6   8
ATOM      8  O   LIG    1        5.913   1.209   0.000  0.00  0.00    -0.367 OA
ATOM      9  H   LIG    1        6.524   0.011   0.000  0.00  0.00    +0.212 HD
ENDBRANCH   6   8
ENDBRANCH   5   6
BRANCH   5  10
ATOM     10  C   LIG    1        9.881   1.286   0.000  0.00  0.00    +0.034 C 
BRANCH  10  11
ATOM     11  C   LIG    1       11.307   0.822   0.000  0.00  0.00    +0.075 C 
BRANCH  11  12
ATOM     12  S   LIG    1       12.734   0.358   0.000  0.00  0.00    -0.164 S 
ATOM     13  C   LIG    1       13.849   1.362   0.000  0.00  0.00    +0.084 C 
ENDBRANCH  11  12
ENDBRANCH  10  11
ENDBRANCH   5  10
ENDBRANCH   4   5
ENDBRANCH   2   3
BRANCH   2  14
ATOM     14  C   LIG    1        8.067  -3.645   0.000  0.00  0.00    +0.009 C 
ATOM     15  C   LIG    1        7.604  -5.072   0.000  0.00  0.00    -0.020 C 
BRANCH  15  16
ATOM     16  C   LIG    1        6.137  -5.384   0.000  0.00  0.00    +0.012 C 
ATOM     17  C   LIG    1        5.673  -6.810   0.000  0.00  0.00    +0.049 C 
BRANCH  17  18
ATOM     18  C   LIG    1        6.677  -7.925   0.000  0.00  0.00    +0.163 C 
ATOM     19  C   LIG    1        8.144  -7.613   0.000  0.00  0.00    +0.009 C 
ATOM     20  C   LIG    1        8.608  -6.187   0.000  0.00  0.00    +0.039 C 
BRANCH  18  21
ATOM     21  O   LIG    1        6.213  -9.352   0.000  0.00  0.00    -0.325 OA
BRANCH  21  22
ATOM     22  S   LIG    1        7.217 -10.466   0.000  0.00  0.00    +0.251 S 
ATOM     23  O   LIG    1        8.221 -11.581   0.000  0.00  0.00    -0.108 OA
ATOM     24  O   LIG    1        6.102 -11.470   0.000  0.00  0.00    -0.108 OA
BRANCH  22  25
ATOM     25  O   LIG    1        8.332  -9.463   0.000  0.00  0.00    -0.222 OA
ATOM     26  H   LIG    1        9.148  -8.728   0.000  0.00  0.00    +0.248 HD
ENDBRANCH  22  25
ENDBRANCH  21  22
ENDBRANCH  18  21
ENDBRANCH  17  18
ENDBRANCH  15  16
ENDBRANCH   2  14
TORSDOF 13
REMARK  Name = molecules/IZTQOLKUZKXIRV-YRVFCXMDSA-N.pdb
REMARK                            x       y       z     vdW  Elec       q    Type
REMARK                         _______ _______ _______ _____ _____    ______ ____
ROOT
ATOM      1  C   LIG    1        1.014  11.053   0.000  0.00  0.00    +0.203 C 
ATOM      2  N   LIG    1        0.010  12.167   0.000  0.00  0.00    -0.240 NA
ENDROOT
BRANCH   1   3
ATOM      3  O   LIG    1        2.508  11.183   0.000  0.00  0.00    -0.495 OA
ATOM      4  H   LIG    1        3.092  10.166   0.000  0.00  0.00    +0.293 HD
ENDBRANCH   1   3
BRANCH   1   5
ATOM      5  C   LIG    1        0.551   9.626   0.000  0.00  0.00    +0.173 C 
BRANCH   5   6
ATOM      6  N   LIG    1        1.977   9.162   0.000  0.00  0.00    -0.214 NA
ATOM      7  C   LIG    1        2.289   7.695   0.000  0.00  0.00    +0.108 C 
ENDBRANCH   5   6
BRANCH   5   8
ATOM      8  C   LIG    1        0.087   8.199   0.000  0.00  0.00    +0.145 C 
BRANCH   8   9
ATOM      9  C   LIG    1       -0.377   6.773   0.000  0.00  0.00    +0.362 C 
ATOM     10  O   LIG    1        0.157   6.180   0.000  0.00  0.00    -0.246 OA
ATOM     11  O   LIG    1       -1.844   6.461   0.000  0.00  0.00    -0.246 OA
ENDBRANCH   8   9
ENDBRANCH   5   8
ENDBRANCH   1   5
BRANCH   2  12
ATOM     12  C   LIG    1        0.474  13.594   0.000  0.00  0.00    +0.202 C 
BRANCH  12  13
ATOM     13  C   LIG    1        1.901  13.130   0.000  0.00  0.00    +0.277 C 
ATOM     14  N   LIG    1        3.015  14.134   0.000  0.00  0.00    -0.086 NA
ATOM     15  O   LIG    1        2.389  11.712   0.000  0.00  0.00    -0.270 OA
ENDBRANCH  12  13
BRANCH  12  16
ATOM     16  C   LIG    1       -0.953  14.057   0.000  0.00  0.00    +0.071 C 
BRANCH  16  17
ATOM     17  C   LIG    1       -2.379  14.521   0.000  0.00  0.00    -0.045 A 
ATOM     18  C   LIG    1       -2.691  15.988   0.000  0.00  0.00    +0.004 A 
ATOM     19  C   LIG    1       -4.118  16.452   0.000  0.00  0.00    +0.000 A 
ATOM     20  C   LIG    1       -5.232  15.448   0.000  0.00  0.00    +0.000 A 
ATOM     21  C   LIG    1       -4.920  13.981   0.000  0.00  0.00    +0.000 A 
ATOM     22  C   LIG    1       -3.494  13.517   0.000  0.00  0.00    +0.004 A 
ENDBRANCH  16  17
ENDBRANCH  12  16
ENDBRANCH   2  12
TORSDOF 9
REMARK  Name = molecules/IZTQOLKUZKXIRV-YRVFCXMDSA-N.pdb
REMARK                            x       y       z     vdW  Elec       q    Type
REMARK                         _______ _______ _______ _____ _____    ______ ____
ROOT
ATOM      1  C   LIG    1        1.321   4.067   0.000  0.00  0.00    +0.154 C 
ATOM      2  N   LIG    1        2.748   3.603   0.000  0.00  0.00    -0.135 NA
ENDROOT
BRANCH   1   3
ATOM      3  C   LIG    1        1.785   5.493   0.000  0.00  0.00    +0.246 C 
BRANCH   3   4
ATOM      4  N   LIG    1        3.252   5.805   0.000  0.00  0.00    -0.141 NA
ATOM      5  C   LIG    1        3.863   4.607   0.000  0.00  0.00    +0.130 C 
BRANCH   4   6
ATOM      6  O   LIG    1        3.915   6.106   0.000  0.00  0.00    -0.285 OA
ATOM      7  C   LIG    1        3.716   7.232   0.000  0.00  0.00    +0.209 C 
ENDBRANCH   4   6
ENDBRANCH   3   4
BRANCH   3   8
ATOM      8  O   LIG    1        1.183   6.016   0.000  0.00  0.00    -0.206 OA
BRANCH   8   9
ATOM      9  O   LIG    1        1.060   6.835   0.000  0.00  0.00    -0.248 OA
ATOM     10  H   LIG    1        1.359   7.404   0.000  0.00  0.00    +0.253 HD
ENDBRANCH   8   9
ENDBRANCH   3   8
ENDBRANCH   1   3
BRANCH   1  11
ATOM     11  C   LIG    1        0.858   2.640   0.000  0.00  0.00    +0.063 C 
BRANCH  11  12
ATOM     12  C   LIG    1        0.394   1.214   0.000  0.00  0.00    -0.018 A 
ATOM     13  C   LIG    1       -1.032   0.750   0.000  0.00  0.00    +0.005 A 
ATOM     14  C   LIG    1       -1.032  -0.750   0.000  0.00  0.00    +0.071 A 
ATOM     15  N   LIG    1        0.394  -1.214   0.000  0.00  0.00    -0.255 NA
ATOM     16  C   LIG    1       -2.331  -1.500   0.000  0.00  0.00    +0.028 A 
ATOM     17  C   LIG    1       -3.630  -0.750   0.000  0.00  0.00    +0.002 A 
ATOM     18  C   LIG    1       -3.630   0.750   0.000  0.00  0.00    +0.001 A 
ATOM     19  C   LIG    1       -2.331   1.500   0.000  0.00  0.00    +0.010 A 
ATOM     20  C   LIG    1        1.276   0.000   0.000  0.00  0.00    +0.115 A 
ENDBRANCH  11  12
ENDBRANCH   1  11
TORSDOF 7
REMARK  Name = molecules/IZTQOLKUZKXIRV-YRVFCXMDSA-N.pdb
REMARK                            x       y       z     vdW  Elec       q    Type
REMARK                         _______ _______ _______ _____ _____    ______ ____
ROOT
ATOM      1  C   LIG    1       13.123  -5.077   0.000  0.00  0.00    +0.148 C 
ENDROOT
BRANCH   1   2
ATOM      2  C   LIG    1       14.549  -5.540   0.000  0.00  0.00    +0.358 C 
ATOM      3  O   LIG    1       14.861  -7.007   0.000  0.00  0.00    -0.246 OA
ATOM      4  O   LIG    1       15.664  -4.536   0.000  0.00  0.00    -0.246 OA
ENDBRANCH   1   2
BRANCH   1   6
ATOM      5  N   LIG    1       11.232  -6.040   0.000  0.00  0.00    -0.138 NA
ATOM      6  C   LIG    1       11.696  -4.613   0.000  0.00  0.00    +0.124 C 
ENDBRANCH   1   6
TORSDOF 2
REMARK  Name = molecules/IZTQOLKUZKXIRV-YRVFCXMDSA-N.pdb
REMARK                            x       y       z     vdW  Elec       q    Type
REMARK                         _______ _______ _______ _____ _____    ______ ____
ROOT
ATOM      1  O   HOH    1       10.489  -0.661   0.000  0.00  0.00    -0.410 OA
ATOM      2  H   HOH    0       11.072  -1.679   0.000  0.00  0.00    +0.205 HD
ATOM      3  H   HOH    0        9.776  -0.211   0.000  0.00  0.00    +0.205 HD
ENDROOT
TORSDOF 0
REMARK  Name = molecules/IZTQOLKUZKXIRV-YRVFCXMDSA-N.pdb
REMARK                            x       y       z     vdW  Elec       q    Type
REMARK                         _______ _______ _______ _____ _____    ______ ____
ROOT
ATOM      1  C   LIG    1        6.569   6.305   0.000  0.00  0.00    +0.041 C 
ATOM      2  S   LIG    1        7.995   5.841   0.000  0.00  0.00    -0.210 S 
ATOM      3  C   LIG    1        9.110   6.845   0.000  0.00  0.00    +0.074 C 
ATOM      4  H   LIG    1        7.830   4.684   0.000  0.00  0.00    +0.095 HD
ENDROOT
TORSDOF 0
REMARK  Name = molecules/IZTQOLKUZKXIRV-YRVFCXMDSA-N.pdb
REMARK                            x       y       z     vdW  Elec       q    Type
REMARK                         _______ _______ _______ _____ _____    ______ ____
ROOT
ATOM      1  C   LIG    1        5.142   6.768   0.000  0.00  0.00    +0.000 C 
ENDROOT
TORSDOF 0
REMARK  Name = molecules/IZTQOLKUZKXIRV-YRVFCXMDSA-N.pdb
REMARK                            x       y       z     vdW  Elec       q    Type
REMARK                         _______ _______ _______ _____ _____    ______ ____
ROOT
ATOM      1  C   LIG    1       10.269  -4.150   0.000  0.00  0.00    +0.000 C 
ENDROOT
TORSDOF 0
REMARK  Name = molecules/IZTQOLKUZKXIRV-YRVFCXMDSA-N.pdb
REMARK                            x       y       z     vdW  Elec       q    Type
REMARK                         _______ _______ _______ _____ _____    ______ ____
ROOT
ATOM      1  O   HOH    1        9.155  -5.153   0.000  0.00  0.00    -0.410 OA
ATOM      2  H   HOH    0       10.026  -5.698   0.000  0.00  0.00    +0.205 HD
ATOM      3  H   HOH    0        9.339  -4.440   0.000  0.00  0.00    +0.205 HD
ENDROOT
TORSDOF 0
REMARK  Name = molecules/IZTQOLKUZKXIRV-YRVFCXMDSA-N.pdb
REMARK                            x       y       z     vdW  Elec       q    Type
REMARK                         _______ _______ _______ _____ _____    ______ ____
ROOT
ATOM      1  C   LIG    1        5.289   4.143   0.000  0.00  0.00    -0.000 C 
ENDROOT
TORSDOF 0
REMARK  Name = molecules/IZTQOLKUZKXIRV-YRVFCXMDSA-N.pdb
REMARK                            x       y       z     vdW  Elec       q    Type
REMARK                         _______ _______ _______ _____ _____    ______ ____
ROOT
ATOM      1  H   UNK    1        3.236   2.185   0.000  0.00  0.00    +0.000 HD
ENDROOT
TORSDOF 0
REMARK  Name = molecules/IZTQOLKUZKXIRV-YRVFCXMDSA-N.pdb
REMARK                            x       y       z     vdW  Elec       q    Type
REMARK                         _______ _______ _______ _____ _____    ______ ____
ROOT
ATOM      1  H   UNK    1        4.442  13.671   0.000  0.00  0.00    +0.000 HD
ENDROOT
TORSDOF 0
REMARK  Name = molecules/IZTQOLKUZKXIRV-YRVFCXMDSA-N.pdb
REMARK                            x       y       z     vdW  Elec       q    Type
REMARK                         _______ _______ _______ _____ _____    ______ ____
ROOT
ATOM      1  H   UNK    1        2.703  15.601   0.000  0.00  0.00    +0.000 HD
ENDROOT
TORSDOF 0
REMARK  Name = molecules/IZTQOLKUZKXIRV-YRVFCXMDSA-N.pdb
REMARK                            x       y       z     vdW  Elec       q    Type
REMARK                         _______ _______ _______ _____ _____    ______ ____
ROOT
ATOM      1  H   UNK    1       12.093  -7.268   0.000  0.00  0.00    +0.000 HD
ENDROOT
TORSDOF 0
REMARK  Name = molecules/IZTQOLKUZKXIRV-YRVFCXMDSA-N.pdb
REMARK                            x       y       z     vdW  Elec       q    Type
REMARK                         _______ _______ _______ _____ _____    ______ ____
ROOT
ATOM      1  H   UNK    1       -1.408  11.679   0.000  0.00  0.00    +0.000 HD
ENDROOT
TORSDOF 0
REMARK  Name = molecules/IZTQOLKUZKXIRV-YRVFCXMDSA-N.pdb
REMARK                            x       y       z     vdW  Elec       q    Type
REMARK                         _______ _______ _______ _____ _____    ______ ____
ROOT
ATOM      1  H   UNK    1        7.757 -13.008   0.000  0.00  0.00    +0.000 HD
ENDROOT
TORSDOF 0
REMARK  Name = molecules/IZTQOLKUZKXIRV-YRVFCXMDSA-N.pdb
REMARK                            x       y       z     vdW  Elec       q    Type
REMARK                         _______ _______ _______ _____ _____    ______ ____
ROOT
ATOM      1  H   UNK    1       -2.307   5.034   0.000  0.00  0.00    +0.000 HD
ENDROOT
TORSDOF 0
REMARK  Name = molecules/IZTQOLKUZKXIRV-YRVFCXMDSA-N.pdb
REMARK                            x       y       z     vdW  Elec       q    Type
REMARK                         _______ _______ _______ _____ _____    ______ ____
ROOT
ATOM      1  H   UNK    1        5.606   8.195   0.000  0.00  0.00    +0.000 HD
ENDROOT
TORSDOF 0
REMARK  Name = molecules/IZTQOLKUZKXIRV-YRVFCXMDSA-N.pdb
REMARK                            x       y       z     vdW  Elec       q    Type
REMARK                         _______ _______ _______ _____ _____    ______ ____
ROOT
ATOM      1  H   UNK    1        0.858  -2.640   0.000  0.00  0.00    +0.000 HD
ENDROOT
TORSDOF 0
REMARK  Name = molecules/IZTQOLKUZKXIRV-YRVFCXMDSA-N.pdb
REMARK                            x       y       z     vdW  Elec       q    Type
REMARK                         _______ _______ _______ _____ _____    ______ ____
ROOT
ATOM      1  H   UNK    1       17.090  -5.000   0.000  0.00  0.00    +0.000 HD
ENDROOT
TORSDOF 0
REMARK  Name = molecules/IZTQOLKUZKXIRV-YRVFCXMDSA-N.pdb
REMARK                            x       y       z     vdW  Elec       q    Type
REMARK                         _______ _______ _______ _____ _____    ______ ____
ROOT
ATOM      1  H   UNK    1        4.826   2.717   0.000  0.00  0.00    +0.000 HD
ENDROOT
TORSDOF 0
