REMARK  Name = molecules/JAYAGJDXJIDEKI-BNNXBDHTSA-N.pdb
REMARK                            x       y       z     vdW  Elec       q    Type
REMARK                         _______ _______ _______ _____ _____    ______ ____
ROOT
ATOM      1  C   LIG    1       -1.881  -1.618   0.069  0.00  0.00    +0.253 C 
ATOM      2  C   LIG    1       -0.935  -1.907   1.176  0.00  0.00    +0.095 C 
ATOM      3  C   LIG    1        0.301  -2.580   0.611  0.00  0.00    +0.151 C 
ATOM      4  C   LIG    1        0.797  -1.653  -0.504  0.00  0.00    +0.178 C 
ATOM      5  C   LIG    1       -0.277  -1.562  -1.581  0.00  0.00    +0.150 C 
ATOM      6  C   LIG    1        0.175  -2.109  -2.895  0.00  0.00    +0.041 C 
ATOM      7  O   LIG    1       -1.447  -2.192  -1.121  0.00  0.00    -0.346 OA
ENDROOT
BRANCH   3   8
ATOM      8  O   LIG    1        1.214  -2.686   1.634  0.00  0.00    -0.389 OA
ATOM      9  H   LIG    1        2.064  -3.006   1.261  0.00  0.00    +0.210 HD
ENDBRANCH   3   8
BRANCH   4  10
ATOM     10  O   LIG    1        1.069  -0.403  -0.038  0.00  0.00    -0.343 OA
BRANCH  10  11
ATOM     11  C   LIG    1        2.378   0.028  -0.174  0.00  0.00    +0.254 C 
ATOM     12  O   LIG    1        2.799   0.260   1.146  0.00  0.00    -0.346 OA
ATOM     13  C   LIG    1        4.162   0.446   1.224  0.00  0.00    +0.150 C 
ATOM     14  C   LIG    1        4.500   0.902   2.622  0.00  0.00    +0.041 C 
ATOM     15  C   LIG    1        4.701   1.388   0.184  0.00  0.00    +0.178 C 
ATOM     16  C   LIG    1        3.685   2.046  -0.667  0.00  0.00    +0.151 C 
ATOM     17  C   LIG    1        2.381   1.368  -0.848  0.00  0.00    +0.095 C 
BRANCH  16  18
ATOM     18  O   LIG    1        4.287   2.226  -1.943  0.00  0.00    -0.389 OA
ATOM     19  H   LIG    1        3.591   2.418  -2.627  0.00  0.00    +0.210 HD
ENDBRANCH  16  18
BRANCH  15  20
ATOM     20  O   LIG    1        5.711   0.735  -0.534  0.00  0.00    -0.343 OA
BRANCH  20  21
ATOM     21  C   LIG    1        6.990   1.187  -0.222  0.00  0.00    +0.255 C 
ATOM     22  C   LIG    1        7.777   0.113   0.506  0.00  0.00    +0.108 C 
ATOM     23  C   LIG    1        8.441  -0.822  -0.500  0.00  0.00    +0.212 C 
ATOM     24  C   LIG    1        9.220  -0.007  -1.506  0.00  0.00    +0.191 C 
ATOM     25  C   LIG    1        8.275   0.998  -2.182  0.00  0.00    +0.151 C 
ATOM     26  C   LIG    1        7.292   0.240  -3.057  0.00  0.00    +0.041 C 
ATOM     27  O   LIG    1        7.605   1.732  -1.264  0.00  0.00    -0.346 OA
BRANCH  23  28
ATOM     28  O   LIG    1        9.188  -1.762   0.211  0.00  0.00    -0.459 OA
BRANCH  28  29
ATOM     29  C   LIG    1        8.824  -3.086   0.210  0.00  0.00    +0.304 C 
ATOM     30  C   LIG    1        9.522  -4.171   0.913  0.00  0.00    +0.136 C 
ATOM     31  O   LIG    1        7.782  -3.420  -0.458  0.00  0.00    -0.251 OA
ENDBRANCH  28  29
ENDBRANCH  23  28
BRANCH  24  32
ATOM     32  O   LIG    1       10.340   0.596  -1.021  0.00  0.00    -0.339 OA
BRANCH  32  33
ATOM     33  C   LIG    1       11.530   0.344  -1.635  0.00  0.00    +0.282 C 
ATOM     34  C   LIG    1       12.481  -0.274  -0.609  0.00  0.00    +0.201 C 
ATOM     35  C   LIG    1       12.467   0.585   0.648  0.00  0.00    +0.179 C 
ATOM     36  C   LIG    1       13.025   1.929   0.223  0.00  0.00    +0.177 C 
ATOM     37  C   LIG    1       12.236   2.426  -0.946  0.00  0.00    +0.178 C 
ATOM     38  O   LIG    1       12.184   1.533  -2.021  0.00  0.00    -0.341 OA
BRANCH  35  39
ATOM     39  O   LIG    1       13.207  -0.040   1.622  0.00  0.00    -0.386 OA
ATOM     40  H   LIG    1       13.619  -0.873   1.267  0.00  0.00    +0.210 HD
ENDBRANCH  35  39
BRANCH  36  41
ATOM     41  O   LIG    1       12.836   2.811   1.286  0.00  0.00    -0.386 OA
ATOM     42  H   LIG    1       13.266   2.465   2.120  0.00  0.00    +0.210 HD
ENDBRANCH  36  41
BRANCH  34  43
ATOM     43  O   LIG    1       12.189  -1.560  -0.273  0.00  0.00    -0.384 OA
ATOM     44  H   LIG    1       12.970  -2.156  -0.212  0.00  0.00    +0.210 HD
ENDBRANCH  34  43
BRANCH  37  45
ATOM     45  C   LIG    1       12.907   3.686  -1.508  0.00  0.00    +0.190 C 
BRANCH  45  46
ATOM     46  O   LIG    1       12.099   4.128  -2.553  0.00  0.00    -0.392 OA
ATOM     47  H   LIG    1       11.313   4.625  -2.230  0.00  0.00    +0.210 HD
ENDBRANCH  45  46
ENDBRANCH  37  45
ENDBRANCH  32  33
ENDBRANCH  24  32
ENDBRANCH  20  21
ENDBRANCH  15  20
ENDBRANCH  10  11
ENDBRANCH   4  10
BRANCH   1  48
ATOM     48  O   LIG    1       -3.186  -2.033   0.364  0.00  0.00    -0.348 OA
BRANCH  48  58
ATOM     49  C   LIG    1       -9.760   1.185   0.027  0.00  0.00    +0.077 C 
ATOM     50  C   LIG    1      -10.802   0.969   1.118  0.00  0.00    +0.029 C 
ATOM     51  C   LIG    1      -10.383  -0.039   2.159  0.00  0.00    +0.124 C 
ATOM     52  C   LIG    1       -9.398  -1.073   1.803  0.00  0.00    +0.036 C 
ATOM     53  C   LIG    1       -8.386  -0.712   0.738  0.00  0.00    +0.003 C 
ATOM     54  C   LIG    1       -7.008  -1.255   0.988  0.00  0.00    -0.026 C 
ATOM     55  C   LIG    1       -7.071  -2.352   2.065  0.00  0.00    +0.012 C 
ATOM     56  C   LIG    1       -6.102  -0.202   1.589  0.00  0.00    -0.002 C 
ATOM     57  C   LIG    1       -4.699  -0.784   1.617  0.00  0.00    +0.035 C 
ATOM     58  C   LIG    1       -4.111  -0.993   0.266  0.00  0.00    +0.122 C 
ATOM     59  C   LIG    1       -5.149  -1.321  -0.740  0.00  0.00    +0.032 C 
ATOM     60  C   LIG    1       -6.065   1.096   0.880  0.00  0.00    +0.004 C 
ATOM     61  C   LIG    1       -7.242   1.395  -0.008  0.00  0.00    +0.007 C 
ATOM     62  C   LIG    1       -6.427  -1.888  -0.229  0.00  0.00    +0.010 C 
ATOM     63  C   LIG    1      -10.951   2.299   1.814  0.00  0.00    +0.017 C 
ATOM     64  C   LIG    1      -12.021   0.486   0.424  0.00  0.00    +0.030 C 
ATOM     65  C   LIG    1      -11.411  -0.428  -0.661  0.00  0.00    +0.011 C 
ATOM     66  C   LIG    1       -8.450   0.777   0.601  0.00  0.00    +0.025 C 
ATOM     67  C   LIG    1      -10.237   0.409  -1.157  0.00  0.00    +0.036 C 
BRANCH  64  68
ATOM     68  C   LIG    1      -12.922   1.444  -0.227  0.00  0.00    -0.022 C 
ATOM     69  C   LIG    1      -12.909   2.728  -0.339  0.00  0.00    +0.094 C 
ATOM     70  C   LIG    1      -14.076   3.174  -1.104  0.00  0.00    +0.332 C 
ATOM     71  O   LIG    1      -14.384   4.367  -1.407  0.00  0.00    -0.246 OA
ATOM     72  O   LIG    1      -14.795   2.057  -1.446  0.00  0.00    -0.457 OA
ATOM     73  C   LIG    1      -14.169   0.942  -0.919  0.00  0.00    +0.264 C 
ENDBRANCH  64  68
BRANCH  51  74
ATOM     74  O   LIG    1      -10.038   0.565   3.385  0.00  0.00    -0.391 OA
ATOM     75  H   LIG    1      -10.789   0.631   4.014  0.00  0.00    +0.210 HD
ENDBRANCH  51  74
BRANCH  49  76
ATOM     76  O   LIG    1       -9.646   2.526  -0.340  0.00  0.00    -0.388 OA
ATOM     77  H   LIG    1       -9.326   2.516  -1.292  0.00  0.00    +0.210 HD
ENDBRANCH  49  76
ENDBRANCH  48  58
ENDBRANCH   1  48
TORSDOF 20
