REMARK  Name = molecules/JBACAGZMXLDQCR-UHFFFAOYSA-N.pdb
REMARK                            x       y       z     vdW  Elec       q    Type
REMARK                         _______ _______ _______ _____ _____    ______ ____
ROOT
ATOM      1  S   LIG    1        0.309  -1.613  -1.252  0.00  0.00    +0.074 S 
ATOM      2  O   LIG    1       -0.212  -2.995  -1.578  0.00  0.00    -0.150 OA
ATOM      3  O   LIG    1        0.787  -1.053  -2.587  0.00  0.00    -0.150 OA
ENDROOT
BRANCH   1   4
ATOM      4  C   LIG    1       -0.961  -0.611  -0.592  0.00  0.00    +0.109 A 
ATOM      5  C   LIG    1       -1.928  -1.146   0.264  0.00  0.00    +0.032 A 
ATOM      6  C   LIG    1       -2.950  -0.392   0.798  0.00  0.00    +0.047 A 
ATOM      7  C   LIG    1       -3.058   0.951   0.501  0.00  0.00    +0.117 A 
ATOM      8  C   LIG    1       -2.112   1.492  -0.342  0.00  0.00    +0.047 A 
ATOM      9  C   LIG    1       -1.082   0.729  -0.881  0.00  0.00    +0.032 A 
BRANCH   7  10
ATOM     10  O   LIG    1       -4.093   1.718   1.042  0.00  0.00    -0.507 OA
ATOM     11  H   LIG    1       -4.993   1.829   0.577  0.00  0.00    +0.292 HD
ENDBRANCH   7  10
ENDBRANCH   1   4
BRANCH   1  12
ATOM     12  N   LIG    1        1.654  -1.776  -0.197  0.00  0.00    -0.194 N 
ATOM     13  H   LIG    1        1.934  -2.707   0.170  0.00  0.00    +0.176 HD
BRANCH  12  14
ATOM     14  C   LIG    1        2.419  -0.644   0.203  0.00  0.00    +0.177 A 
ATOM     15  N   LIG    1        3.468  -0.654   1.010  0.00  0.00    -0.232 NA
ATOM     16  C   LIG    1        4.077   0.451   1.291  0.00  0.00    +0.120 A 
ATOM     17  C   LIG    1        3.597   1.608   0.731  0.00  0.00    +0.068 A 
ATOM     18  S   LIG    1        2.278   1.012  -0.181  0.00  0.00    -0.059 S 
ENDBRANCH  12  14
ENDBRANCH   1  12
TORSDOF 4
