REMARK  Name = molecules/JBIMVDZLSHOPLA-LSCVHKIXSA-N.pdb
REMARK                            x       y       z     vdW  Elec       q    Type
REMARK                         _______ _______ _______ _____ _____    ______ ____
ROOT
ATOM      1  C   LIG    1        0.709  -0.926   0.704  0.00  0.00    -0.017 C 
ATOM      2  C   LIG    1       -0.541  -1.080   0.429  0.00  0.00    -0.011 C 
ATOM      3  C   LIG    1       -1.196  -2.392   0.724  0.00  0.00    -0.011 A 
ATOM      4  C   LIG    1       -0.653  -2.897   1.860  0.00  0.00    +0.009 A 
ATOM      5  C   LIG    1       -1.151  -4.143   2.241  0.00  0.00    +0.001 A 
ATOM      6  C   LIG    1       -2.131  -4.777   1.477  0.00  0.00    +0.000 A 
ATOM      7  C   LIG    1       -2.623  -4.181   0.334  0.00  0.00    +0.007 A 
ATOM      8  C   LIG    1       -2.163  -2.935  -0.098  0.00  0.00    -0.003 A 
ATOM      9  C   LIG    1       -2.839  -2.511  -1.331  0.00  0.00    +0.265 C 
ATOM     10  O   LIG    1       -2.476  -1.311  -1.917  0.00  0.00    -0.487 OA
ATOM     11  C   LIG    1       -2.075  -0.096  -1.356  0.00  0.00    +0.129 A 
ATOM     12  C   LIG    1       -2.553   1.047  -1.890  0.00  0.00    +0.046 A 
ATOM     13  C   LIG    1       -2.184   2.283  -1.357  0.00  0.00    +0.008 A 
ATOM     14  C   LIG    1       -1.314   2.352  -0.261  0.00  0.00    -0.036 A 
ATOM     15  C   LIG    1       -0.804   1.205   0.314  0.00  0.00    +0.016 A 
ATOM     16  C   LIG    1       -1.211   0.042  -0.270  0.00  0.00    +0.024 A 
ENDROOT
BRANCH  14  17
ATOM     17  C   LIG    1       -0.894   3.640   0.337  0.00  0.00    +0.155 C 
BRANCH  17  18
ATOM     18  C   LIG    1       -1.787   4.122   1.391  0.00  0.00    +0.309 C 
ATOM     19  O   LIG    1       -2.793   3.469   1.716  0.00  0.00    -0.251 OA
BRANCH  18  20
ATOM     20  O   LIG    1       -1.487   5.331   2.026  0.00  0.00    -0.480 OA
ATOM     21  H   LIG    1       -1.535   6.213   1.529  0.00  0.00    +0.295 HD
ENDBRANCH  18  20
ENDBRANCH  17  18
ENDBRANCH  14  17
BRANCH   1  22
ATOM     22  C   LIG    1        1.445   0.286   0.337  0.00  0.00    +0.043 C 
BRANCH  22  23
ATOM     23  C   LIG    1        2.728  -0.233  -0.461  0.00  0.00    +0.088 C 
BRANCH  23  24
ATOM     24  N   LIG    1        3.505   0.884  -0.861  0.00  0.00    -0.308 NA
ATOM     25  C   LIG    1        4.129   1.592   0.224  0.00  0.00    +0.104 C 
ATOM     26  C   LIG    1        4.507   0.466  -1.792  0.00  0.00    +0.104 C 
ENDBRANCH  23  24
ENDBRANCH  22  23
ENDBRANCH   1  22
TORSDOF 6
