REMARK  Name = molecules/JBIWCJUYHHGXTC-AKNGSSGZSA-N.pdb
REMARK                            x       y       z     vdW  Elec       q    Type
REMARK                         _______ _______ _______ _____ _____    ______ ____
ROOT
ATOM      1  C   LIG    1        2.258   1.087  -2.375  0.00  0.00    +0.013 C 
ATOM      2  C   LIG    1        2.402   0.155  -1.196  0.00  0.00    +0.027 C 
ATOM      3  C   LIG    1        1.313   0.282  -0.187  0.00  0.00    +0.062 C 
ATOM      4  C   LIG    1        1.413  -0.830   0.790  0.00  0.00    +0.047 C 
ATOM      5  C   LIG    1        0.365  -1.407   1.374  0.00  0.00    +0.141 C 
ATOM      6  C   LIG    1       -1.014  -0.999   1.125  0.00  0.00    +0.192 C 
ATOM      7  C   LIG    1       -1.945  -2.037   0.658  0.00  0.00    +0.211 C 
ATOM      8  C   LIG    1       -3.373  -1.631   0.507  0.00  0.00    +0.121 C 
ATOM      9  C   LIG    1       -3.550  -0.422   0.040  0.00  0.00    +0.127 C 
ATOM     10  C   LIG    1       -2.416   0.443  -0.372  0.00  0.00    +0.132 C 
ATOM     11  O   LIG    1       -1.593  -3.184   0.397  0.00  0.00    -0.288 OA
ATOM     12  C   LIG    1       -1.093   0.205   0.225  0.00  0.00    +0.090 C 
ATOM     13  C   LIG    1        2.770  -1.192   1.225  0.00  0.00    +0.197 C 
ATOM     14  O   LIG    1        2.874  -1.942   2.211  0.00  0.00    -0.287 OA
ATOM     15  C   LIG    1        3.924  -0.682   0.514  0.00  0.00    +0.067 A 
ATOM     16  C   LIG    1        5.227  -0.844   1.013  0.00  0.00    +0.128 A 
ATOM     17  C   LIG    1        6.288  -0.172   0.395  0.00  0.00    +0.046 A 
ATOM     18  C   LIG    1        6.117   0.631  -0.675  0.00  0.00    +0.004 A 
ATOM     19  C   LIG    1        4.809   0.777  -1.165  0.00  0.00    +0.005 A 
ATOM     20  C   LIG    1       -0.047   0.143  -0.865  0.00  0.00    +0.131 C 
ATOM     21  C   LIG    1        3.739   0.134  -0.587  0.00  0.00    -0.030 A 
ENDROOT
BRANCH   8  22
ATOM     22  C   LIG    1       -4.428  -2.548   0.926  0.00  0.00    +0.248 C 
ATOM     23  O   LIG    1       -4.082  -3.695   1.331  0.00  0.00    -0.270 OA
ATOM     24  N   LIG    1       -5.790  -2.271   0.914  0.00  0.00    -0.325 N 
ATOM     25  H   LIG    1       -6.511  -3.011   1.198  0.00  0.00    +0.145 HD
ATOM     26  H   LIG    1       -6.202  -1.381   0.648  0.00  0.00    +0.145 HD
ENDBRANCH   8  22
BRANCH  10  27
ATOM     27  N   LIG    1       -2.800   1.813  -0.425  0.00  0.00    -0.298 NA
ATOM     28  C   LIG    1       -2.200   2.749   0.423  0.00  0.00    +0.105 C 
ATOM     29  C   LIG    1       -3.402   2.247  -1.628  0.00  0.00    +0.105 C 
ENDBRANCH  10  27
BRANCH   5  30
ATOM     30  O   LIG    1        0.665  -2.452   2.256  0.00  0.00    -0.507 OA
ATOM     31  H   LIG    1        0.314  -2.496   3.200  0.00  0.00    +0.292 HD
ENDBRANCH   5  30
BRANCH   6  32
ATOM     32  O   LIG    1       -1.450  -0.516   2.420  0.00  0.00    -0.373 OA
ATOM     33  H   LIG    1       -0.995   0.338   2.597  0.00  0.00    +0.211 HD
ENDBRANCH   6  32
BRANCH   9  34
ATOM     34  O   LIG    1       -4.856   0.086  -0.077  0.00  0.00    -0.509 OA
ATOM     35  H   LIG    1       -5.123   0.900   0.491  0.00  0.00    +0.292 HD
ENDBRANCH   9  34
BRANCH  16  36
ATOM     36  O   LIG    1        5.466  -1.645   2.090  0.00  0.00    -0.506 OA
ATOM     37  H   LIG    1        4.912  -2.198   2.660  0.00  0.00    +0.292 HD
ENDBRANCH  16  36
BRANCH  20  38
ATOM     38  O   LIG    1       -0.239   1.256  -1.661  0.00  0.00    -0.391 OA
ATOM     39  H   LIG    1       -0.818   1.075  -2.455  0.00  0.00    +0.210 HD
ENDBRANCH  20  38
TORSDOF 7
