REMARK  Name = molecules/JBKPUQTUERUYQE-UHFFFAOYSA-O.pdb
REMARK                            x       y       z     vdW  Elec       q    Type
REMARK                         _______ _______ _______ _____ _____    ______ ____
ROOT
ATOM      1  C   LIG    1       -1.461  -1.738  -0.091  0.00  0.00    +0.130 C 
ATOM      2  N   LIG    1       -0.949  -0.388  -0.027  0.00  0.00    -0.323 N 
ATOM      3  C   LIG    1       -1.770   0.648   0.083  0.00  0.00    +0.071 C 
ATOM      4  C   LIG    1       -1.364   1.961   0.150  0.00  0.00    +0.015 C 
ATOM      5  C   LIG    1       -0.020   2.222   0.100  0.00  0.00    -0.001 C 
ATOM      6  C   LIG    1        0.838   1.131  -0.016  0.00  0.00    +0.007 C 
ATOM      7  C   LIG    1        0.409  -0.174  -0.082  0.00  0.00    +0.121 C 
ENDROOT
BRANCH   7   8
ATOM      8  C   LIG    1        1.285  -1.316  -0.203  0.00  0.00    +0.158 C 
ATOM      9  N   LIG    1        2.530  -1.311  -0.265  0.00  0.00    -0.097 NA
BRANCH   9  10
ATOM     10  O   LIG    1        3.337  -0.263  -0.236  0.00  0.00    -0.409 OA
ATOM     11  H   LIG    1        3.774   0.034   0.632  0.00  0.00    +0.328 HD
ENDBRANCH   9  10
ENDBRANCH   7   8
TORSDOF 2
