REMARK  Name = molecules/JCCNYMKQOSZNPW-UHFFFAOYSA-N.pdb
REMARK                            x       y       z     vdW  Elec       q    Type
REMARK                         _______ _______ _______ _____ _____    ______ ____
ROOT
ATOM      1 CL   LIG    1       -3.188   4.924   2.190  0.00  0.00    -0.084 Cl
ATOM      2  C   LIG    1       -2.721   3.346   1.586  0.00  0.00    +0.041 A 
ATOM      3  C   LIG    1       -3.490   2.219   1.831  0.00  0.00    +0.024 A 
ATOM      4  C   LIG    1       -3.117   0.989   1.357  0.00  0.00    -0.038 A 
ATOM      5  C   LIG    1       -4.048  -0.118   1.661  0.00  0.00    +0.040 C 
ATOM      6  C   LIG    1       -4.503  -0.934   0.520  0.00  0.00    +0.042 C 
ATOM      7  C   LIG    1       -3.527  -1.481  -0.434  0.00  0.00    -0.021 A 
ATOM      8  C   LIG    1       -2.197  -1.242  -0.709  0.00  0.00    +0.075 A 
ATOM      9  C   LIG    1       -1.346  -0.273   0.039  0.00  0.00    +0.007 C 
ATOM     10  C   LIG    1       -0.132  -0.511   0.290  0.00  0.00    -0.057 C 
ATOM     11  C   LIG    1        0.739   0.344   1.135  0.00  0.00    +0.050 C 
ATOM     12  C   LIG    1        2.051   0.744   0.565  0.00  0.00    +0.115 C 
ATOM     13  N   LIG    1        2.635  -0.187  -0.347  0.00  0.00    -0.267 N 
ATOM     14  C   LIG    1        4.013  -0.194  -0.551  0.00  0.00    +0.403 C 
ATOM     15  O   LIG    1        4.543  -0.998  -1.342  0.00  0.00    -0.226 OA
ATOM     16  C   LIG    1        1.817  -1.117  -1.057  0.00  0.00    +0.115 C 
ATOM     17  C   LIG    1        0.697  -1.680  -0.178  0.00  0.00    +0.050 C 
ATOM     18  N   LIG    1       -1.464  -1.806  -1.648  0.00  0.00    -0.255 NA
ATOM     19  C   LIG    1       -2.024  -2.720  -2.452  0.00  0.00    +0.111 A 
ATOM     20  C   LIG    1       -3.364  -3.021  -2.242  0.00  0.00    +0.020 A 
ATOM     21  C   LIG    1       -4.142  -2.447  -1.273  0.00  0.00    +0.007 A 
ATOM     22  C   LIG    1       -1.926   0.967   0.626  0.00  0.00    -0.013 A 
ATOM     23  C   LIG    1       -1.150   2.066   0.367  0.00  0.00    +0.010 A 
ATOM     24  C   LIG    1       -1.538   3.292   0.851  0.00  0.00    +0.020 A 
ENDROOT
BRANCH  14  25
ATOM     25  O   LIG    1        4.821   0.695   0.122  0.00  0.00    -0.451 OA
BRANCH  25  26
ATOM     26  C   LIG    1        6.206   0.778  -0.004  0.00  0.00    +0.230 C 
ATOM     27  C   LIG    1        6.555   1.088  -1.430  0.00  0.00    +0.048 C 
ENDBRANCH  25  26
ENDBRANCH  14  25
TORSDOF 2
