REMARK  Name = molecules/JCKYGMPEJWAADB-UHFFFAOYSA-N.pdb
REMARK                            x       y       z     vdW  Elec       q    Type
REMARK                         _______ _______ _______ _____ _____    ______ ____
ROOT
ATOM      1  C   LIG    1        1.634   0.351  -0.105  0.00  0.00    +0.030 A 
ATOM      2  C   LIG    1        0.900   0.949   0.923  0.00  0.00    +0.023 A 
ATOM      3  C   LIG    1       -0.456   1.147   0.841  0.00  0.00    +0.005 A 
ATOM      4  C   LIG    1       -1.164   0.772  -0.247  0.00  0.00    -0.047 A 
ATOM      5  C   LIG    1       -0.482   0.175  -1.293  0.00  0.00    +0.005 A 
ATOM      6  C   LIG    1        0.898  -0.027  -1.209  0.00  0.00    +0.023 A 
ENDROOT
BRANCH   1   7
ATOM      7  N   LIG    1        3.031   0.155   0.035  0.00  0.00    -0.328 N 
BRANCH   7   8
ATOM      8  C   LIG    1        3.598  -0.930   0.837  0.00  0.00    +0.121 C 
BRANCH   8   9
ATOM      9  C   LIG    1        2.540  -1.764   1.490  0.00  0.00    +0.127 C 
ATOM     10 CL   LIG    1        1.469  -2.509   0.294  0.00  0.00    -0.124 Cl
ENDBRANCH   8   9
ENDBRANCH   7   8
BRANCH   7  11
ATOM     11  C   LIG    1        3.966   1.065  -0.571  0.00  0.00    +0.121 C 
BRANCH  11  12
ATOM     12  C   LIG    1        4.862   0.488  -1.612  0.00  0.00    +0.127 C 
ATOM     13 CL   LIG    1        4.075  -0.208  -3.018  0.00  0.00    -0.124 Cl
ENDBRANCH  11  12
ENDBRANCH   7  11
ENDBRANCH   1   7
BRANCH   4  14
ATOM     14  C   LIG    1       -2.627   1.008  -0.318  0.00  0.00    +0.035 C 
BRANCH  14  15
ATOM     15  C   LIG    1       -3.438  -0.150   0.169  0.00  0.00    +0.016 C 
BRANCH  15  16
ATOM     16  C   LIG    1       -4.913   0.266   0.055  0.00  0.00    +0.121 C 
BRANCH  16  17
ATOM     17  C   LIG    1       -5.810  -0.801   0.493  0.00  0.00    +0.305 C 
ATOM     18  O   LIG    1       -6.276  -1.599  -0.368  0.00  0.00    -0.251 OA
BRANCH  17  19
ATOM     19  O   LIG    1       -6.150  -0.949   1.812  0.00  0.00    -0.481 OA
ATOM     20  H   LIG    1       -6.545  -1.824   2.144  0.00  0.00    +0.295 HD
ENDBRANCH  17  19
ENDBRANCH  16  17
ENDBRANCH  15  16
ENDBRANCH  14  15
ENDBRANCH   4  14
TORSDOF 10
