REMARK  Name = molecules/JCMLWGQJPSGGEI-DJQDYNOGSA-N.pdb
REMARK                            x       y       z     vdW  Elec       q    Type
REMARK                         _______ _______ _______ _____ _____    ______ ____
ROOT
ATOM      1  C   LIG    1       -3.814  -1.381  -1.864  0.00  0.00    +0.000 C 
ATOM      2  C   LIG    1       -2.885  -1.124  -0.714  0.00  0.00    +0.000 C 
ATOM      3  C   LIG    1       -3.588  -0.166   0.225  0.00  0.00    +0.000 C 
ATOM      4  C   LIG    1       -2.757   0.242   1.383  0.00  0.00    +0.000 C 
ATOM      5  C   LIG    1       -1.388   0.738   0.949  0.00  0.00    +0.000 C 
ATOM      6  C   LIG    1       -0.700  -0.257   0.080  0.00  0.00    +0.000 C 
ATOM      7  C   LIG    1       -0.409  -1.555   0.783  0.00  0.00    +0.000 C 
ATOM      8  C   LIG    1        0.497   0.261  -0.666  0.00  0.00    +0.000 C 
ATOM      9  C   LIG    1        0.712  -0.912  -1.640  0.00  0.00    +0.000 C 
ATOM     10  C   LIG    1       -0.715  -1.349  -1.979  0.00  0.00    +0.000 C 
ATOM     11  C   LIG    1       -4.913  -0.717   0.674  0.00  0.00    +0.000 C 
ATOM     12  C   LIG    1       -5.425  -0.043   1.918  0.00  0.00    +0.000 C 
ATOM     13  C   LIG    1       -6.024   1.304   1.677  0.00  0.00    +0.000 C 
ATOM     14  C   LIG    1       -7.244   1.028   0.781  0.00  0.00    +0.000 C 
ATOM     15  C   LIG    1       -6.667   0.638  -0.548  0.00  0.00    +0.000 C 
ATOM     16  C   LIG    1       -4.814  -2.194   1.050  0.00  0.00    +0.000 C 
ATOM     17  C   LIG    1       -5.829  -0.625  -0.503  0.00  0.00    +0.000 C 
ATOM     18  C   LIG    1       -1.607  -0.502  -1.130  0.00  0.00    +0.000 C 
ATOM     19  C   LIG    1       -5.101  -0.652  -1.826  0.00  0.00    +0.000 C 
ENDROOT
BRANCH   1  20
ATOM     20  O   LIG    1       -3.136  -0.950  -3.029  0.00  0.00    +0.000 OA
ATOM     21  H   LIG    1       -3.263  -1.556  -3.774  0.00  0.00    +0.000 HD
ENDBRANCH   1  20
BRANCH   5  22
ATOM     22  O   LIG    1       -1.578   1.896   0.182  0.00  0.00    +0.000 OA
ATOM     23  H   LIG    1       -1.325   2.707   0.646  0.00  0.00    +0.000 HD
ENDBRANCH   5  22
BRANCH   8  24
ATOM     24  C   LIG    1        1.752   0.428   0.091  0.00  0.00    +0.000 C 
ATOM     25  C   LIG    1        1.674   1.373   1.266  0.00  0.00    +0.000 C 
BRANCH  24  26
ATOM     26  C   LIG    1        2.809   0.947  -0.899  0.00  0.00    +0.000 C 
BRANCH  26  27
ATOM     27 SE   LIG    1        4.510   1.193  -0.013  0.00  0.00    +0.000 Se
BRANCH  27  28
ATOM     28  C   LIG    1        5.901   1.755  -1.219  0.00  0.00    +0.000 C 
BRANCH  28  29
ATOM     29  C   LIG    1        7.203   1.577  -0.481  0.00  0.00    +0.000 C 
ATOM     30  N   LIG    1        7.425   0.392   0.216  0.00  0.00    +0.000 N 
ATOM     31  H   LIG    1        6.707  -0.365   0.206  0.00  0.00    +0.000 HD
ATOM     32  O   LIG    1        8.020   2.505  -0.528  0.00  0.00    +0.000 OA
BRANCH  30  33
ATOM     33  C   LIG    1        8.628   0.152   0.947  0.00  0.00    +0.000 C 
BRANCH  33  34
ATOM     34  C   LIG    1        9.873   0.190   0.055  0.00  0.00    +0.000 C 
BRANCH  34  35
ATOM     35  S   LIG    1       11.296  -0.101   1.055  0.00  0.00    +0.000 S 
ATOM     36  O   LIG    1       11.404   0.981   2.080  0.00  0.00    +0.000 OA
ATOM     37  O   LIG    1       12.499  -0.106   0.132  0.00  0.00    +0.000 OA
BRANCH  35  38
ATOM     38  O   LIG    1       11.125  -1.615   1.765  0.00  0.00    +0.000 OA
ATOM     39  H   LIG    1       11.231  -2.332   1.106  0.00  0.00    +0.000 HD
ENDBRANCH  35  38
ENDBRANCH  34  35
ENDBRANCH  33  34
ENDBRANCH  30  33
ENDBRANCH  28  29
ENDBRANCH  27  28
ENDBRANCH  26  27
ENDBRANCH  24  26
ENDBRANCH   8  24
BRANCH  14  40
ATOM     40  O   LIG    1       -8.005   2.155   0.616  0.00  0.00    +0.000 OA
ATOM     41  H   LIG    1       -8.842   1.916   0.176  0.00  0.00    +0.000 HD
ENDBRANCH  14  40
TORSDOF 12
