REMARK  Name = molecules/JCQLYHFGKNRPGE-RUKGUBFJSA-N.pdb
REMARK                            x       y       z     vdW  Elec       q    Type
REMARK                         _______ _______ _______ _____ _____    ______ ____
ROOT
ATOM      1  O   LIG    1        0.325  -0.675  -0.002  0.00  0.00    -0.340 OA
ENDROOT
BRANCH   1   4
ATOM      2  C   LIG    1       -2.826   0.043   1.355  0.00  0.00    +0.178 C 
ATOM      3  O   LIG    1       -1.655  -0.663   1.093  0.00  0.00    -0.341 OA
ATOM      4  C   LIG    1       -0.914  -0.051   0.088  0.00  0.00    +0.282 C 
ATOM      5  C   LIG    1       -1.628  -0.291  -1.222  0.00  0.00    +0.201 C 
ATOM      6  C   LIG    1       -3.003   0.286  -1.130  0.00  0.00    +0.179 C 
ATOM      7  C   LIG    1       -3.190   0.965   0.215  0.00  0.00    +0.177 C 
BRANCH   6   8
ATOM      8  O   LIG    1       -4.009  -0.605  -1.411  0.00  0.00    -0.386 OA
ATOM      9  H   LIG    1       -3.724  -1.535  -1.502  0.00  0.00    +0.210 HD
ENDBRANCH   6   8
BRANCH   5  10
ATOM     10  O   LIG    1       -0.875   0.281  -2.273  0.00  0.00    -0.384 OA
ATOM     11  H   LIG    1       -0.820  -0.315  -3.051  0.00  0.00    +0.210 HD
ENDBRANCH   5  10
BRANCH   7  12
ATOM     12  O   LIG    1       -4.524   1.337   0.371  0.00  0.00    -0.386 OA
ATOM     13  H   LIG    1       -4.826   1.706  -0.507  0.00  0.00    +0.210 HD
ENDBRANCH   7  12
BRANCH   2  14
ATOM     14  C   LIG    1       -3.975  -0.849   1.742  0.00  0.00    +0.190 C 
BRANCH  14  15
ATOM     15  O   LIG    1       -5.076  -0.022   1.976  0.00  0.00    -0.392 OA
ATOM     16  H   LIG    1       -5.896  -0.530   2.194  0.00  0.00    +0.210 HD
ENDBRANCH  14  15
ENDBRANCH   2  14
ENDBRANCH   1   4
BRANCH   1  17
ATOM     17  C   LIG    1        1.388   0.191   0.108  0.00  0.00    +0.186 C 
ATOM     18  C   LIG    1        2.292  -0.196   1.256  0.00  0.00    +0.178 C 
ATOM     19  O   LIG    1        3.477   0.426   0.945  0.00  0.00    -0.336 OA
ATOM     20  C   LIG    1        3.675   0.329  -0.415  0.00  0.00    +0.220 C 
ATOM     21  C   LIG    1        2.333   0.137  -1.066  0.00  0.00    +0.207 C 
BRANCH  20  22
ATOM     22  O   LIG    1        4.574  -0.677  -0.690  0.00  0.00    -0.361 OA
ATOM     23  H   LIG    1        5.486  -0.291  -0.654  0.00  0.00    +0.213 HD
ENDBRANCH  20  22
BRANCH  21  24
ATOM     24  O   LIG    1        2.201  -1.067  -1.713  0.00  0.00    -0.384 OA
ATOM     25  H   LIG    1        2.276  -1.013  -2.696  0.00  0.00    +0.210 HD
ENDBRANCH  21  24
BRANCH  18  26
ATOM     26  C   LIG    1        2.526  -1.690   1.306  0.00  0.00    +0.190 C 
BRANCH  26  27
ATOM     27  O   LIG    1        1.343  -2.357   1.619  0.00  0.00    -0.392 OA
ATOM     28  H   LIG    1        1.117  -2.977   0.885  0.00  0.00    +0.210 HD
ENDBRANCH  26  27
ENDBRANCH  18  26
BRANCH  20  29
ATOM     29  C   LIG    1        4.298   1.655  -0.864  0.00  0.00    +0.223 C 
BRANCH  29  30
ATOM     30  O   LIG    1        3.402   2.694  -0.547  0.00  0.00    -0.390 OA
ATOM     31  H   LIG    1        3.871   3.553  -0.553  0.00  0.00    +0.210 HD
ENDBRANCH  29  30
ENDBRANCH  20  29
ENDBRANCH   1  17
TORSDOF 13
