REMARK  Name = molecules/JDOZJEUDSLGTLU-VWUMJDOOSA-N.pdb
REMARK                            x       y       z     vdW  Elec       q    Type
REMARK                         _______ _______ _______ _____ _____    ______ ____
ROOT
ATOM      1  C   LIG    1        0.854   0.109  -2.049  0.00  0.00    +0.015 C 
ATOM      2  C   LIG    1        0.847   0.138  -0.541  0.00  0.00    +0.009 C 
ATOM      3  C   LIG    1        0.464  -1.147   0.083  0.00  0.00    +0.041 C 
ATOM      4  C   LIG    1       -0.998  -1.415  -0.216  0.00  0.00    +0.120 C 
ATOM      5  C   LIG    1       -1.846  -0.310   0.304  0.00  0.00    +0.035 C 
ATOM      6  C   LIG    1       -3.331  -0.539   0.164  0.00  0.00    +0.013 C 
ATOM      7  C   LIG    1       -3.984   0.521   0.960  0.00  0.00    -0.056 C 
ATOM      8  C   LIG    1       -4.863   0.245   1.877  0.00  0.00    +0.051 C 
ATOM      9  C   LIG    1       -5.284  -1.107   2.209  0.00  0.00    +0.179 C 
ATOM     10  O   LIG    1       -6.136  -1.361   3.096  0.00  0.00    -0.288 OA
ATOM     11  C   LIG    1       -4.634  -2.165   1.423  0.00  0.00    +0.047 C 
ATOM     12  C   LIG    1       -3.630   1.955   0.757  0.00  0.00    +0.032 C 
ATOM     13  C   LIG    1       -2.177   2.155   0.491  0.00  0.00    +0.008 C 
ATOM     14  C   LIG    1       -3.745  -1.880   0.495  0.00  0.00    -0.012 C 
ATOM     15  C   LIG    1       -3.794  -0.279  -1.272  0.00  0.00    +0.020 C 
ATOM     16  C   LIG    1       -1.482   1.049  -0.262  0.00  0.00    -0.000 C 
ATOM     17  C   LIG    1       -0.022   1.239   0.009  0.00  0.00    +0.002 C 
ATOM     18  C   LIG    1        0.590   2.454  -0.571  0.00  0.00    +0.008 C 
ATOM     19  C   LIG    1        2.076   2.125  -0.554  0.00  0.00    +0.043 C 
ATOM     20  C   LIG    1        2.187   0.680  -0.088  0.00  0.00    +0.132 C 
ENDROOT
BRANCH   4  21
ATOM     21  O   LIG    1       -1.216  -1.752  -1.529  0.00  0.00    -0.391 OA
ATOM     22  H   LIG    1       -0.564  -2.392  -1.848  0.00  0.00    +0.210 HD
ENDBRANCH   4  21
BRANCH  20  23
ATOM     23  O   LIG    1        2.182   0.726   1.312  0.00  0.00    -0.380 OA
ATOM     24  H   LIG    1        2.861   1.403   1.603  0.00  0.00    +0.211 HD
ENDBRANCH  20  23
BRANCH  20  25
ATOM     25  C   LIG    1        3.331  -0.029  -0.633  0.00  0.00    +0.191 C 
ATOM     26  O   LIG    1        3.502  -0.168  -1.825  0.00  0.00    -0.292 OA
BRANCH  25  27
ATOM     27  C   LIG    1        4.330  -0.605   0.305  0.00  0.00    +0.249 C 
BRANCH  27  28
ATOM     28  O   LIG    1        5.364  -1.250  -0.366  0.00  0.00    -0.279 OA
BRANCH  28  29
ATOM     29  P   LIG    1        6.426  -1.858   0.808  0.00  0.00    +0.473 P 
ATOM     30  O   LIG    1        5.582  -2.427   1.921  0.00  0.00    -0.228 OA
BRANCH  29  31
ATOM     31  O   LIG    1        7.277  -0.535   1.433  0.00  0.00    -0.303 OA
ATOM     32  H   LIG    1        7.494   0.130   0.749  0.00  0.00    +0.222 HD
ENDBRANCH  29  31
BRANCH  29  33
ATOM     33  O   LIG    1        7.460  -3.014   0.176  0.00  0.00    -0.303 OA
ATOM     34  H   LIG    1        8.282  -2.562  -0.121  0.00  0.00    +0.222 HD
ENDBRANCH  29  33
ENDBRANCH  28  29
ENDBRANCH  27  28
ENDBRANCH  25  27
ENDBRANCH  20  25
TORSDOF 8
