REMARK  Name = molecules/JEJBJBKVPOWOQK-QGZVFWFLSA-N.pdb
REMARK                            x       y       z     vdW  Elec       q    Type
REMARK                         _______ _______ _______ _____ _____    ______ ____
ROOT
ATOM      1  C   LIG    1       -0.731   0.413   0.388  0.00  0.00    +0.047 C 
ENDROOT
BRANCH   1   4
ATOM      2  C   LIG    1       -2.571   3.214   2.068  0.00  0.00    +0.000 A 
ATOM      3  C   LIG    1       -1.700   2.192   1.782  0.00  0.00    +0.004 A 
ATOM      4  C   LIG    1       -1.744   1.510   0.572  0.00  0.00    -0.040 A 
ATOM      5  C   LIG    1       -2.667   1.854  -0.362  0.00  0.00    +0.004 A 
ATOM      6  C   LIG    1       -3.551   2.893  -0.071  0.00  0.00    +0.000 A 
ATOM      7  C   LIG    1       -3.516   3.575   1.126  0.00  0.00    +0.000 A 
ENDBRANCH   1   4
BRANCH   1   8
ATOM      8  C   LIG    1       -1.365  -0.917   0.590  0.00  0.00    -0.040 A 
ATOM      9  C   LIG    1       -1.389  -1.461   1.856  0.00  0.00    +0.004 A 
ATOM     10  C   LIG    1       -1.959  -2.689   2.124  0.00  0.00    +0.000 A 
ATOM     11  C   LIG    1       -2.538  -3.435   1.119  0.00  0.00    +0.000 A 
ATOM     12  C   LIG    1       -2.522  -2.904  -0.153  0.00  0.00    +0.000 A 
ATOM     13  C   LIG    1       -1.944  -1.665  -0.412  0.00  0.00    +0.004 A 
ENDBRANCH   1   8
BRANCH   1  14
ATOM     14  C   LIG    1       -0.108   0.585  -0.950  0.00  0.00    -0.002 C 
BRANCH  14  15
ATOM     15  C   LIG    1        0.933  -0.386  -1.349  0.00  0.00    -0.068 C 
ATOM     16  C   LIG    1        1.283  -0.090  -2.816  0.00  0.00    -0.013 C 
BRANCH  15  17
ATOM     17  N   LIG    1        2.111  -0.482  -0.564  0.00  0.00    +0.378 N 
ATOM     18  C   LIG    1        1.996  -1.351   0.555  0.00  0.00    -0.092 C 
ATOM     19  C   LIG    1        3.114  -1.144  -1.452  0.00  0.00    -0.092 C 
BRANCH  17  20
ATOM     20  C   LIG    1        2.682   0.807  -0.297  0.00  0.00    -0.079 C 
ATOM     21  C   LIG    1        3.955   0.720   0.518  0.00  0.00    -0.016 C 
ENDBRANCH  17  20
ENDBRANCH  15  17
ENDBRANCH  14  15
ENDBRANCH   1  14
TORSDOF 6
