REMARK  Name = molecules/JFIOVJDNOJYLKP-UHFFFAOYSA-N.pdb
REMARK                            x       y       z     vdW  Elec       q    Type
REMARK                         _______ _______ _______ _____ _____    ______ ____
ROOT
ATOM      1  S   LIG    1       -0.169   1.319   0.978  0.00  0.00    -0.082 S 
ENDROOT
BRANCH   1   2
ATOM      2  C   LIG    1        1.396   0.665   0.457  0.00  0.00    +0.057 A 
ATOM      3  C   LIG    1        2.139  -0.233   1.168  0.00  0.00    +0.149 A 
ATOM      4  C   LIG    1        3.371  -0.694   0.693  0.00  0.00    +0.085 A 
ATOM      5 CL   LIG    1        4.268  -1.856   1.675  0.00  0.00    -0.080 Cl
ATOM      6  C   LIG    1        3.879  -0.260  -0.507  0.00  0.00    +0.043 A 
ATOM      7  C   LIG    1        3.138   0.645  -1.230  0.00  0.00    +0.044 A 
ATOM      8 CL   LIG    1        3.801   1.188  -2.758  0.00  0.00    -0.083 Cl
ATOM      9  C   LIG    1        1.943   1.085  -0.758  0.00  0.00    +0.038 A 
BRANCH   3  10
ATOM     10  O   LIG    1        1.719  -0.714   2.373  0.00  0.00    -0.504 OA
ATOM     11  H   LIG    1        0.914  -0.502   2.886  0.00  0.00    +0.292 HD
ENDBRANCH   3  10
ENDBRANCH   1   2
BRANCH   1  12
ATOM     12  C   LIG    1       -1.559   0.493   0.217  0.00  0.00    +0.057 A 
ATOM     13  C   LIG    1       -2.265  -0.456   0.894  0.00  0.00    +0.149 A 
ATOM     14  C   LIG    1       -3.349  -1.065   0.252  0.00  0.00    +0.085 A 
ATOM     15 CL   LIG    1       -4.270  -2.298   1.119  0.00  0.00    -0.080 Cl
ATOM     16  C   LIG    1       -3.683  -0.700  -1.033  0.00  0.00    +0.043 A 
ATOM     17  C   LIG    1       -2.953   0.259  -1.685  0.00  0.00    +0.044 A 
ATOM     18 CL   LIG    1       -3.432   0.684  -3.333  0.00  0.00    -0.083 Cl
ATOM     19  C   LIG    1       -1.881   0.878  -1.087  0.00  0.00    +0.038 A 
BRANCH  13  20
ATOM     20  O   LIG    1       -2.025  -0.890   2.179  0.00  0.00    -0.504 OA
ATOM     21  H   LIG    1       -1.334  -0.566   2.806  0.00  0.00    +0.292 HD
ENDBRANCH  13  20
ENDBRANCH   1  12
TORSDOF 4
