REMARK  Name = molecules/JFOZKMSJYSPYLN-QHCPKHFHSA-N.pdb
REMARK                            x       y       z     vdW  Elec       q    Type
REMARK                         _______ _______ _______ _____ _____    ______ ____
ROOT
ATOM      1  C   LIG    1        5.845   1.265  -1.086  0.00  0.00    +0.247 C 
ATOM      2  O   LIG    1        5.891   2.531  -1.419  0.00  0.00    -0.270 OA
ATOM      3  N   LIG    1        4.763   0.595  -1.616  0.00  0.00    -0.293 N 
ATOM      4  C   LIG    1        4.479  -0.800  -1.553  0.00  0.00    +0.113 C 
ATOM      5  C   LIG    1        3.398  -0.952  -0.471  0.00  0.00    +0.056 C 
ATOM      6  C   LIG    1        2.244  -0.140  -1.005  0.00  0.00    -0.022 A 
ATOM      7  C   LIG    1        0.946  -0.459  -0.590  0.00  0.00    +0.058 A 
ATOM      8 CL   LIG    1        0.779  -1.830   0.513  0.00  0.00    -0.082 Cl
ATOM      9  C   LIG    1       -0.180   0.204  -1.007  0.00  0.00    +0.074 A 
ATOM     10  C   LIG    1        0.034   1.264  -1.912  0.00  0.00    +0.055 A 
ATOM     11  C   LIG    1        1.300   1.576  -2.318  0.00  0.00    +0.026 A 
ATOM     12 CL   LIG    1       -1.367   2.161  -2.485  0.00  0.00    -0.083 Cl
ATOM     13  C   LIG    1        2.418   0.898  -1.887  0.00  0.00    -0.024 A 
ATOM     14  C   LIG    1        3.740   1.347  -2.410  0.00  0.00    +0.143 C 
ENDROOT
BRANCH   1  22
ATOM     15  C   LIG    1        9.141   1.196   0.657  0.00  0.00    +0.012 A 
ATOM     16  C   LIG    1        9.170  -0.016   1.304  0.00  0.00    +0.020 A 
ATOM     17  C   LIG    1       10.097  -0.655   2.096  0.00  0.00    +0.049 A 
ATOM     18  C   LIG    1        9.502  -1.854   2.427  0.00  0.00    +0.196 A 
ATOM     19  O   LIG    1        8.317  -1.909   1.869  0.00  0.00    -0.463 OA
ATOM     20  C   LIG    1        8.072  -0.821   1.179  0.00  0.00    +0.135 A 
ATOM     21  C   LIG    1        6.965  -0.410   0.417  0.00  0.00    +0.060 A 
ATOM     22  C   LIG    1        6.921   0.788  -0.233  0.00  0.00    +0.040 A 
ATOM     23  C   LIG    1        8.065   1.607  -0.091  0.00  0.00    +0.014 A 
ENDBRANCH   1  22
BRANCH   9  24
ATOM     24  C   LIG    1       -1.543  -0.100  -0.625  0.00  0.00    +0.248 C 
ATOM     25  N   LIG    1       -1.973  -0.886   0.444  0.00  0.00    -0.298 N 
ATOM     26  H   LIG    1       -1.372  -1.357   1.149  0.00  0.00    +0.150 HD
ATOM     27  O   LIG    1       -2.462   0.416  -1.354  0.00  0.00    -0.270 OA
BRANCH  25  28
ATOM     28  CA  LIG    1       -3.408  -1.093   0.674  0.00  0.00    +0.186 C 
BRANCH  28  29
ATOM     29  C   LIG    1       -4.029  -1.726  -0.497  0.00  0.00    +0.326 C 
ATOM     30  O   LIG    1       -3.326  -2.002  -1.536  0.00  0.00    -0.249 OA
BRANCH  29  31
ATOM     31  OXT LIG    1       -5.364  -2.072  -0.588  0.00  0.00    -0.479 OA
ATOM     32  HXT LIG    1       -5.886  -2.116  -1.436  0.00  0.00    +0.295 HD
ENDBRANCH  29  31
ENDBRANCH  28  29
BRANCH  28  33
ATOM     33  C   LIG    1       -4.074   0.177   1.102  0.00  0.00    +0.069 C 
BRANCH  33  34
ATOM     34  C   LIG    1       -5.517  -0.066   1.327  0.00  0.00    -0.043 A 
ATOM     35  C   LIG    1       -5.918  -0.532   2.586  0.00  0.00    +0.004 A 
ATOM     36  C   LIG    1       -7.252  -0.748   2.842  0.00  0.00    +0.002 A 
ATOM     37  C   LIG    1       -8.235  -0.517   1.884  0.00  0.00    +0.027 A 
ATOM     38  C   LIG    1       -7.849  -0.057   0.643  0.00  0.00    +0.088 A 
ATOM     39  C   LIG    1       -6.510   0.150   0.413  0.00  0.00    +0.030 A 
BRANCH  38  40
ATOM     40  S   LIG    1       -9.090   0.229  -0.550  0.00  0.00    -0.006 S 
ATOM     41  O   LIG    1      -10.218  -0.742  -0.339  0.00  0.00    -0.170 OA
ATOM     42  C   LIG    1       -9.710   1.887  -0.475  0.00  0.00    +0.200 C 
ATOM     43  O   LIG    1       -8.521   0.005  -1.909  0.00  0.00    -0.170 OA
ENDBRANCH  38  40
ENDBRANCH  33  34
ENDBRANCH  28  33
ENDBRANCH  25  28
ENDBRANCH   9  24
TORSDOF 8
