REMARK  Name = molecules/JFVZFKDSXNQEJW-CQSZACIVSA-N.pdb
REMARK                            x       y       z     vdW  Elec       q    Type
REMARK                         _______ _______ _______ _____ _____    ______ ____
ROOT
ATOM      1  P   LIG    1        0.046   0.593   1.331  0.00  0.00    +0.364 P 
ATOM      2  O   LIG    1       -1.346   0.437   0.790  0.00  0.00    -0.256 OA
ENDROOT
BRANCH   1   3
ATOM      3  C   LIG    1        1.259   0.758  -0.034  0.00  0.00    +0.287 C 
BRANCH   3   4
ATOM      4  O   LIG    1        1.137  -0.365  -0.814  0.00  0.00    -0.363 OA
BRANCH   4   5
ATOM      5  C   LIG    1        1.978  -0.417  -1.897  0.00  0.00    +0.136 C 
ATOM      6  C   LIG    1        1.287  -0.447  -3.226  0.00  0.00    +0.040 C 
BRANCH   5   7
ATOM      7  C   LIG    1        3.010  -1.545  -1.785  0.00  0.00    +0.156 C 
BRANCH   7   8
ATOM      8  N   LIG    1        3.834  -1.363  -0.606  0.00  0.00    -0.312 N 
ATOM      9  C   LIG    1        3.640  -1.819   0.643  0.00  0.00    +0.201 A 
ATOM     10  N   LIG    1        4.666  -1.413   1.445  0.00  0.00    -0.231 NA
ATOM     11  C   LIG    1        5.521  -0.690   0.700  0.00  0.00    +0.147 A 
ATOM     12  C   LIG    1        6.708  -0.044   0.982  0.00  0.00    +0.147 A 
ATOM     13  N   LIG    1        7.318   0.601  -0.027  0.00  0.00    -0.219 NA
ATOM     14  C   LIG    1        6.802   0.626  -1.276  0.00  0.00    +0.225 A 
ATOM     15  N   LIG    1        5.653  -0.009  -1.514  0.00  0.00    -0.216 NA
ATOM     16  C   LIG    1        4.988  -0.670  -0.568  0.00  0.00    +0.165 A 
BRANCH  12  17
ATOM     17  N   LIG    1        7.275  -0.051   2.281  0.00  0.00    -0.341 N 
ATOM     18  H   LIG    1        6.871   0.432   3.107  0.00  0.00    +0.144 HD
ATOM     19  H   LIG    1        8.162  -0.579   2.421  0.00  0.00    +0.144 HD
ENDBRANCH  12  17
ENDBRANCH   7   8
ENDBRANCH   5   7
ENDBRANCH   4   5
ENDBRANCH   3   4
ENDBRANCH   1   3
BRANCH   1  20
ATOM     20  O   LIG    1        0.176   1.948   2.337  0.00  0.00    -0.268 OA
BRANCH  20  21
ATOM     21  C   LIG    1        0.682   2.994   1.578  0.00  0.00    +0.410 C 
BRANCH  21  22
ATOM     22  O   LIG    1       -0.231   3.223   0.522  0.00  0.00    -0.406 OA
BRANCH  22  23
ATOM     23  C   LIG    1       -1.543   3.569   0.738  0.00  0.00    +0.512 C 
ATOM     24  O   LIG    1       -1.946   3.688   1.921  0.00  0.00    -0.203 OA
BRANCH  23  25
ATOM     25  O   LIG    1       -2.450   3.797  -0.280  0.00  0.00    -0.431 OA
BRANCH  25  26
ATOM     26  C   LIG    1       -3.787   4.150  -0.109  0.00  0.00    +0.174 C 
ATOM     27  C   LIG    1       -4.118   5.513  -0.673  0.00  0.00    +0.052 C 
ATOM     28  C   LIG    1       -4.737   3.137  -0.684  0.00  0.00    +0.052 C 
ENDBRANCH  25  26
ENDBRANCH  23  25
ENDBRANCH  22  23
ENDBRANCH  21  22
ENDBRANCH  20  21
ENDBRANCH   1  20
BRANCH   1  29
ATOM     29  O   LIG    1        0.496  -0.754   2.254  0.00  0.00    -0.268 OA
BRANCH  29  30
ATOM     30  C   LIG    1       -0.011  -1.876   1.655  0.00  0.00    +0.410 C 
BRANCH  30  31
ATOM     31  O   LIG    1       -1.444  -1.834   1.564  0.00  0.00    -0.406 OA
BRANCH  31  32
ATOM     32  C   LIG    1       -2.174  -2.845   1.002  0.00  0.00    +0.512 C 
ATOM     33  O   LIG    1       -1.579  -3.846   0.550  0.00  0.00    -0.203 OA
BRANCH  32  34
ATOM     34  O   LIG    1       -3.564  -2.838   0.897  0.00  0.00    -0.431 OA
BRANCH  34  35
ATOM     35  C   LIG    1       -4.255  -3.936   0.296  0.00  0.00    +0.174 C 
ATOM     36  C   LIG    1       -5.240  -4.566   1.226  0.00  0.00    +0.052 C 
ATOM     37  C   LIG    1       -4.914  -3.383  -0.960  0.00  0.00    +0.052 C 
ENDBRANCH  34  35
ENDBRANCH  32  34
ENDBRANCH  31  32
ENDBRANCH  30  31
ENDBRANCH  29  30
ENDBRANCH   1  29
TORSDOF 18
