REMARK  Name = molecules/JFXBEKISTKFVAB-AJQTZOPKSA-N.pdb
REMARK                            x       y       z     vdW  Elec       q    Type
REMARK                         _______ _______ _______ _____ _____    ______ ____
ROOT
ATOM      1  C   LIG    1        4.183  -3.094   0.617  0.00  0.00    +0.204 A 
ATOM      2  C   LIG    1        5.519  -2.925   0.985  0.00  0.00    +0.165 A 
ATOM      3  C   LIG    1        6.036  -1.671   1.019  0.00  0.00    +0.053 A 
ATOM      4  C   LIG    1        5.215  -0.620   0.690  0.00  0.00    -0.040 A 
ATOM      5  C   LIG    1        5.830   0.735   0.721  0.00  0.00    +0.017 C 
ATOM      6  C   LIG    1        5.281   1.542  -0.384  0.00  0.00    -0.070 C 
ATOM      7  N   LIG    1        4.056   1.116  -0.982  0.00  0.00    +0.381 N 
ATOM      8  C   LIG    1        3.139   0.504  -0.005  0.00  0.00    -0.027 C 
ATOM      9  C   LIG    1        2.903   1.406   1.174  0.00  0.00    +0.025 C 
ATOM     10  C   LIG    1        1.631   2.144   1.215  0.00  0.00    -0.045 A 
ATOM     11  C   LIG    1        0.312   1.776   1.343  0.00  0.00    +0.053 A 
ATOM     12  C   LIG    1       -0.750   2.674   1.336  0.00  0.00    +0.170 A 
ATOM     13  O   LIG    1       -2.107   2.490   1.443  0.00  0.00    -0.449 OA
ATOM     14  C   LIG    1       -3.130   1.619   1.073  0.00  0.00    +0.170 A 
ATOM     15  C   LIG    1       -4.382   2.200   1.376  0.00  0.00    +0.162 A 
ATOM     16  C   LIG    1       -5.564   1.577   1.125  0.00  0.00    +0.053 A 
ATOM     17  C   LIG    1       -5.459   0.336   0.554  0.00  0.00    -0.044 A 
ATOM     18  C   LIG    1       -4.215  -0.286   0.237  0.00  0.00    -0.053 A 
ATOM     19  C   LIG    1       -4.521  -1.639  -0.348  0.00  0.00    -0.030 C 
ATOM     20  C   LIG    1       -3.620  -2.761  -0.295  0.00  0.00    +0.025 C 
ATOM     21  C   LIG    1       -2.134  -2.581  -0.177  0.00  0.00    -0.048 A 
ATOM     22  C   LIG    1       -1.445  -2.699   1.008  0.00  0.00    +0.007 A 
ATOM     23  C   LIG    1       -0.036  -2.600   1.058  0.00  0.00    +0.046 A 
ATOM     24  C   LIG    1        0.757  -2.381  -0.052  0.00  0.00    +0.129 A 
ATOM     25  O   LIG    1        2.106  -2.295  -0.050  0.00  0.00    -0.452 OA
ATOM     26  C   LIG    1        0.039  -2.259  -1.231  0.00  0.00    +0.046 A 
ATOM     27  C   LIG    1       -1.366  -2.355  -1.297  0.00  0.00    +0.007 A 
ATOM     28  N   LIG    1       -5.178  -1.308  -1.605  0.00  0.00    +0.381 N 
ATOM     29  C   LIG    1       -6.532  -0.849  -1.280  0.00  0.00    -0.070 C 
ATOM     30  C   LIG    1       -4.526  -0.291  -2.353  0.00  0.00    -0.091 C 
ATOM     31  C   LIG    1       -5.361  -2.505  -2.386  0.00  0.00    -0.091 C 
ATOM     32  C   LIG    1       -6.672  -0.443   0.152  0.00  0.00    +0.017 C 
ATOM     33  C   LIG    1       -3.033   0.360   0.496  0.00  0.00    +0.052 A 
ATOM     34  C   LIG    1       -0.393   4.041   1.190  0.00  0.00    +0.162 A 
ATOM     35  C   LIG    1        0.884   4.487   1.060  0.00  0.00    +0.050 A 
ATOM     36  C   LIG    1        1.861   3.519   1.076  0.00  0.00    +0.007 A 
ATOM     37  C   LIG    1        3.498   2.235  -1.663  0.00  0.00    -0.091 C 
ATOM     38  C   LIG    1        4.351   0.087  -1.979  0.00  0.00    -0.091 C 
ATOM     39  C   LIG    1        3.905  -0.746   0.329  0.00  0.00    -0.011 A 
ATOM     40  C   LIG    1        3.330  -2.032   0.279  0.00  0.00    +0.175 A 
ENDROOT
BRANCH   1  41
ATOM     41  O   LIG    1        3.772  -4.441   0.618  0.00  0.00    -0.488 OA
ATOM     42  C   LIG    1        3.229  -5.037   1.762  0.00  0.00    +0.277 C 
ENDBRANCH   1  41
BRANCH   2  43
ATOM     43  O   LIG    1        6.292  -4.032   1.306  0.00  0.00    -0.491 OA
ATOM     44  C   LIG    1        7.609  -4.046   1.687  0.00  0.00    +0.277 C 
ENDBRANCH   2  43
BRANCH  15  45
ATOM     45  O   LIG    1       -4.488   3.478   1.965  0.00  0.00    -0.491 OA
ATOM     46  C   LIG    1       -5.741   4.047   2.262  0.00  0.00    +0.277 C 
ENDBRANCH  15  45
BRANCH  34  47
ATOM     47  O   LIG    1       -1.397   5.045   1.175  0.00  0.00    -0.491 OA
ATOM     48  C   LIG    1       -1.023   6.385   1.035  0.00  0.00    +0.277 C 
ENDBRANCH  34  47
TORSDOF 4
