REMARK  Name = molecules/JGTJANXYSNVLMQ-GOSISDBHSA-N.pdb
REMARK                            x       y       z     vdW  Elec       q    Type
REMARK                         _______ _______ _______ _____ _____    ______ ____
ROOT
ATOM      1  C   LIG    1       -1.424  -0.171  -0.504  0.00  0.00    +0.197 C 
ENDROOT
BRANCH   1   2
ATOM      2  C   LIG    1       -1.963  -1.452   0.003  0.00  0.00    -0.020 A 
ATOM      3  C   LIG    1       -2.636  -1.585   1.193  0.00  0.00    +0.006 A 
ATOM      4  C   LIG    1       -3.116  -2.832   1.614  0.00  0.00    +0.000 A 
ATOM      5  C   LIG    1       -2.928  -3.961   0.848  0.00  0.00    +0.000 A 
ATOM      6  C   LIG    1       -2.254  -3.850  -0.351  0.00  0.00    +0.000 A 
ATOM      7  C   LIG    1       -1.801  -2.628  -0.732  0.00  0.00    +0.006 A 
ENDBRANCH   1   2
BRANCH   1   8
ATOM      8  N   LIG    1       -2.251   0.955  -0.482  0.00  0.00    -0.286 NA
ATOM      9  C   LIG    1       -2.569   1.642   0.686  0.00  0.00    +0.085 C 
ATOM     10  C   LIG    1       -4.053   1.708   1.002  0.00  0.00    +0.015 C 
ATOM     11  C   LIG    1       -4.713   2.325  -0.234  0.00  0.00    +0.002 C 
ATOM     12  C   LIG    1       -4.540   1.276  -1.339  0.00  0.00    +0.015 C 
ATOM     13  C   LIG    1       -3.062   1.199  -1.627  0.00  0.00    +0.085 C 
ENDBRANCH   1   8
BRANCH   1  14
ATOM     14  C   LIG    1       -0.053   0.122  -0.008  0.00  0.00    +0.329 C 
ATOM     15  O   LIG    1        0.275   1.262   0.362  0.00  0.00    -0.249 OA
BRANCH  14  16
ATOM     16  O   LIG    1        0.863  -0.900   0.038  0.00  0.00    -0.462 OA
BRANCH  16  17
ATOM     17  C   LIG    1        2.184  -0.822   0.465  0.00  0.00    +0.247 C 
BRANCH  17  18
ATOM     18  C   LIG    1        2.938   0.143  -0.409  0.00  0.00    +0.125 C 
BRANCH  18  19
ATOM     19  N   LIG    1        4.302   0.297  -0.059  0.00  0.00    -0.300 NA
BRANCH  19  20
ATOM     20  C   LIG    1        4.616   1.190   0.997  0.00  0.00    +0.081 C 
ATOM     21  C   LIG    1        4.324   2.605   0.552  0.00  0.00    +0.020 C 
ENDBRANCH  19  20
BRANCH  19  22
ATOM     22  C   LIG    1        5.163  -0.812  -0.259  0.00  0.00    +0.081 C 
ATOM     23  C   LIG    1        5.332  -1.064  -1.741  0.00  0.00    +0.020 C 
ENDBRANCH  19  22
ENDBRANCH  18  19
ENDBRANCH  17  18
ENDBRANCH  16  17
ENDBRANCH  14  16
ENDBRANCH   1  14
TORSDOF 9
