REMARK  Name = molecules/JGWRKYUXBBNENE-UHFFFAOYSA-N.pdb
REMARK                            x       y       z     vdW  Elec       q    Type
REMARK                         _______ _______ _______ _____ _____    ______ ____
ROOT
ATOM      1  C   LIG    1        0.895   0.035  -0.270  0.00  0.00    +0.119 A 
ATOM      2  N   LIG    1        0.015   1.068  -0.193  0.00  0.00    -0.240 NA
ATOM      3  C   LIG    1       -1.184   1.035  -0.760  0.00  0.00    +0.116 A 
ATOM      4  C   LIG    1       -1.584  -0.104  -1.481  0.00  0.00    -0.025 A 
ATOM      5  C   LIG    1       -0.685  -1.121  -1.571  0.00  0.00    +0.009 A 
ATOM      6  C   LIG    1        0.525  -1.113  -0.965  0.00  0.00    +0.044 A 
ENDROOT
BRANCH   1   7
ATOM      7  N   LIG    1        2.200   0.101   0.195  0.00  0.00    -0.325 N 
ATOM      8  H   LIG    1        2.800   0.884  -0.158  0.00  0.00    +0.148 HD
BRANCH   7   9
ATOM      9  C   LIG    1        2.776  -0.970   1.030  0.00  0.00    +0.139 C 
BRANCH   9  12
ATOM     10  N   LIG    1        5.790   0.842   2.207  0.00  0.00    -0.251 NA
ATOM     11  C   LIG    1        4.467   0.437   2.171  0.00  0.00    +0.116 A 
ATOM     12  C   LIG    1        4.194  -0.458   1.166  0.00  0.00    -0.012 A 
ATOM     13  C   LIG    1        5.082  -0.927   0.263  0.00  0.00    +0.009 A 
ATOM     14  C   LIG    1        6.400  -0.497   0.332  0.00  0.00    +0.032 A 
ATOM     15  C   LIG    1        6.686   0.425   1.334  0.00  0.00    +0.144 A 
BRANCH  15  16
ATOM     16  C   LIG    1        8.035   1.109   1.286  0.00  0.00    +0.434 C 
ATOM     17  F   LIG    1        8.667   1.185   2.473  0.00  0.00    -0.164 F 
ATOM     18  F   LIG    1        7.807   2.445   0.850  0.00  0.00    -0.164 F 
ATOM     19  F   LIG    1        8.809   0.530   0.318  0.00  0.00    -0.164 F 
ENDBRANCH  15  16
ENDBRANCH   9  12
ENDBRANCH   7   9
ENDBRANCH   1   7
BRANCH   4  20
ATOM     20  C   LIG    1       -2.987  -0.197  -1.874  0.00  0.00    +0.074 C 
BRANCH  20  21
ATOM     21  C   LIG    1       -3.820   0.006  -0.643  0.00  0.00    -0.016 A 
ATOM     22  C   LIG    1       -3.489  -0.209   0.654  0.00  0.00    +0.089 A 
ATOM     23  N   LIG    1       -4.566   0.064   1.452  0.00  0.00    -0.346 N 
ATOM     24  H   LIG    1       -4.583   0.089   2.492  0.00  0.00    +0.167 HD
ATOM     25  C   LIG    1       -5.608   0.423   0.656  0.00  0.00    +0.138 A 
ATOM     26  N   LIG    1       -6.951   0.449   0.916  0.00  0.00    -0.236 NA
ATOM     27  C   LIG    1       -7.862   0.440  -0.093  0.00  0.00    +0.133 A 
ATOM     28  C   LIG    1       -7.392   0.415  -1.409  0.00  0.00    +0.060 A 
ATOM     29  C   LIG    1       -6.091   0.454  -1.617  0.00  0.00    +0.033 A 
ATOM     30 CL   LIG    1       -8.519  -0.002  -2.720  0.00  0.00    -0.082 Cl
ATOM     31  C   LIG    1       -5.132   0.417  -0.639  0.00  0.00    +0.024 A 
ENDBRANCH  20  21
ENDBRANCH   4  20
TORSDOF 6
