REMARK  Name = molecules/JHFNIHVVXRKLEF-DCZLAGFPSA-O.pdb
REMARK                            x       y       z     vdW  Elec       q    Type
REMARK                         _______ _______ _______ _____ _____    ______ ____
ROOT
ATOM      1  CA  LIG    1        0.076   0.701   1.691  0.00  0.00    +0.123 C 
ATOM      2  N   LIG    1       -0.695  -0.400   2.108  0.00  0.00    -0.249 N 
ATOM      3  C   LIG    1       -1.664  -1.047   2.995  0.00  0.00    +0.244 C 
ATOM      4  O   LIG    1       -1.901  -1.013   4.178  0.00  0.00    -0.273 OA
ATOM      5  CA  LIG    1       -2.228  -1.771   1.794  0.00  0.00    +0.191 C 
ATOM      6  C   LIG    1       -0.741  -1.684   1.433  0.00  0.00    +0.169 C 
ATOM      7  S   LIG    1       -0.287  -1.497  -0.257  0.00  0.00    -0.131 S 
ATOM      8  C   LIG    1        1.298  -0.564  -0.069  0.00  0.00    +0.105 C 
ATOM      9  C   LIG    1        0.970   0.703   0.746  0.00  0.00    -0.014 C 
ENDROOT
BRANCH   5  10
ATOM     10  N   LIG    1       -3.062  -0.901   0.998  0.00  0.00    -0.296 N 
ATOM     11  H   LIG    1       -2.756   0.116   1.069  0.00  0.00    +0.150 HD
ATOM     12  C   LIG    1       -4.142  -1.201   0.200  0.00  0.00    +0.270 C 
ATOM     13  O   LIG    1       -4.466  -2.437   0.117  0.00  0.00    -0.268 OA
BRANCH  12  14
ATOM     14  C   LIG    1       -4.920  -0.253  -0.524  0.00  0.00    +0.208 C 
ATOM     15  N   LIG    1       -5.914  -0.692  -1.240  0.00  0.00    -0.075 NA
BRANCH  14  16
ATOM     16  C   LIG    1       -4.727   1.233  -0.490  0.00  0.00    +0.197 A 
ATOM     17  N   LIG    1       -3.637   1.775   0.044  0.00  0.00    -0.185 NA
ATOM     18  S   LIG    1       -3.887   3.427  -0.079  0.00  0.00    +0.049 S 
ATOM     19  C   LIG    1       -5.427   3.369  -0.836  0.00  0.00    +0.176 A 
ATOM     20  N   LIG    1       -5.637   2.076  -0.938  0.00  0.00    -0.202 NA
BRANCH  19  21
ATOM     21  N   LIG    1       -6.285   4.453  -1.258  0.00  0.00    -0.336 N 
ATOM     22  H   LIG    1       -6.426   5.237  -0.599  0.00  0.00    +0.144 HD
ATOM     23  H   LIG    1       -6.755   4.468  -2.180  0.00  0.00    +0.144 HD
ENDBRANCH  19  21
ENDBRANCH  14  16
BRANCH  15  24
ATOM     24  O   LIG    1       -6.291  -2.000  -1.372  0.00  0.00    -0.376 OA
BRANCH  24  25
ATOM     25  C   LIG    1       -7.704  -2.217  -1.207  0.00  0.00    +0.228 C 
ATOM     26  C   LIG    1       -8.143  -3.594  -1.548  0.00  0.00    +0.070 C 
ATOM     27  C   LIG    1       -8.428  -1.247  -2.166  0.00  0.00    +0.070 C 
BRANCH  25  28
ATOM     28  C   LIG    1       -8.163  -1.842   0.152  0.00  0.00    +0.351 C 
ATOM     29  O   LIG    1       -7.367  -1.393   0.995  0.00  0.00    -0.246 OA
BRANCH  28  30
ATOM     30  O   LIG    1       -9.494  -2.005   0.462  0.00  0.00    -0.478 OA
ATOM     31  H   LIG    1       -9.898  -1.882   1.373  0.00  0.00    +0.295 HD
ENDBRANCH  28  30
ENDBRANCH  25  28
ENDBRANCH  24  25
ENDBRANCH  15  24
ENDBRANCH  12  14
ENDBRANCH   5  10
BRANCH   1  32
ATOM     32  C   LIG    1       -0.242   1.944   2.391  0.00  0.00    +0.351 C 
ATOM     33  O   LIG    1        0.273   3.034   2.146  0.00  0.00    -0.244 OA
BRANCH  32  34
ATOM     34  OXT LIG    1       -1.193   1.948   3.417  0.00  0.00    -0.476 OA
ATOM     35  HXT LIG    1       -1.260   2.652   4.121  0.00  0.00    +0.295 HD
ENDBRANCH  32  34
ENDBRANCH   1  32
BRANCH   9  36
ATOM     36  C   LIG    1        1.762   1.828   0.284  0.00  0.00    +0.163 C 
BRANCH  36  37
ATOM     37  N   LIG    1        3.211   1.578   0.501  0.00  0.00    -0.139 NA
ATOM     38  N   LIG    1        3.924   1.958   1.541  0.00  0.00    -0.145 N 
ATOM     39  C   LIG    1        3.442   2.766   2.677  0.00  0.00    +0.302 C 
ATOM     40  C   LIG    1        5.177   1.536   1.469  0.00  0.00    +0.292 C 
ATOM     41  C   LIG    1        5.307   0.814   0.276  0.00  0.00    +0.121 C 
ATOM     42  C   LIG    1        4.051   0.879  -0.280  0.00  0.00    +0.176 C 
BRANCH  41  43
ATOM     43  N   LIG    1        6.508   0.207  -0.116  0.00  0.00    -0.265 N 
ATOM     44  H   LIG    1        7.397   0.384   0.395  0.00  0.00    +0.156 HD
ATOM     45  C   LIG    1        6.641  -0.705  -1.252  0.00  0.00    +0.304 C 
ATOM     46  N   LIG    1        7.781  -1.283  -1.605  0.00  0.00    -0.298 N 
ATOM     47  H   LIG    1        7.181  -1.961  -2.627  0.00  0.00    +0.150 HD
ATOM     48  O   LIG    1        5.507  -0.866  -1.848  0.00  0.00    -0.253 OA
BRANCH  46  49
ATOM     49  C   LIG    1        8.992  -1.898  -1.980  0.00  0.00    +0.120 C 
BRANCH  49  50
ATOM     50  C   LIG    1        9.470  -1.643  -3.390  0.00  0.00    +0.096 C 
BRANCH  50  51
ATOM     51  N   LIG    1        9.668  -0.235  -3.598  0.00  0.00    -0.329 NA
ATOM     52  H   LIG    1       10.256   0.168  -2.821  0.00  0.00    +0.118 HD
ATOM     53  H   LIG    1       10.111  -0.028  -4.532  0.00  0.00    +0.118 HD
ENDBRANCH  50  51
ENDBRANCH  49  50
ENDBRANCH  46  49
ENDBRANCH  41  43
BRANCH  40  54
ATOM     54  N   LIG    1        6.249   1.741   2.392  0.00  0.00    -0.249 N 
ATOM     55  H   LIG    1        6.042   1.705   3.400  0.00  0.00    +0.288 HD
ATOM     56  H   LIG    1        7.209   1.918   2.067  0.00  0.00    +0.288 HD
ENDBRANCH  40  54
ENDBRANCH  36  37
ENDBRANCH   9  36
TORSDOF 17
