REMARK  Name = molecules/JIEKMACRVQTPRC-UHFFFAOYSA-N.pdb
REMARK                            x       y       z     vdW  Elec       q    Type
REMARK                         _______ _______ _______ _____ _____    ______ ____
ROOT
ATOM      1  C   LIG    1       -0.831   1.377  -0.108  0.00  0.00    +0.028 A 
ATOM      2  C   LIG    1       -0.757   0.020   0.020  0.00  0.00    +0.083 A 
ATOM      3  N   LIG    1        0.441  -0.508   0.076  0.00  0.00    -0.239 NA
ATOM      4  C   LIG    1        1.513   0.244   0.011  0.00  0.00    +0.109 A 
ATOM      5  S   LIG    1        0.822   1.823  -0.141  0.00  0.00    -0.071 S 
ENDROOT
BRANCH   2   6
ATOM      6  C   LIG    1       -1.968  -0.856   0.082  0.00  0.00    +0.001 A 
ATOM      7  C   LIG    1       -3.032  -0.586   0.899  0.00  0.00    +0.011 A 
ATOM      8  C   LIG    1       -4.149  -1.387   0.971  0.00  0.00    +0.020 A 
ATOM      9  C   LIG    1       -4.196  -2.530   0.172  0.00  0.00    +0.041 A 
ATOM     10 CL   LIG    1       -5.580  -3.600   0.204  0.00  0.00    -0.084 Cl
ATOM     11  C   LIG    1       -3.144  -2.836  -0.664  0.00  0.00    +0.020 A 
ATOM     12  C   LIG    1       -2.055  -1.996  -0.692  0.00  0.00    +0.011 A 
ENDBRANCH   2   6
BRANCH   4  13
ATOM     13  C   LIG    1        2.934  -0.125   0.054  0.00  0.00    +0.007 A 
ATOM     14  C   LIG    1        3.253  -1.445   0.158  0.00  0.00    +0.010 A 
ATOM     15  C   LIG    1        4.583  -1.863   0.196  0.00  0.00    +0.001 A 
ATOM     16  C   LIG    1        5.601  -0.937   0.130  0.00  0.00    +0.000 A 
ATOM     17  C   LIG    1        5.241   0.404   0.025  0.00  0.00    +0.001 A 
ATOM     18  C   LIG    1        3.923   0.814  -0.013  0.00  0.00    +0.010 A 
ENDBRANCH   4  13
BRANCH   1  19
ATOM     19  C   LIG    1       -2.014   2.265  -0.201  0.00  0.00    +0.165 C 
BRANCH  19  20
ATOM     20  C   LIG    1       -1.516   3.624  -0.562  0.00  0.00    +0.310 C 
ATOM     21  O   LIG    1       -0.297   3.837  -0.728  0.00  0.00    -0.251 OA
BRANCH  20  22
ATOM     22  O   LIG    1       -2.381   4.710  -0.727  0.00  0.00    -0.480 OA
ATOM     23  H   LIG    1       -2.515   5.360   0.043  0.00  0.00    +0.295 HD
ENDBRANCH  20  22
ENDBRANCH  19  20
ENDBRANCH   1  19
TORSDOF 5
