REMARK  Name = molecules/JIRBAUWICKGBFE-ISHFTEKXSA-N.pdb
REMARK                            x       y       z     vdW  Elec       q    Type
REMARK                         _______ _______ _______ _____ _____    ______ ____
ROOT
ATOM      1  C   LIG    1        0.801   0.893  -1.421  0.00  0.00    +0.213 C 
ENDROOT
BRANCH   1   2
ATOM      2  C   LIG    1        1.494   2.152  -1.862  0.00  0.00    -0.025 A 
ATOM      3  C   LIG    1        1.746   3.147  -0.970  0.00  0.00    +0.005 A 
ATOM      4  C   LIG    1        2.392   4.302  -1.411  0.00  0.00    +0.000 A 
ATOM      5  C   LIG    1        2.775   4.441  -2.739  0.00  0.00    +0.000 A 
ATOM      6  C   LIG    1        2.499   3.405  -3.605  0.00  0.00    +0.000 A 
ATOM      7  C   LIG    1        1.866   2.271  -3.179  0.00  0.00    +0.005 A 
ENDBRANCH   1   2
BRANCH   1   9
ATOM      8  N   LIG    1       -1.409   0.023  -0.651  0.00  0.00    -0.301 N 
ATOM      9  C   LIG    1       -0.509   1.142  -0.809  0.00  0.00    +0.232 C 
ATOM     10  O   LIG    1       -0.835   2.281  -0.446  0.00  0.00    -0.275 OA
ATOM     11  H   LIG    1       -1.126  -0.923  -0.958  0.00  0.00    +0.150 HD
BRANCH   8  12
ATOM     12  CA  LIG    1       -2.679   0.362  -0.049  0.00  0.00    +0.190 C 
ATOM     13  C   LIG    1       -3.328  -0.561   0.866  0.00  0.00    +0.240 C 
ATOM     14  O   LIG    1       -3.116  -0.830   2.091  0.00  0.00    -0.273 OA
ATOM     15  N   LIG    1       -4.253  -1.017  -0.113  0.00  0.00    -0.271 N 
ATOM     16  CA  LIG    1       -5.259  -1.807  -0.768  0.00  0.00    +0.201 C 
ATOM     17  C   LIG    1       -4.692  -2.289  -2.087  0.00  0.00    +0.042 C 
ATOM     18  C   LIG    1       -4.000  -3.616  -1.846  0.00  0.00    +0.025 C 
ATOM     19  S   LIG    1       -3.424  -0.993  -2.427  0.00  0.00    -0.127 S 
ATOM     20  C   LIG    1       -5.683  -2.361  -3.199  0.00  0.00    +0.025 C 
ATOM     21  C   LIG    1       -3.828   0.056  -0.975  0.00  0.00    +0.165 C 
BRANCH  16  22
ATOM     22  C   LIG    1       -6.470  -0.993  -0.971  0.00  0.00    +0.327 C 
ATOM     23  OXT LIG    1       -6.485   0.200  -0.590  0.00  0.00    -0.249 OA
BRANCH  22  24
ATOM     24  O   LIG    1       -7.647  -1.443  -1.568  0.00  0.00    -0.479 OA
ATOM     25  H   LIG    1       -8.147  -0.953  -2.284  0.00  0.00    +0.295 HD
ENDBRANCH  22  24
ENDBRANCH  16  22
ENDBRANCH   8  12
ENDBRANCH   1   9
BRANCH   1  26
ATOM     26  C   LIG    1        1.787   0.219  -0.522  0.00  0.00    +0.329 C 
ATOM     27  O   LIG    1        2.158  -0.968  -0.667  0.00  0.00    -0.249 OA
BRANCH  26  28
ATOM     28  O   LIG    1        2.298   0.981   0.514  0.00  0.00    -0.425 OA
BRANCH  28  29
ATOM     29  C   LIG    1        3.213   0.506   1.405  0.00  0.00    +0.132 A 
ATOM     30  C   LIG    1        2.855   0.146   2.671  0.00  0.00    +0.050 A 
ATOM     31  C   LIG    1        3.814  -0.327   3.539  0.00  0.00    -0.041 A 
ATOM     32  C   LIG    1        3.679  -0.761   4.965  0.00  0.00    +0.036 C 
ATOM     33  C   LIG    1        5.086  -0.513   5.473  0.00  0.00    +0.009 C 
ATOM     34  C   LIG    1        5.912  -0.983   4.310  0.00  0.00    +0.036 C 
ATOM     35  C   LIG    1        5.122  -0.448   3.159  0.00  0.00    -0.044 A 
ATOM     36  C   LIG    1        5.495  -0.092   1.885  0.00  0.00    +0.007 A 
ATOM     37  C   LIG    1        4.518   0.391   1.007  0.00  0.00    +0.046 A 
ENDBRANCH  28  29
ENDBRANCH  26  28
ENDBRANCH   1  26
TORSDOF 8
