REMARK  Name = molecules/JIVPVXMEBJLZRO-CQSZACIVSA-N.pdb
REMARK                            x       y       z     vdW  Elec       q    Type
REMARK                         _______ _______ _______ _____ _____    ______ ____
ROOT
ATOM      1  C   LIG    1        2.608  -0.312  -0.091  0.00  0.00    +0.124 A 
ATOM      2  C   LIG    1        1.425   0.084   0.496  0.00  0.00    +0.038 A 
ATOM      3  C   LIG    1        0.419  -0.794   0.825  0.00  0.00    +0.009 A 
ATOM      4  C   LIG    1        0.645  -2.141   0.534  0.00  0.00    +0.010 A 
ATOM      5  C   LIG    1        1.830  -2.532  -0.053  0.00  0.00    +0.022 A 
ATOM      6  C   LIG    1        2.833  -1.641  -0.378  0.00  0.00    +0.067 A 
ATOM      7 CL   LIG    1        4.332  -2.174  -1.127  0.00  0.00    -0.082 Cl
ENDROOT
BRANCH   3   8
ATOM      8  C   LIG    1       -0.867  -0.381   1.458  0.00  0.00    +0.187 C 
ATOM      9  N   LIG    1       -1.598  -1.568   1.879  0.00  0.00    -0.276 N 
ATOM     10  H   LIG    1       -1.185  -2.274   2.526  0.00  0.00    +0.152 HD
ATOM     11  C   LIG    1       -2.857  -1.530   1.263  0.00  0.00    +0.247 C 
ATOM     12  O   LIG    1       -3.755  -2.412   1.405  0.00  0.00    -0.270 OA
ATOM     13  C   LIG    1       -2.957  -0.342   0.458  0.00  0.00    +0.045 A 
ATOM     14  C   LIG    1       -3.982   0.139  -0.327  0.00  0.00    +0.013 A 
ATOM     15  C   LIG    1       -3.877   1.320  -1.029  0.00  0.00    +0.001 A 
ATOM     16  C   LIG    1       -2.698   2.031  -0.930  0.00  0.00    +0.000 A 
ATOM     17  C   LIG    1       -1.668   1.527  -0.128  0.00  0.00    +0.009 A 
ATOM     18  C   LIG    1       -1.761   0.361   0.570  0.00  0.00    +0.019 A 
BRANCH   8  19
ATOM     19  O   LIG    1       -0.613   0.338   2.650  0.00  0.00    -0.364 OA
ATOM     20  H   LIG    1       -0.380   1.255   2.343  0.00  0.00    +0.213 HD
ENDBRANCH   8  19
ENDBRANCH   3   8
BRANCH   1  21
ATOM     21  S   LIG    1        3.872   0.826  -0.498  0.00  0.00    +0.057 S 
ATOM     22  O   LIG    1        5.095   0.469   0.328  0.00  0.00    -0.153 OA
ATOM     23  O   LIG    1        4.191   0.810  -1.959  0.00  0.00    -0.153 OA
BRANCH  21  24
ATOM     24  N   LIG    1        3.432   2.437  -0.073  0.00  0.00    -0.203 NA
ATOM     25  H   LIG    1        2.987   2.480   0.883  0.00  0.00    +0.144 HD
ATOM     26  H   LIG    1        4.335   2.987  -0.033  0.00  0.00    +0.144 HD
ENDBRANCH  21  24
ENDBRANCH   1  21
TORSDOF 4
