REMARK  Name = molecules/JIVZKJJQOZQXQB-UHFFFAOYSA-N.pdb
REMARK                            x       y       z     vdW  Elec       q    Type
REMARK                         _______ _______ _______ _____ _____    ______ ____
ROOT
ATOM      1  C   LIG    1        0.148  -0.353   1.365  0.00  0.00    +0.078 C 
ENDROOT
BRANCH   1   2
ATOM      2  C   LIG    1       -1.138  -0.112   0.712  0.00  0.00    -0.044 A 
ATOM      3  C   LIG    1       -1.693   1.122   0.752  0.00  0.00    +0.004 A 
ATOM      4  C   LIG    1       -2.905   1.337   0.134  0.00  0.00    +0.000 A 
ATOM      5  C   LIG    1       -3.559   0.326  -0.521  0.00  0.00    +0.000 A 
ATOM      6  C   LIG    1       -2.978  -0.925  -0.551  0.00  0.00    +0.000 A 
ATOM      7  C   LIG    1       -1.762  -1.129   0.073  0.00  0.00    +0.004 A 
ENDBRANCH   1   2
BRANCH   1   8
ATOM      8  C   LIG    1        1.292  -0.100   0.407  0.00  0.00    +0.124 C 
ATOM      9  N   LIG    1        2.667  -0.242   0.727  0.00  0.00    -0.293 NA
ATOM     10  H   LIG    1        3.087  -0.302   1.677  0.00  0.00    +0.124 HD
ATOM     11  C   LIG    1        3.421  -0.293  -0.519  0.00  0.00    +0.099 C 
ATOM     12  C   LIG    1        2.481   0.418  -1.432  0.00  0.00    +0.119 C 
ATOM     13  N   LIG    1        1.209   0.271  -0.810  0.00  0.00    -0.214 NA
ENDBRANCH   1   8
TORSDOF 2
