REMARK  Name = molecules/JJXDGYJCYKWEAI-UHFFFAOYSA-N.pdb
REMARK                            x       y       z     vdW  Elec       q    Type
REMARK                         _______ _______ _______ _____ _____    ______ ____
ROOT
ATOM      1  C   LIG    1       -0.517   0.406   0.956  0.00  0.00    +0.251 C 
ATOM      2  O   LIG    1        0.032   0.448   2.072  0.00  0.00    -0.270 OA
ATOM      3  N   LIG    1       -0.035   1.053  -0.192  0.00  0.00    -0.309 N 
ATOM      4  H   LIG    1       -0.516   1.005  -1.127  0.00  0.00    +0.149 HD
ENDROOT
BRANCH   1   5
ATOM      5  C   LIG    1       -1.762  -0.382   0.846  0.00  0.00    +0.074 A 
ATOM      6  S   LIG    1       -2.591  -1.273   2.046  0.00  0.00    -0.092 S 
ATOM      7  C   LIG    1       -3.887  -1.858   1.110  0.00  0.00    +0.046 A 
ATOM      8  C   LIG    1       -3.635  -1.337  -0.127  0.00  0.00    +0.008 A 
ATOM      9  C   LIG    1       -2.540  -0.576  -0.266  0.00  0.00    +0.021 A 
ENDBRANCH   1   5
BRANCH   3  10
ATOM     10  C   LIG    1        1.181   1.833  -0.118  0.00  0.00    +0.129 C 
BRANCH  10  11
ATOM     11  C   LIG    1        2.369   0.961   0.309  0.00  0.00    +0.216 C 
BRANCH  11  12
ATOM     12  S   LIG    1        2.559  -0.337  -0.907  0.00  0.00    +0.081 S 
ATOM     13  O   LIG    1        1.329  -1.190  -0.916  0.00  0.00    -0.147 OA
ATOM     14  O   LIG    1        2.803   0.268  -2.246  0.00  0.00    -0.147 OA
BRANCH  12  15
ATOM     15  O   LIG    1        3.881  -1.270  -0.389  0.00  0.00    -0.254 OA
ATOM     16  H   LIG    1        4.634  -0.629  -0.217  0.00  0.00    +0.244 HD
ENDBRANCH  12  15
ENDBRANCH  11  12
ENDBRANCH  10  11
ENDBRANCH   3  10
TORSDOF 5
