REMARK  Name = molecules/JKKFKPJIXZFSSB-CBZIJGRNSA-N.pdb
REMARK                            x       y       z     vdW  Elec       q    Type
REMARK                         _______ _______ _______ _____ _____    ______ ____
ROOT
ATOM      1  C   LIG    1       -2.751   1.880   0.299  0.00  0.00    +0.019 C 
ATOM      2  C   LIG    1       -2.899   0.438   0.653  0.00  0.00    +0.029 C 
ATOM      3  C   LIG    1       -2.178   0.083   1.895  0.00  0.00    +0.015 C 
ATOM      4  C   LIG    1       -0.696   0.268   1.668  0.00  0.00    +0.009 C 
ATOM      5  C   LIG    1       -0.245  -0.636   0.567  0.00  0.00    +0.023 C 
ATOM      6  C   LIG    1        1.201  -0.686   0.363  0.00  0.00    -0.041 A 
ATOM      7  C   LIG    1        2.000  -0.897   1.467  0.00  0.00    +0.008 A 
ATOM      8  C   LIG    1        3.383  -0.959   1.367  0.00  0.00    +0.049 A 
ATOM      9  C   LIG    1        3.995  -0.808   0.141  0.00  0.00    +0.159 A 
ATOM     10  C   LIG    1        3.182  -0.598  -0.953  0.00  0.00    +0.052 A 
ATOM     11  C   LIG    1        1.799  -0.533  -0.872  0.00  0.00    -0.040 A 
ATOM     12  C   LIG    1        0.994  -0.300  -2.112  0.00  0.00    +0.036 C 
ATOM     13  C   LIG    1       -0.373  -0.903  -1.869  0.00  0.00    +0.009 C 
ATOM     14  C   LIG    1       -0.988  -0.198  -0.704  0.00  0.00    +0.001 C 
ATOM     15  C   LIG    1       -4.340   0.100   0.645  0.00  0.00    +0.139 C 
ATOM     16  O   LIG    1       -5.136  -0.030   1.530  0.00  0.00    -0.297 OA
ATOM     17  C   LIG    1       -4.699  -0.075  -0.805  0.00  0.00    +0.075 C 
ATOM     18  C   LIG    1       -3.366  -0.194  -1.546  0.00  0.00    +0.012 C 
ATOM     19  C   LIG    1       -2.415  -0.493  -0.458  0.00  0.00    +0.006 C 
ENDROOT
BRANCH   9  20
ATOM     20  O   LIG    1        5.392  -0.866   0.005  0.00  0.00    -0.325 OA
BRANCH  20  21
ATOM     21  S   LIG    1        6.380   0.490   0.127  0.00  0.00    +0.251 S 
ATOM     22  O   LIG    1        7.485   0.270   1.148  0.00  0.00    -0.108 OA
ATOM     23  O   LIG    1        7.005   0.748  -1.215  0.00  0.00    -0.108 OA
BRANCH  21  24
ATOM     24  O   LIG    1        5.541   1.873   0.561  0.00  0.00    -0.222 OA
ATOM     25  H   LIG    1        5.913   2.302   1.373  0.00  0.00    +0.248 HD
ENDBRANCH  21  24
ENDBRANCH  20  21
ENDBRANCH   9  20
TORSDOF 3
