REMARK  Name = molecules/JKOQGQFVAUAYPM-UHFFFAOYSA-N.pdb
REMARK                            x       y       z     vdW  Elec       q    Type
REMARK                         _______ _______ _______ _____ _____    ______ ____
ROOT
ATOM      1  C   LIG    1        0.835   0.559  -0.732  0.00  0.00    +0.092 C 
ENDROOT
BRANCH   1   2
ATOM      2  N   LIG    1       -0.524   0.385  -1.215  0.00  0.00    -0.315 NA
ATOM      3  H   LIG    1       -0.796   1.041  -1.950  0.00  0.00    +0.122 HD
BRANCH   2   4
ATOM      4  C   LIG    1       -1.398   0.371  -0.066  0.00  0.00    +0.082 C 
BRANCH   4   5
ATOM      5  C   LIG    1       -2.849   0.196  -0.427  0.00  0.00    +0.030 C 
BRANCH   5   6
ATOM      6  C   LIG    1       -3.611   0.205   0.906  0.00  0.00    +0.079 C 
BRANCH   6   7
ATOM      7  N   LIG    1       -3.162  -0.871   1.760  0.00  0.00    -0.330 NA
ATOM      8  H   LIG    1       -3.051  -0.624   2.749  0.00  0.00    +0.118 HD
ATOM      9  H   LIG    1       -3.618  -1.774   1.556  0.00  0.00    +0.118 HD
ENDBRANCH   6   7
ENDBRANCH   5   6
ENDBRANCH   4   5
ENDBRANCH   2   4
ENDBRANCH   1   2
BRANCH   1  10
ATOM     10  C   LIG    1        1.854   0.592  -1.839  0.00  0.00    +0.096 C 
BRANCH  10  11
ATOM     11  S   LIG    1        3.478   0.812  -1.060  0.00  0.00    -0.040 S 
BRANCH  11  12
ATOM     12  P   LIG    1        3.871  -0.935   0.062  0.00  0.00    +0.386 P 
ATOM     13  O   LIG    1        3.633  -2.140  -0.831  0.00  0.00    -0.246 OA
BRANCH  12  14
ATOM     14  O   LIG    1        2.776  -0.984   1.350  0.00  0.00    -0.316 OA
ATOM     15  H   LIG    1        2.920  -0.167   1.891  0.00  0.00    +0.221 HD
ENDBRANCH  12  14
BRANCH  12  16
ATOM     16  O   LIG    1        5.467  -0.909   0.635  0.00  0.00    -0.316 OA
ATOM     17  H   LIG    1        5.570  -0.032   1.104  0.00  0.00    +0.221 HD
ENDBRANCH  12  16
ENDBRANCH  11  12
ENDBRANCH  10  11
ENDBRANCH   1  10
TORSDOF 10
