REMARK  Name = molecules/JKXQBIZCQJLVOS-MCYUEQNJSA-N.pdb
REMARK                            x       y       z     vdW  Elec       q    Type
REMARK                         _______ _______ _______ _____ _____    ______ ____
ROOT
ATOM      1  N   LIG    1        0.289   0.573   1.439  0.00  0.00    -0.299 N 
ATOM      2  C   LIG    1        1.545   0.596   2.074  0.00  0.00    +0.247 C 
ATOM      3  O   LIG    1        1.841   1.643   2.737  0.00  0.00    -0.273 OA
ATOM      4  H   LIG    1        0.013  -0.285   0.882  0.00  0.00    +0.150 HD
ENDROOT
BRANCH   1   5
ATOM      5  CA  LIG    1       -0.660   1.635   1.491  0.00  0.00    +0.190 C 
ATOM      6  C   LIG    1       -1.998   1.252   2.048  0.00  0.00    +0.240 C 
ATOM      7  O   LIG    1       -2.396   1.105   3.222  0.00  0.00    -0.273 OA
ATOM      8  N   LIG    1       -2.562   1.141   0.747  0.00  0.00    -0.271 N 
ATOM      9  CA  LIG    1       -3.454   0.790  -0.316  0.00  0.00    +0.201 C 
ATOM     10  C   LIG    1       -2.639   0.060  -1.382  0.00  0.00    +0.042 C 
ATOM     11  C   LIG    1       -2.555  -1.390  -0.913  0.00  0.00    +0.025 C 
ATOM     12  S   LIG    1       -1.032   0.883  -1.206  0.00  0.00    -0.127 S 
ATOM     13  C   LIG    1       -3.207   0.186  -2.745  0.00  0.00    +0.025 C 
ATOM     14  C   LIG    1       -1.423   1.903   0.246  0.00  0.00    +0.165 C 
BRANCH   9  15
ATOM     15  C   LIG    1       -4.109   2.012  -0.823  0.00  0.00    +0.327 C 
ATOM     16  OXT LIG    1       -3.887   3.098  -0.251  0.00  0.00    -0.249 OA
BRANCH  15  17
ATOM     17  O   LIG    1       -4.970   2.027  -1.912  0.00  0.00    -0.479 OA
ATOM     18  H   LIG    1       -4.861   2.763  -2.599  0.00  0.00    +0.295 HD
ENDBRANCH  15  17
ENDBRANCH   9  15
ENDBRANCH   1   5
BRANCH   2  19
ATOM     19  C   LIG    1        2.484  -0.537   1.988  0.00  0.00    +0.233 C 
BRANCH  19  20
ATOM     20  C   LIG    1        2.897  -0.820   0.597  0.00  0.00    -0.009 A 
ATOM     21  C   LIG    1        3.759  -1.864   0.319  0.00  0.00    +0.008 A 
ATOM     22  C   LIG    1        4.159  -2.174  -0.963  0.00  0.00    +0.022 A 
ATOM     23  C   LIG    1        3.709  -1.443  -2.032  0.00  0.00    +0.059 A 
ATOM     24  C   LIG    1        2.856  -0.404  -1.788  0.00  0.00    +0.060 A 
ATOM     25 CL   LIG    1        2.264   0.550  -3.144  0.00  0.00    -0.082 Cl
ATOM     26 CL   LIG    1        4.216  -1.833  -3.668  0.00  0.00    -0.082 Cl
ATOM     27  C   LIG    1        2.455  -0.097  -0.484  0.00  0.00    +0.028 A 
ENDBRANCH  19  20
BRANCH  19  28
ATOM     28  O   LIG    1        3.598  -0.357   2.811  0.00  0.00    -0.366 OA
ATOM     29  C   LIG    1        3.687  -1.280   3.825  0.00  0.00    +0.195 C 
ENDBRANCH  19  28
ENDBRANCH   2  19
TORSDOF 6
