REMARK  Name = molecules/JLGKQTAYUIMGRK-IBGZPJMESA-N.pdb
REMARK                            x       y       z     vdW  Elec       q    Type
REMARK                         _______ _______ _______ _____ _____    ______ ____
ROOT
ATOM      1  C   LIG    1       -1.144  -0.007  -0.822  0.00  0.00    +0.170 C 
ENDROOT
BRANCH   1   2
ATOM      2  C   LIG    1       -1.765  -1.072  -0.087  0.00  0.00    +0.001 A 
ATOM      3  C   LIG    1       -2.210  -0.932   1.205  0.00  0.00    +0.009 A 
ATOM      4  C   LIG    1       -2.616  -1.976   2.023  0.00  0.00    +0.020 A 
ATOM      5  C   LIG    1       -2.575  -3.267   1.531  0.00  0.00    +0.042 A 
ATOM      6 CL   LIG    1       -3.057  -4.562   2.589  0.00  0.00    -0.083 Cl
ATOM      7  C   LIG    1       -2.138  -3.453   0.237  0.00  0.00    +0.040 A 
ATOM      8  C   LIG    1       -1.748  -2.399  -0.544  0.00  0.00    +0.048 A 
ATOM      9 CL   LIG    1       -1.296  -2.769  -2.214  0.00  0.00    -0.083 Cl
ENDBRANCH   1   2
BRANCH   1  10
ATOM     10  O   LIG    1       -0.403  -0.367  -1.945  0.00  0.00    -0.366 OA
BRANCH  10  11
ATOM     11  C   LIG    1        0.866   0.103  -1.865  0.00  0.00    +0.197 C 
BRANCH  11  12
ATOM     12  C   LIG    1        1.820  -0.528  -0.863  0.00  0.00    -0.007 A 
ATOM     13  C   LIG    1        1.567  -1.686  -0.216  0.00  0.00    +0.052 A 
ATOM     14  S   LIG    1        3.016  -2.001   0.683  0.00  0.00    -0.095 S 
ATOM     15  C   LIG    1        3.888  -0.631   0.193  0.00  0.00    +0.038 A 
ATOM     16  C   LIG    1        5.180  -0.153   0.539  0.00  0.00    +0.055 A 
ATOM     17 CL   LIG    1        6.074  -1.202   1.637  0.00  0.00    -0.082 Cl
ATOM     18  C   LIG    1        5.658   1.028   0.042  0.00  0.00    +0.021 A 
ATOM     19  C   LIG    1        4.822   1.739  -0.824  0.00  0.00    +0.002 A 
ATOM     20  C   LIG    1        3.579   1.249  -1.142  0.00  0.00    +0.009 A 
ATOM     21  C   LIG    1        3.062   0.042  -0.647  0.00  0.00    -0.004 A 
ENDBRANCH  11  12
ENDBRANCH  10  11
ENDBRANCH   1  10
BRANCH   1  22
ATOM     22  C   LIG    1       -1.946   1.247  -1.059  0.00  0.00    +0.159 C 
BRANCH  22  23
ATOM     23  N   LIG    1       -2.701   1.799   0.012  0.00  0.00    -0.334 N 
ATOM     24  C   LIG    1       -2.168   2.776   0.815  0.00  0.00    +0.107 A 
ATOM     25  C   LIG    1       -3.080   3.111   1.790  0.00  0.00    +0.130 A 
ATOM     26  N   LIG    1       -4.155   2.325   1.549  0.00  0.00    -0.244 NA
ATOM     27  C   LIG    1       -3.951   1.537   0.494  0.00  0.00    +0.199 A 
ENDBRANCH  22  23
ENDBRANCH   1  22
TORSDOF 6
