REMARK  Name = molecules/JLMHZVYLAQPMOZ-UHFFFAOYSA-N.pdb
REMARK                            x       y       z     vdW  Elec       q    Type
REMARK                         _______ _______ _______ _____ _____    ______ ____
ROOT
ATOM      1  C   LIG    1       -0.253  -0.047   0.077  0.00  0.00    +0.132 C 
ATOM      2  S   LIG    1       -0.316   1.223   1.131  0.00  0.00    -0.019 S 
ENDROOT
BRANCH   1   4
ATOM      3  C   LIG    1       -2.619   0.430  -0.432  0.00  0.00    +0.127 C 
ATOM      4  N   LIG    1       -1.432  -0.350  -0.636  0.00  0.00    -0.330 N 
ATOM      5  H   LIG    1       -1.410  -1.145  -1.302  0.00  0.00    +0.147 HD
ENDBRANCH   1   4
BRANCH   1   6
ATOM      6  N   LIG    1        0.954  -0.755  -0.057  0.00  0.00    -0.304 N 
ATOM      7  H   LIG    1        1.067  -1.564  -0.699  0.00  0.00    +0.150 HD
BRANCH   6   8
ATOM      8  C   LIG    1        2.106  -0.367   0.717  0.00  0.00    +0.263 C 
BRANCH   8   9
ATOM      9  O   LIG    1        2.483   0.965   0.429  0.00  0.00    -0.377 OA
ATOM     10  H   LIG    1        3.428   1.036   0.718  0.00  0.00    +0.211 HD
ENDBRANCH   8   9
ENDBRANCH   6   8
ENDBRANCH   1   6
TORSDOF 4
