REMARK  Name = molecules/JLPDBLFIVFSOCC-XYXFTTADSA-N.pdb
REMARK                            x       y       z     vdW  Elec       q    Type
REMARK                         _______ _______ _______ _____ _____    ______ ____
ROOT
ATOM      1  C   LIG    1       -3.217   0.645  -0.043  0.00  0.00    +0.079 C 
ATOM      2  C   LIG    1       -3.972  -0.533   0.577  0.00  0.00    +0.007 C 
ATOM      3  C   LIG    1       -4.752   0.066   1.732  0.00  0.00    +0.015 C 
ATOM      4  C   LIG    1       -2.953  -1.471   1.156  0.00  0.00    +0.010 C 
ATOM      5  C   LIG    1       -1.796  -1.775   0.197  0.00  0.00    +0.005 C 
ATOM      6  C   LIG    1       -1.032  -0.565  -0.195  0.00  0.00    +0.001 C 
ATOM      7  C   LIG    1        0.409  -0.528   0.162  0.00  0.00    -0.026 C 
ATOM      8  C   LIG    1        0.742  -1.673   1.138  0.00  0.00    +0.012 C 
ATOM      9  C   LIG    1        0.783   0.726   0.898  0.00  0.00    -0.002 C 
ATOM     10  C   LIG    1        2.277   0.931   1.007  0.00  0.00    +0.035 C 
ATOM     11  C   LIG    1        2.982   0.925  -0.322  0.00  0.00    +0.122 C 
ATOM     12  C   LIG    1        2.145   0.356  -1.435  0.00  0.00    +0.032 C 
ATOM     13  C   LIG    1        0.207   1.994   0.379  0.00  0.00    +0.004 C 
ATOM     14  C   LIG    1       -1.112   1.852  -0.321  0.00  0.00    +0.007 C 
ATOM     15  C   LIG    1        1.278  -0.780  -1.044  0.00  0.00    +0.010 C 
ATOM     16  C   LIG    1       -4.813  -1.089  -0.511  0.00  0.00    +0.068 C 
ATOM     17  C   LIG    1       -5.007   0.134  -1.415  0.00  0.00    +0.187 C 
ATOM     18  C   LIG    1       -1.788   0.637   0.323  0.00  0.00    +0.025 C 
ATOM     19  C   LIG    1       -3.501   0.522  -1.524  0.00  0.00    +0.080 C 
ENDROOT
BRANCH  16  20
ATOM     20  C   LIG    1       -6.050  -1.766  -0.156  0.00  0.00    -0.019 C 
ATOM     21  C   LIG    1       -6.160  -2.978   0.691  0.00  0.00    +0.264 C 
ATOM     22  O   LIG    1       -7.516  -3.310   0.796  0.00  0.00    -0.457 OA
ATOM     23  C   LIG    1       -8.230  -2.391   0.059  0.00  0.00    +0.332 C 
ATOM     24  O   LIG    1       -9.506  -2.356  -0.103  0.00  0.00    -0.246 OA
ATOM     25  C   LIG    1       -7.271  -1.460  -0.507  0.00  0.00    +0.094 C 
ENDBRANCH  16  20
BRANCH   1  26
ATOM     26  O   LIG    1       -3.754   1.871   0.347  0.00  0.00    -0.388 OA
ATOM     27  H   LIG    1       -3.238   2.263   1.114  0.00  0.00    +0.210 HD
ENDBRANCH   1  26
BRANCH  11  28
ATOM     28  O   LIG    1        4.165   0.223  -0.147  0.00  0.00    -0.348 OA
BRANCH  28  29
ATOM     29  C   LIG    1        5.228   1.070  -0.429  0.00  0.00    +0.253 C 
ATOM     30  C   LIG    1        6.155   1.235   0.756  0.00  0.00    +0.095 C 
ATOM     31  C   LIG    1        7.392   0.394   0.637  0.00  0.00    +0.154 C 
ATOM     32  C   LIG    1        6.959  -0.987   0.167  0.00  0.00    +0.172 C 
ATOM     33  C   LIG    1        6.208  -0.822  -1.140  0.00  0.00    +0.149 C 
ATOM     34  C   LIG    1        6.951  -1.520  -2.278  0.00  0.00    +0.041 C 
ATOM     35  O   LIG    1        6.018   0.517  -1.462  0.00  0.00    -0.346 OA
BRANCH  32  36
ATOM     36  O   LIG    1        6.101  -1.507   1.132  0.00  0.00    -0.387 OA
ATOM     37  H   LIG    1        5.963  -2.473   0.887  0.00  0.00    +0.210 HD
ENDBRANCH  32  36
BRANCH  31  38
ATOM     38  O   LIG    1        8.305   0.883  -0.265  0.00  0.00    -0.377 OA
ATOM     39  C   LIG    1        9.543   1.158   0.318  0.00  0.00    +0.194 C 
ENDBRANCH  31  38
ENDBRANCH  28  29
ENDBRANCH  11  28
BRANCH  17  40
ATOM     40  O   LIG    1       -5.594   1.220  -0.764  0.00  0.00    -0.461 OA
BRANCH  40  41
ATOM     41  C   LIG    1       -6.589   2.014  -1.279  0.00  0.00    +0.304 C 
ATOM     42  C   LIG    1       -7.126   3.133  -0.489  0.00  0.00    +0.136 C 
ATOM     43  O   LIG    1       -7.029   1.777  -2.418  0.00  0.00    -0.251 OA
ENDBRANCH  40  41
ENDBRANCH  17  40
TORSDOF 8
