REMARK  Name = molecules/JLRGJRBPOGGCBT-UHFFFAOYSA-N.pdb
REMARK                            x       y       z     vdW  Elec       q    Type
REMARK                         _______ _______ _______ _____ _____    ______ ____
ROOT
ATOM      1  S   LIG    1       -0.968  -0.136   2.148  0.00  0.00    +0.076 S 
ATOM      2  O   LIG    1       -1.287  -0.860   3.426  0.00  0.00    -0.150 OA
ATOM      3  O   LIG    1       -0.232   1.117   2.538  0.00  0.00    -0.150 OA
ENDROOT
BRANCH   1   4
ATOM      4  C   LIG    1       -2.433   0.271   1.358  0.00  0.00    +0.109 A 
ATOM      5  C   LIG    1       -3.511  -0.573   1.524  0.00  0.00    +0.029 A 
ATOM      6  C   LIG    1       -4.738  -0.327   0.915  0.00  0.00    +0.005 A 
ATOM      7  C   LIG    1       -4.911   0.785   0.117  0.00  0.00    -0.050 A 
ATOM      8  C   LIG    1       -3.841   1.630  -0.052  0.00  0.00    +0.005 A 
ATOM      9  C   LIG    1       -6.235   1.051  -0.543  0.00  0.00    +0.044 C 
ATOM     10  C   LIG    1       -2.628   1.377   0.556  0.00  0.00    +0.029 A 
ENDBRANCH   1   4
BRANCH   1  11
ATOM     11  N   LIG    1        0.099  -1.105   1.235  0.00  0.00    -0.169 N 
ATOM     12  H   LIG    1       -0.226  -2.086   1.058  0.00  0.00    +0.178 HD
ATOM     13  C   LIG    1        1.334  -0.720   0.717  0.00  0.00    +0.319 C 
ATOM     14  O   LIG    1        1.770   0.441   0.906  0.00  0.00    -0.251 OA
ATOM     15  N   LIG    1        2.121  -1.620  -0.030  0.00  0.00    -0.298 N 
ATOM     16  H   LIG    1        1.805  -2.605  -0.220  0.00  0.00    +0.150 HD
BRANCH  15  17
ATOM     17  C   LIG    1        3.402  -1.235  -0.576  0.00  0.00    +0.106 C 
BRANCH  17  18
ATOM     18  C   LIG    1        3.336  -0.088  -1.538  0.00  0.00    +0.018 C 
BRANCH  18  19
ATOM     19  C   LIG    1        4.756   0.180  -2.008  0.00  0.00    -0.002 C 
ATOM     20  C   LIG    1        5.671   0.535  -0.859  0.00  0.00    +0.004 C 
ENDBRANCH  18  19
ENDBRANCH  17  18
ENDBRANCH  15  17
ENDBRANCH   1  11
TORSDOF 5
