REMARK  Name = molecules/JLVSRWOIZZXQAD-GSVOUGTGSA-N.pdb
REMARK                            x       y       z     vdW  Elec       q    Type
REMARK                         _______ _______ _______ _____ _____    ______ ____
ROOT
ATOM      1  C   LIG    1        0.483   0.383  -0.960  0.00  0.00    +0.212 C 
ENDROOT
BRANCH   1   2
ATOM      2  S   LIG    1        1.564   0.080   0.373  0.00  0.00    +0.081 S 
ATOM      3  O   LIG    1        1.446   1.158   1.387  0.00  0.00    -0.147 OA
ATOM      4  O   LIG    1        1.444  -1.307   0.960  0.00  0.00    -0.147 OA
BRANCH   2   5
ATOM      5  O   LIG    1        3.154   0.103  -0.284  0.00  0.00    -0.254 OA
ATOM      6  H   LIG    1        3.763  -0.345   0.384  0.00  0.00    +0.244 HD
ENDBRANCH   2   5
ENDBRANCH   1   2
BRANCH   1   7
ATOM      7  C   LIG    1       -0.963   0.472  -0.701  0.00  0.00    +0.076 C 
BRANCH   7   8
ATOM      8  S   LIG    1       -1.387   1.998   0.229  0.00  0.00    -0.172 S 
ATOM      9  H   LIG    1       -0.718   2.044   1.456  0.00  0.00    +0.102 HD
ENDBRANCH   7   8
BRANCH   7  10
ATOM     10  C   LIG    1       -1.689  -0.669  -0.119  0.00  0.00    +0.081 C 
BRANCH  10  11
ATOM     11  S   LIG    1       -1.198  -1.217   1.504  0.00  0.00    -0.177 S 
ATOM     12  H   LIG    1       -1.427  -2.617   1.622  0.00  0.00    +0.102 HD
ENDBRANCH  10  11
ENDBRANCH   7  10
ENDBRANCH   1   7
TORSDOF 6
