REMARK  Name = molecules/JLYXXMFPNIAWKQ-GNIYUCBRSA-N.pdb
REMARK                            x       y       z     vdW  Elec       q    Type
REMARK                         _______ _______ _______ _____ _____    ______ ____
ROOT
ATOM      1 CL   LIG    1        0.621   2.517  -0.867  0.00  0.00    -0.119 Cl
ATOM      2  C   LIG    1        0.600   1.246   0.405  0.00  0.00    +0.119 C 
ATOM      3  C   LIG    1       -0.821   0.945   0.709  0.00  0.00    +0.119 C 
ATOM      4 CL   LIG    1       -1.797   2.425   0.702  0.00  0.00    -0.119 Cl
ATOM      5  C   LIG    1       -1.359  -0.026  -0.330  0.00  0.00    +0.119 C 
ATOM      6  C   LIG    1       -0.601  -1.329  -0.047  0.00  0.00    +0.119 C 
ATOM      7  C   LIG    1        0.802  -1.077  -0.541  0.00  0.00    +0.119 C 
ATOM      8 CL   LIG    1        0.804  -1.024  -2.337  0.00  0.00    -0.119 Cl
ATOM      9 CL   LIG    1       -1.321  -2.711  -0.839  0.00  0.00    -0.119 Cl
ATOM     10 CL   LIG    1       -3.094  -0.229  -0.253  0.00  0.00    -0.119 Cl
ATOM     11  C   LIG    1        1.459   0.105   0.057  0.00  0.00    +0.119 C 
ATOM     12 CL   LIG    1        2.389  -0.418   1.502  0.00  0.00    -0.119 Cl
ENDROOT
TORSDOF 0
