REMARK  Name = molecules/JMOLZNNXZPAGBH-OAHLLOKOSA-N.pdb
REMARK                            x       y       z     vdW  Elec       q    Type
REMARK                         _______ _______ _______ _____ _____    ______ ____
ROOT
ATOM      1  C   LIG    1       -1.239   0.154   1.291  0.00  0.00    +0.098 C 
ENDROOT
BRANCH   1   2
ATOM      2  C   LIG    1       -1.800  -0.474   2.484  0.00  0.00    +0.308 C 
ATOM      3  O   LIG    1       -2.007   0.181   3.547  0.00  0.00    -0.251 OA
BRANCH   2   4
ATOM      4  O   LIG    1       -2.128  -1.801   2.508  0.00  0.00    -0.480 OA
ATOM      5  H   LIG    1       -1.473  -2.551   2.528  0.00  0.00    +0.295 HD
ENDBRANCH   2   4
ENDBRANCH   1   2
BRANCH   1   6
ATOM      6  C   LIG    1        0.010  -0.502   0.798  0.00  0.00    +0.015 C 
BRANCH   6   7
ATOM      7  C   LIG    1        0.983  -0.623   1.944  0.00  0.00    +0.001 C 
BRANCH   7   8
ATOM      8  C   LIG    1        2.277  -1.271   1.563  0.00  0.00    +0.000 C 
BRANCH   8   9
ATOM      9  C   LIG    1        3.004  -0.501   0.482  0.00  0.00    +0.000 C 
BRANCH   9  10
ATOM     10  C   LIG    1        4.306  -1.158   0.106  0.00  0.00    -0.000 C 
BRANCH  10  11
ATOM     11  C   LIG    1        4.977  -0.344  -0.975  0.00  0.00    -0.000 C 
BRANCH  11  12
ATOM     12  C   LIG    1        5.283   1.059  -0.562  0.00  0.00    -0.003 C 
ATOM     13  C   LIG    1        5.952   1.766  -1.724  0.00  0.00    +0.004 C 
ENDBRANCH  11  12
ENDBRANCH  10  11
ENDBRANCH   9  10
ENDBRANCH   8   9
ENDBRANCH   7   8
ENDBRANCH   6   7
ENDBRANCH   1   6
BRANCH   1  14
ATOM     14  C   LIG    1       -2.303   0.333   0.222  0.00  0.00    +0.015 C 
BRANCH  14  15
ATOM     15  C   LIG    1       -2.743  -0.945  -0.383  0.00  0.00    +0.001 C 
BRANCH  15  16
ATOM     16  C   LIG    1       -3.756  -0.810  -1.430  0.00  0.00    +0.000 C 
BRANCH  16  17
ATOM     17  C   LIG    1       -5.094  -0.290  -1.199  0.00  0.00    -0.000 C 
BRANCH  17  18
ATOM     18  C   LIG    1       -5.361   1.056  -0.689  0.00  0.00    -0.003 C 
ATOM     19  C   LIG    1       -4.764   2.151  -1.547  0.00  0.00    +0.004 C 
ENDBRANCH  17  18
ENDBRANCH  16  17
ENDBRANCH  15  16
ENDBRANCH  14  15
ENDBRANCH   1  14
TORSDOF 14
