REMARK  Name = molecules/JMOVFFLYGIQXMM-UHFFFAOYSA-N.pdb
REMARK                            x       y       z     vdW  Elec       q    Type
REMARK                         _______ _______ _______ _____ _____    ______ ____
ROOT
ATOM      1  C   LIG    1        1.421  -1.423   0.121  0.00  0.00    +0.157 A 
ATOM      2  C   LIG    1        2.332  -0.384   0.120  0.00  0.00    +0.062 A 
ATOM      3 BR   LIG    1        4.191  -0.789   0.221  0.00  0.00    -0.046 Br
ATOM      4  C   LIG    1        1.883   0.939   0.046  0.00  0.00    +0.023 A 
ATOM      5  C   LIG    1        0.540   1.250  -0.027  0.00  0.00    -0.040 A 
ATOM      6  C   LIG    1       -0.363   0.206  -0.026  0.00  0.00    +0.007 A 
ATOM      7  C   LIG    1       -1.712   0.464  -0.098  0.00  0.00    +0.012 A 
ATOM      8  C   LIG    1       -2.570  -0.614  -0.093  0.00  0.00    +0.020 A 
ATOM      9  C   LIG    1       -2.089  -1.901  -0.019  0.00  0.00    +0.111 A 
ATOM     10  N   LIG    1       -0.779  -2.155   0.051  0.00  0.00    -0.251 NA
ATOM     11  C   LIG    1        0.060   2.653  -0.106  0.00  0.00    +0.044 C 
ATOM     12  C   LIG    1        0.071  -1.120   0.047  0.00  0.00    +0.114 A 
ENDROOT
BRANCH   1  13
ATOM     13  O   LIG    1        1.896  -2.723   0.195  0.00  0.00    -0.504 OA
ATOM     14  H   LIG    1        1.216  -3.483   0.195  0.00  0.00    +0.292 HD
ENDBRANCH   1  13
TORSDOF 1
