REMARK  Name = molecules/JMPOIZCOJJMTHI-UHFFFAOYSA-N.pdb
REMARK                            x       y       z     vdW  Elec       q    Type
REMARK                         _______ _______ _______ _____ _____    ______ ____
ROOT
ATOM      1  C   LIG    1        0.336  -0.484   0.250  0.00  0.00    +0.219 C 
ATOM      2  O   LIG    1        0.413  -0.795   1.447  0.00  0.00    -0.275 OA
ATOM      3  N   LIG    1        1.431  -0.166  -0.567  0.00  0.00    -0.285 N 
ATOM      4  H   LIG    1        1.216   0.084  -1.580  0.00  0.00    +0.155 HD
ENDROOT
BRANCH   3   5
ATOM      5  C   LIG    1        2.795  -0.141  -0.189  0.00  0.00    +0.033 A 
ATOM      6  C   LIG    1        3.234  -0.438   1.081  0.00  0.00    +0.024 A 
ATOM      7  C   LIG    1        4.577  -0.395   1.379  0.00  0.00    +0.017 A 
ATOM      8  C   LIG    1        5.520  -0.051   0.411  0.00  0.00    +0.059 A 
ATOM      9  C   LIG    1        5.089   0.244  -0.849  0.00  0.00    +0.017 A 
ATOM     10  C   LIG    1        3.755   0.196  -1.127  0.00  0.00    +0.024 A 
BRANCH   8  11
ATOM     11  C   LIG    1        6.940  -0.003   0.720  0.00  0.00    +0.337 C 
ATOM     12  O   LIG    1        7.373  -0.272   1.880  0.00  0.00    -0.245 OA
BRANCH  11  13
ATOM     13  O   LIG    1        7.820   0.346  -0.290  0.00  0.00    -0.477 OA
ATOM     14  H   LIG    1        8.711   0.745  -0.015  0.00  0.00    +0.295 HD
ENDBRANCH  11  13
ENDBRANCH   8  11
ENDBRANCH   3   5
BRANCH   1  15
ATOM     15  C   LIG    1       -1.033  -0.444  -0.370  0.00  0.00    +0.117 C 
BRANCH  15  16
ATOM     16  C   LIG    1       -2.064  -0.814   0.664  0.00  0.00    +0.134 C 
BRANCH  16  17
ATOM     17  N   LIG    1       -3.372  -0.780   0.087  0.00  0.00    -0.314 N 
ATOM     18  C   LIG    1       -4.184   0.308   0.056  0.00  0.00    +0.167 A 
ATOM     19  N   LIG    1       -4.090   1.577   0.488  0.00  0.00    -0.218 NA
ATOM     20  C   LIG    1       -5.090   2.454   0.309  0.00  0.00    +0.201 A 
ATOM     21  N   LIG    1       -6.216   2.074  -0.314  0.00  0.00    -0.312 N 
ATOM     22  H   LIG    1       -6.980   2.747  -0.450  0.00  0.00    +0.170 HD
ATOM     23  C   LIG    1       -6.338   0.806  -0.758  0.00  0.00    +0.279 A 
ATOM     24  O   LIG    1       -7.391   0.445  -1.343  0.00  0.00    -0.265 OA
ATOM     25  C   LIG    1       -5.326  -0.132  -0.592  0.00  0.00    +0.172 A 
ATOM     26  N   LIG    1       -5.177  -1.426  -0.923  0.00  0.00    -0.229 NA
ATOM     27  C   LIG    1       -3.979  -1.825  -0.507  0.00  0.00    +0.201 A 
ENDBRANCH  16  17
ENDBRANCH  15  16
ENDBRANCH   1  15
TORSDOF 6
