REMARK  Name = molecules/JMUHBNWAORSSBD-WKYWBUFDSA-N.pdb
REMARK                            x       y       z     vdW  Elec       q    Type
REMARK                         _______ _______ _______ _____ _____    ______ ____
ROOT
ATOM      1  C   LIG    1       -2.871   5.848   0.000  0.00  0.00    -0.004 C 
ATOM      2  C   LIG    1       -4.348   5.587   0.000  0.00  0.00    +0.004 C 
ENDROOT
TORSDOF 0
REMARK  Name = molecules/JMUHBNWAORSSBD-WKYWBUFDSA-N.pdb
REMARK                            x       y       z     vdW  Elec       q    Type
REMARK                         _______ _______ _______ _____ _____    ______ ____
ROOT
ATOM      1  C   LIG    1       -1.394   6.108   0.000  0.00  0.00    +0.279 C 
ATOM      2  O   LIG    1       -0.871   6.710   0.000  0.00  0.00    -0.279 OA
ENDROOT
TORSDOF 0
REMARK  Name = molecules/JMUHBNWAORSSBD-WKYWBUFDSA-N.pdb
REMARK                            x       y       z     vdW  Elec       q    Type
REMARK                         _______ _______ _______ _____ _____    ______ ____
ROOT
ATOM      1  C   LIG    1        7.410   2.534   0.000  0.00  0.00    +0.246 C 
ATOM      2  O   LIG    1        8.005   1.617   0.000  0.00  0.00    -0.271 OA
ATOM      3  O   LIG    1        8.915   1.927   0.000  0.00  0.00    -0.268 OA
ATOM      4  C   LIG    1        9.660   2.727   0.000  0.00  0.00    +0.268 C 
ATOM      5  C   LIG    1        9.400   4.204   0.000  0.00  0.00    +0.135 C 
ATOM      6  C   LIG    1        9.139   5.681   0.000  0.00  0.00    +0.061 C 
ATOM      7  N   LIG    1        7.923   3.943   0.000  0.00  0.00    -0.222 NA
ENDROOT
BRANCH   1   8
ATOM      8  C   LIG    1        5.932   2.273   0.000  0.00  0.00    +0.106 C 
BRANCH   8   9
ATOM      9  C   LIG    1        4.455   2.013   0.000  0.00  0.00    +0.061 C 
BRANCH   9  15
ATOM     10  C   LIG    1        1.308   3.743   0.000  0.00  0.00    +0.266 C 
ATOM     11  O   LIG    1        0.391   3.147   0.000  0.00  0.00    -0.269 OA
ATOM     12  O   LIG    1        0.701   2.238   0.000  0.00  0.00    -0.266 OA
ATOM     13  C   LIG    1        1.501   1.492   0.000  0.00  0.00    +0.289 C 
ATOM     14  N   LIG    1        0.988   0.082   0.000  0.00  0.00    -0.083 NA
ATOM     15  C   LIG    1        2.978   1.752   0.000  0.00  0.00    +0.140 C 
ATOM     16  N   LIG    1        2.717   3.229   0.000  0.00  0.00    -0.220 NA
BRANCH  10  18
ATOM     17  N   LIG    1       -0.430   4.959   0.000  0.00  0.00    -0.130 NA
ATOM     18  C   LIG    1        1.047   5.220   0.000  0.00  0.00    +0.183 C 
ATOM     19  C   LIG    1        0.787   6.697   0.000  0.00  0.00    +0.034 C 
ENDBRANCH  10  18
ENDBRANCH   9  15
ENDBRANCH   8   9
ENDBRANCH   1   8
BRANCH   4  20
ATOM     20  N   LIG    1       11.070   2.213   0.000  0.00  0.00    -0.211 NA
BRANCH  20  21
ATOM     21  C   LIG    1       11.330   0.736   0.000  0.00  0.00    +0.166 C 
BRANCH  21  22
ATOM     22  C   LIG    1       11.591  -0.741   0.000  0.00  0.00    +0.180 C 
BRANCH  22  23
ATOM     23  O   LIG    1       11.851  -2.218   0.000  0.00  0.00    -0.279 OA
BRANCH  23  24
ATOM     24  P   LIG    1       13.261  -2.731   0.000  0.00  0.00    +0.473 P 
ATOM     25  O   LIG    1       12.748  -4.141   0.000  0.00  0.00    -0.228 OA
BRANCH  24  26
ATOM     26  O   LIG    1       14.670  -3.244   0.000  0.00  0.00    -0.303 OA
ATOM     27  H   LIG    1       15.511  -2.538   0.000  0.00  0.00    +0.222 HD
ENDBRANCH  24  26
BRANCH  24  28
ATOM     28  O   LIG    1       13.774  -1.322   0.000  0.00  0.00    -0.303 OA
ATOM     29  H   LIG    1       13.068  -0.480   0.000  0.00  0.00    +0.222 HD
ENDBRANCH  24  28
ENDBRANCH  23  24
ENDBRANCH  22  23
ENDBRANCH  21  22
ENDBRANCH  20  21
ENDBRANCH   4  20
TORSDOF 11
REMARK  Name = molecules/JMUHBNWAORSSBD-WKYWBUFDSA-N.pdb
REMARK                            x       y       z     vdW  Elec       q    Type
REMARK                         _______ _______ _______ _____ _____    ______ ____
ROOT
ATOM      1  C   LIG    1       26.556  -0.387   0.000  0.00  0.00    +0.000 C 
ENDROOT
BRANCH   1   2
ATOM      2  C   LIG    1       28.033  -0.126   0.000  0.00  0.00    +0.000 C 
BRANCH   2   3
ATOM      3  C   LIG    1       29.510   0.134   0.000  0.00  0.00    -0.000 C 
BRANCH   3   4
ATOM      4  C   LIG    1       30.987   0.395   0.000  0.00  0.00    -0.000 C 
BRANCH   4   5
ATOM      5  C   LIG    1       32.465   0.655   0.000  0.00  0.00    -0.000 C 
BRANCH   5   6
ATOM      6  C   LIG    1       33.942   0.915   0.000  0.00  0.00    -0.000 C 
BRANCH   6   7
ATOM      7  C   LIG    1       35.419   1.176   0.000  0.00  0.00    -0.000 C 
BRANCH   7   8
ATOM      8  C   LIG    1       36.896   1.436   0.000  0.00  0.00    -0.000 C 
BRANCH   8   9
ATOM      9  C   LIG    1       38.373   1.697   0.000  0.00  0.00    -0.000 C 
BRANCH   9  10
ATOM     10  C   LIG    1       39.851   1.957   0.000  0.00  0.00    -0.000 C 
BRANCH  10  11
ATOM     11  C   LIG    1       41.328   2.218   0.000  0.00  0.00    -0.003 C 
ATOM     12  C   LIG    1       42.805   2.478   0.000  0.00  0.00    +0.004 C 
ENDBRANCH  10  11
ENDBRANCH   9  10
ENDBRANCH   8   9
ENDBRANCH   7   8
ENDBRANCH   6   7
ENDBRANCH   5   6
ENDBRANCH   4   5
ENDBRANCH   3   4
ENDBRANCH   2   3
ENDBRANCH   1   2
BRANCH   1  13
ATOM     13  C   LIG    1       25.078  -0.647   0.000  0.00  0.00    +0.000 C 
BRANCH  13  14
ATOM     14  C   LIG    1       23.601  -0.908   0.000  0.00  0.00    +0.003 C 
BRANCH  14  15
ATOM     15  C   LIG    1       22.124  -1.168   0.000  0.00  0.00    +0.041 C 
BRANCH  15  16
ATOM     16  C   LIG    1       20.647  -1.429   0.000  0.00  0.00    +0.133 C 
BRANCH  16  17
ATOM     17  O   LIG    1       19.683  -0.280   0.000  0.00  0.00    -0.359 OA
BRANCH  17  18
ATOM     18  C   LIG    1       18.205  -0.540   0.000  0.00  0.00    +0.179 C 
BRANCH  18  20
ATOM     19  C   LIG    1       15.251  -1.061   0.000  0.00  0.00    +0.032 C 
ATOM     20  C   LIG    1       16.728  -0.801   0.000  0.00  0.00    +0.154 C 
BRANCH  20  21
ATOM     21  O   LIG    1       16.989  -2.278   0.000  0.00  0.00    -0.358 OA
ATOM     22  C   LIG    1       18.398  -2.791   0.000  0.00  0.00    +0.174 C 
ENDBRANCH  20  21
ENDBRANCH  18  20
ENDBRANCH  17  18
ENDBRANCH  16  17
ENDBRANCH  15  16
ENDBRANCH  14  15
ENDBRANCH  13  14
ENDBRANCH   1  13
TORSDOF 18
REMARK  Name = molecules/JMUHBNWAORSSBD-WKYWBUFDSA-N.pdb
REMARK                            x       y       z     vdW  Elec       q    Type
REMARK                         _______ _______ _______ _____ _____    ______ ____
ROOT
ATOM      1  C   LIG    1       20.482 -14.609   0.000  0.00  0.00    -0.000 C 
ENDROOT
BRANCH   1   2
ATOM      2  C   LIG    1       20.221 -13.131   0.000  0.00  0.00    -0.000 C 
BRANCH   2   3
ATOM      3  C   LIG    1       19.961 -11.654   0.000  0.00  0.00    +0.000 C 
BRANCH   3   4
ATOM      4  C   LIG    1       19.701 -10.177   0.000  0.00  0.00    +0.000 C 
BRANCH   4   5
ATOM      5  C   LIG    1       19.440  -8.700   0.000  0.00  0.00    +0.000 C 
BRANCH   5   6
ATOM      6  C   LIG    1       19.180  -7.223   0.000  0.00  0.00    +0.000 C 
BRANCH   6   8
ATOM      7  C   LIG    1       18.659  -4.268   0.000  0.00  0.00    -0.004 C 
ATOM      8  C   LIG    1       18.919  -5.745   0.000  0.00  0.00    +0.004 C 
ENDBRANCH   6   8
ENDBRANCH   5   6
ENDBRANCH   4   5
ENDBRANCH   3   4
ENDBRANCH   2   3
ENDBRANCH   1   2
BRANCH   1   9
ATOM      9  C   LIG    1       20.742 -16.086   0.000  0.00  0.00    -0.000 C 
BRANCH   9  10
ATOM     10  C   LIG    1       21.003 -17.563   0.000  0.00  0.00    -0.000 C 
BRANCH  10  11
ATOM     11  C   LIG    1       21.263 -19.040   0.000  0.00  0.00    -0.000 C 
BRANCH  11  12
ATOM     12  C   LIG    1       21.524 -20.517   0.000  0.00  0.00    -0.000 C 
BRANCH  12  13
ATOM     13  C   LIG    1       21.784 -21.995   0.000  0.00  0.00    -0.000 C 
BRANCH  13  14
ATOM     14  C   LIG    1       22.045 -23.472   0.000  0.00  0.00    -0.003 C 
ATOM     15  C   LIG    1       22.305 -24.949   0.000  0.00  0.00    +0.004 C 
ENDBRANCH  13  14
ENDBRANCH  12  13
ENDBRANCH  11  12
ENDBRANCH  10  11
ENDBRANCH   9  10
ENDBRANCH   1   9
TORSDOF 12
REMARK  Name = molecules/JMUHBNWAORSSBD-WKYWBUFDSA-N.pdb
REMARK                            x       y       z     vdW  Elec       q    Type
REMARK                         _______ _______ _______ _____ _____    ______ ____
ROOT
ATOM      1  O   LIG    1       19.547  -1.827   0.000  0.00  0.00    -0.253 OA
ATOM      2  H   LIG    1       18.816  -1.911   0.000  0.00  0.00    +0.253 HD
ENDROOT
BRANCH   1   3
ATOM      3  O   LIG    1       20.134  -2.838   0.000  0.00  0.00    -0.253 OA
ATOM      4  H   LIG    1       20.136  -4.008   0.000  0.00  0.00    +0.253 HD
ENDBRANCH   1   3
TORSDOF 1
REMARK  Name = molecules/JMUHBNWAORSSBD-WKYWBUFDSA-N.pdb
REMARK                            x       y       z     vdW  Elec       q    Type
REMARK                         _______ _______ _______ _____ _____    ______ ____
ROOT
ATOM      1  C   LIG    1       -3.132   9.254   0.000  0.00  0.00    +0.104 C 
ATOM      2  N   LIG    1       -4.541   9.767   0.000  0.00  0.00    -0.351 N 
ATOM      3  H   LIG    1       -4.360  10.914   0.000  0.00  0.00    +0.162 HD
ATOM      4  C   LIG    1       -1.983   8.289   0.000  0.00  0.00    +0.062 C 
ENDROOT
BRANCH   1   5
ATOM      5  C   LIG    1       -2.871  10.731   0.000  0.00  0.00    +0.352 C 
ATOM      6  O   LIG    1       -3.132  12.208   0.000  0.00  0.00    -0.244 OA
BRANCH   5   7
ATOM      7  O   LIG    1       -1.462  11.244   0.000  0.00  0.00    -0.451 OA
BRANCH   7   8
ATOM      8  C   LIG    1       -0.313  10.280   0.000  0.00  0.00    +0.248 C 
BRANCH   8   9
ATOM      9  C   LIG    1        1.097   9.767   0.000  0.00  0.00    +0.249 C 
ATOM     10  O   LIG    1        2.506   9.254   0.000  0.00  0.00    -0.231 OA
ENDBRANCH   8   9
ENDBRANCH   7   8
ENDBRANCH   5   7
ENDBRANCH   1   5
BRANCH   2  11
ATOM     11  C   LIG    1       -5.690   8.802   0.000  0.00  0.00    +0.182 C 
ATOM     12  C   LIG    1       -7.100   9.315   0.000  0.00  0.00    +0.071 C 
BRANCH  11  13
ATOM     13  O   LIG    1       -5.252   7.368   0.000  0.00  0.00    -0.366 OA
ATOM     14  H   LIG    1       -4.427   7.085   0.000  0.00  0.00    +0.212 HD
ENDBRANCH  11  13
ENDBRANCH   2  11
TORSDOF 6
REMARK  Name = molecules/JMUHBNWAORSSBD-WKYWBUFDSA-N.pdb
REMARK                            x       y       z     vdW  Elec       q    Type
REMARK                         _______ _______ _______ _____ _____    ______ ____
ROOT
ATOM      1  C   LIG    1       -0.573   8.802   0.000  0.00  0.00    +0.000 C 
ENDROOT
TORSDOF 0
REMARK  Name = molecules/JMUHBNWAORSSBD-WKYWBUFDSA-N.pdb
REMARK                            x       y       z     vdW  Elec       q    Type
REMARK                         _______ _______ _______ _____ _____    ______ ____
ROOT
ATOM      1  O   HOH    1       -0.313   7.325   0.000  0.00  0.00    -0.253 OA
ATOM      2  H   HOH    0       -0.711   6.619   0.000  0.00  0.00    +0.253 HD
ENDROOT
TORSDOF 0
REMARK  Name = molecules/JMUHBNWAORSSBD-WKYWBUFDSA-N.pdb
REMARK                            x       y       z     vdW  Elec       q    Type
REMARK                         _______ _______ _______ _____ _____    ______ ____
ROOT
ATOM      1  O   HOH    1       -3.132   7.325   0.000  0.00  0.00    -0.253 OA
ATOM      2  H   HOH    0       -3.882   7.954   0.000  0.00  0.00    +0.253 HD
ENDROOT
TORSDOF 0
REMARK  Name = molecules/JMUHBNWAORSSBD-WKYWBUFDSA-N.pdb
REMARK                            x       y       z     vdW  Elec       q    Type
REMARK                         _______ _______ _______ _____ _____    ______ ____
ROOT
ATOM      1  H   UNK    1       -0.943   3.550   0.000  0.00  0.00    +0.000 HD
ENDROOT
TORSDOF 0
REMARK  Name = molecules/JMUHBNWAORSSBD-WKYWBUFDSA-N.pdb
REMARK                            x       y       z     vdW  Elec       q    Type
REMARK                         _______ _______ _______ _____ _____    ______ ____
ROOT
ATOM      1  H   UNK    1        3.740   4.327   0.000  0.00  0.00    +0.000 HD
ENDROOT
TORSDOF 0
REMARK  Name = molecules/JMUHBNWAORSSBD-WKYWBUFDSA-N.pdb
REMARK                            x       y       z     vdW  Elec       q    Type
REMARK                         _______ _______ _______ _____ _____    ______ ____
ROOT
ATOM      1  H   UNK    1       -0.489  -0.178   0.000  0.00  0.00    +0.000 HD
ENDROOT
TORSDOF 0
REMARK  Name = molecules/JMUHBNWAORSSBD-WKYWBUFDSA-N.pdb
REMARK                            x       y       z     vdW  Elec       q    Type
REMARK                         _______ _______ _______ _____ _____    ______ ____
ROOT
ATOM      1  H   UNK    1        1.952  -1.067   0.000  0.00  0.00    +0.000 HD
ENDROOT
TORSDOF 0
REMARK  Name = molecules/JMUHBNWAORSSBD-WKYWBUFDSA-N.pdb
REMARK                            x       y       z     vdW  Elec       q    Type
REMARK                         _______ _______ _______ _____ _____    ______ ____
ROOT
ATOM      1  H   UNK    1        6.825   4.966   0.000  0.00  0.00    +0.000 HD
ENDROOT
TORSDOF 0
REMARK  Name = molecules/JMUHBNWAORSSBD-WKYWBUFDSA-N.pdb
REMARK                            x       y       z     vdW  Elec       q    Type
REMARK                         _______ _______ _______ _____ _____    ______ ____
ROOT
ATOM      1  H   UNK    1       12.219   3.178   0.000  0.00  0.00    +0.000 HD
ENDROOT
TORSDOF 0
REMARK  Name = molecules/JMUHBNWAORSSBD-WKYWBUFDSA-N.pdb
REMARK                            x       y       z     vdW  Elec       q    Type
REMARK                         _______ _______ _______ _____ _____    ______ ____
ROOT
ATOM      1  H   UNK    1       13.712  -5.290   0.000  0.00  0.00    +0.000 HD
ENDROOT
TORSDOF 0
REMARK  Name = molecules/JMUHBNWAORSSBD-WKYWBUFDSA-N.pdb
REMARK                            x       y       z     vdW  Elec       q    Type
REMARK                         _______ _______ _______ _____ _____    ______ ____
ROOT
ATOM      1  H   UNK    1        1.179   7.168   0.000  0.00  0.00    +0.000 HD
ENDROOT
TORSDOF 0
REMARK  Name = molecules/JMUHBNWAORSSBD-WKYWBUFDSA-N.pdb
REMARK                            x       y       z     vdW  Elec       q    Type
REMARK                         _______ _______ _______ _____ _____    ______ ____
ROOT
ATOM      1  H   UNK    1        3.656  10.218   0.000  0.00  0.00    +0.000 HD
ENDROOT
TORSDOF 0
REMARK  Name = molecules/JMUHBNWAORSSBD-WKYWBUFDSA-N.pdb
REMARK                            x       y       z     vdW  Elec       q    Type
REMARK                         _______ _______ _______ _____ _____    ______ ____
ROOT
ATOM      1  H   UNK    1       -4.541  12.721   0.000  0.00  0.00    +0.000 HD
ENDROOT
TORSDOF 0
REMARK  Name = molecules/JMUHBNWAORSSBD-WKYWBUFDSA-N.pdb
REMARK                            x       y       z     vdW  Elec       q    Type
REMARK                         _______ _______ _______ _____ _____    ______ ____
ROOT
ATOM      1  H   UNK    1       -4.980  11.201   0.000  0.00  0.00    +0.000 HD
ENDROOT
TORSDOF 0
