REMARK  Name = molecules/JNMWHTHYDQTDQZ-UHFFFAOYSA-N.pdb
REMARK                            x       y       z     vdW  Elec       q    Type
REMARK                         _______ _______ _______ _____ _____    ______ ____
ROOT
ATOM      1 SE   LIG    1       -0.276   0.961   0.000  0.00  0.00    +0.000 Se
ATOM      2  S   LIG    1        1.744  -0.356   0.000  0.00  0.00    +0.000 S 
ATOM      3  S   LIG    1       -1.468  -0.604   0.000  0.00  0.00    +0.000 S 
ENDROOT
TORSDOF 0
