REMARK  Name = molecules/JNTOCHDNEULJHD-UHFFFAOYSA-N.pdb
REMARK                            x       y       z     vdW  Elec       q    Type
REMARK                         _______ _______ _______ _____ _____    ______ ____
ROOT
ATOM      1  N   LIG    1        0.932  -0.933  -1.221  0.00  0.00    -0.316 N 
ATOM      2  C   LIG    1        2.018  -0.590  -0.479  0.00  0.00    +0.146 A 
ATOM      3  N   LIG    1        2.336   0.521   0.212  0.00  0.00    -0.312 N 
ATOM      4  C   LIG    1        3.509   0.612   0.883  0.00  0.00    +0.195 A 
ATOM      5  N   LIG    1        4.418  -0.364   0.912  0.00  0.00    -0.176 NA
ATOM      6  C   LIG    1        4.129  -1.504   0.224  0.00  0.00    +0.302 A 
ATOM      7  O   LIG    1        4.964  -2.431   0.236  0.00  0.00    -0.263 OA
ATOM      8  H   LIG    1        1.674   1.323   0.233  0.00  0.00    +0.170 HD
ATOM      9  C   LIG    1        2.933  -1.615  -0.469  0.00  0.00    +0.172 A 
ATOM     10  N   LIG    1        2.398  -2.591  -1.213  0.00  0.00    -0.229 NA
ATOM     11  C   LIG    1        1.212  -2.182  -1.657  0.00  0.00    +0.201 A 
ENDROOT
BRANCH   4  12
ATOM     12  N   LIG    1        3.772   1.826   1.593  0.00  0.00    -0.329 N 
ATOM     13  H   LIG    1        4.412   1.834   2.413  0.00  0.00    +0.145 HD
ATOM     14  H   LIG    1        3.335   2.722   1.308  0.00  0.00    +0.145 HD
ENDBRANCH   4  12
BRANCH   1  15
ATOM     15  C   LIG    1       -0.253  -0.133  -1.481  0.00  0.00    +0.125 C 
BRANCH  15  16
ATOM     16  C   LIG    1       -1.246  -0.429  -0.399  0.00  0.00    +0.029 C 
BRANCH  16  17
ATOM     17  C   LIG    1       -2.532   0.318  -0.517  0.00  0.00    +0.042 C 
BRANCH  17  18
ATOM     18  C   LIG    1       -3.448  -0.135   0.596  0.00  0.00    +0.161 C 
BRANCH  18  19
ATOM     19  O   LIG    1       -3.692  -1.511   0.497  0.00  0.00    -0.395 OA
ATOM     20  H   LIG    1       -4.208  -1.764   1.303  0.00  0.00    +0.209 HD
ENDBRANCH  18  19
ENDBRANCH  17  18
BRANCH  17  21
ATOM     21  C   LIG    1       -2.416   1.793  -0.484  0.00  0.00    +0.161 C 
BRANCH  21  22
ATOM     22  O   LIG    1       -3.692   2.341  -0.604  0.00  0.00    -0.395 OA
ATOM     23  H   LIG    1       -4.146   2.077  -1.439  0.00  0.00    +0.209 HD
ENDBRANCH  21  22
ENDBRANCH  17  21
ENDBRANCH  16  17
ENDBRANCH  15  16
ENDBRANCH   1  15
TORSDOF 8
