REMARK  Name = molecules/JNYSEDHQJCOWQU-LURJTMIESA-N.pdb
REMARK                            x       y       z     vdW  Elec       q    Type
REMARK                         _______ _______ _______ _____ _____    ______ ____
ROOT
ATOM      1  C   LIG    1       -0.285   0.022   0.106  0.00  0.00    +0.137 C 
ATOM      2  C   LIG    1       -0.007   1.285  -0.695  0.00  0.00    +0.029 C 
ENDROOT
BRANCH   1   3
ATOM      3  C   LIG    1       -1.742  -0.263  -0.032  0.00  0.00    +0.227 C 
ATOM      4  N   LIG    1       -2.661   0.681   0.478  0.00  0.00    -0.304 N 
ATOM      5  H   LIG    1       -2.312   1.567   0.944  0.00  0.00    +0.149 HD
ATOM      6  O   LIG    1       -2.152  -1.298  -0.583  0.00  0.00    -0.275 OA
BRANCH   4   7
ATOM      7  C   LIG    1       -4.085   0.397   0.354  0.00  0.00    +0.224 C 
BRANCH   7   8
ATOM      8  C   LIG    1       -4.413   0.252  -1.071  0.00  0.00    +0.322 C 
ATOM      9  O   LIG    1       -3.573   0.481  -1.957  0.00  0.00    -0.249 OA
BRANCH   8  10
ATOM     10  O   LIG    1       -5.715  -0.162  -1.409  0.00  0.00    -0.480 OA
ATOM     11  H   LIG    1       -5.856  -1.111  -1.791  0.00  0.00    +0.295 HD
ENDBRANCH   8  10
ENDBRANCH   7   8
ENDBRANCH   4   7
ENDBRANCH   1   3
BRANCH   1  12
ATOM     12  S   LIG    1        0.630  -1.407  -0.483  0.00  0.00    -0.070 S 
BRANCH  12  13
ATOM     13  C   LIG    1        2.039  -1.795   0.473  0.00  0.00    +0.227 C 
ATOM     14  O   LIG    1        1.980  -2.639   1.428  0.00  0.00    -0.279 OA
BRANCH  13  15
ATOM     15  C   LIG    1        3.338  -1.162   0.215  0.00  0.00    +0.066 A 
ATOM     16  S   LIG    1        4.822  -1.353   0.989  0.00  0.00    -0.093 S 
ATOM     17  C   LIG    1        5.774  -0.279   0.082  0.00  0.00    +0.046 A 
ATOM     18  C   LIG    1        4.873   0.221  -0.834  0.00  0.00    +0.008 A 
ATOM     19  C   LIG    1        3.604  -0.235  -0.770  0.00  0.00    +0.020 A 
ENDBRANCH  13  15
ENDBRANCH  12  13
ENDBRANCH   1  12
TORSDOF 7
