REMARK  Name = molecules/JOAHPSVPXZTVEP-YXJHDRRASA-N.pdb
REMARK                            x       y       z     vdW  Elec       q    Type
REMARK                         _______ _______ _______ _____ _____    ______ ____
ROOT
ATOM      1  C   LIG    1       -1.515  -1.197  -2.885  0.00  0.00    +0.105 C 
ATOM      2  N   LIG    1       -1.179  -1.649  -1.565  0.00  0.00    -0.300 NA
ATOM      3  C   LIG    1       -2.034  -1.130  -0.520  0.00  0.00    +0.068 C 
ATOM      4  C   LIG    1       -1.714   0.307  -0.339  0.00  0.00    +0.039 C 
ATOM      5  C   LIG    1       -2.747   1.044   0.419  0.00  0.00    -0.033 A 
ATOM      6  C   LIG    1       -2.504   2.241   1.085  0.00  0.00    +0.004 A 
ATOM      7  C   LIG    1       -3.586   2.824   1.758  0.00  0.00    +0.002 A 
ATOM      8  C   LIG    1       -4.840   2.252   1.770  0.00  0.00    +0.026 A 
ATOM      9  C   LIG    1       -5.093   1.050   1.104  0.00  0.00    +0.047 A 
ATOM     10  N   LIG    1       -6.164   0.259   0.928  0.00  0.00    -0.360 N 
ATOM     11  H   LIG    1       -7.106   0.431   1.308  0.00  0.00    +0.165 HD
ATOM     12  C   LIG    1       -5.754  -0.774   0.174  0.00  0.00    +0.087 A 
ATOM     13  C   LIG    1       -4.427  -0.636  -0.127  0.00  0.00    -0.021 A 
ATOM     14  C   LIG    1       -4.005   0.513   0.457  0.00  0.00    +0.006 A 
ATOM     15  C   LIG    1       -0.350   0.414   0.290  0.00  0.00    +0.033 C 
ATOM     16  C   LIG    1        0.547  -0.739  -0.043  0.00  0.00    +0.089 C 
ATOM     17  C   LIG    1       -3.459  -1.442  -0.900  0.00  0.00    +0.056 C 
ATOM     18  C   LIG    1        0.200  -1.444  -1.314  0.00  0.00    +0.106 C 
ENDROOT
BRANCH  16  19
ATOM     19  N   LIG    1        1.898  -0.191  -0.210  0.00  0.00    -0.295 N 
ATOM     20  C   LIG    1        2.961  -0.566   0.651  0.00  0.00    +0.302 C 
ATOM     21  O   LIG    1        2.689  -1.400   1.577  0.00  0.00    -0.253 OA
ATOM     22  N   LIG    1        4.288  -0.090   0.564  0.00  0.00    -0.286 N 
ATOM     23  H   LIG    1        2.105   0.492  -0.968  0.00  0.00    +0.151 HD
BRANCH  22  24
ATOM     24  C   LIG    1        5.263  -0.564   1.532  0.00  0.00    +0.106 C 
ATOM     25  C   LIG    1        5.961  -1.817   1.044  0.00  0.00    +0.024 C 
ENDBRANCH  22  24
BRANCH  22  26
ATOM     26  C   LIG    1        4.653   0.846  -0.481  0.00  0.00    +0.106 C 
ATOM     27  C   LIG    1        4.474   2.277  -0.103  0.00  0.00    +0.024 C 
ENDBRANCH  22  26
ENDBRANCH  16  19
TORSDOF 3
