REMARK  Name = molecules/JOHZPMXAZQZXHR-UHFFFAOYSA-N.pdb
REMARK                            x       y       z     vdW  Elec       q    Type
REMARK                         _______ _______ _______ _____ _____    ______ ____
ROOT
ATOM      1  N   LIG    1        2.257   0.602  -0.448  0.00  0.00    -0.331 N 
ATOM      2  C   LIG    1        1.234   0.198   0.354  0.00  0.00    +0.149 A 
ATOM      3  C   LIG    1        1.467  -0.373   1.584  0.00  0.00    +0.083 A 
ATOM      4  C   LIG    1        0.421  -0.777   2.384  0.00  0.00    +0.129 A 
ATOM      5  N   LIG    1       -0.818  -0.602   1.940  0.00  0.00    -0.222 NA
ATOM      6  C   LIG    1       -1.098  -0.053   0.754  0.00  0.00    +0.220 A 
ATOM      7  C   LIG    1        2.763  -0.543   2.021  0.00  0.00    +0.206 A 
ATOM      8  O   LIG    1        3.037  -1.055   3.127  0.00  0.00    -0.286 OA
ATOM      9  C   LIG    1        3.825  -0.137   1.218  0.00  0.00    +0.122 A 
ATOM     10  N   LIG    1       -0.052   0.335  -0.011  0.00  0.00    -0.196 NA
ATOM     11  C   LIG    1        3.511   0.419   0.014  0.00  0.00    +0.106 A 
ENDROOT
BRANCH   6  12
ATOM     12  N   LIG    1       -2.445   0.119   0.309  0.00  0.00    -0.297 N 
ATOM     13  C   LIG    1       -3.506  -0.318   1.179  0.00  0.00    +0.123 C 
ATOM     14  C   LIG    1       -4.832  -0.452   0.489  0.00  0.00    +0.100 C 
ATOM     15  N   LIG    1       -4.684  -0.559  -0.958  0.00  0.00    -0.313 NA
ATOM     16  H   LIG    1       -3.984  -1.311  -1.153  0.00  0.00    +0.122 HD
ATOM     17  C   LIG    1       -4.096   0.692  -1.403  0.00  0.00    +0.100 C 
ATOM     18  C   LIG    1       -2.658   0.720  -0.983  0.00  0.00    +0.123 C 
ENDBRANCH   6  12
BRANCH   1  19
ATOM     19  C   LIG    1        1.969   1.200  -1.738  0.00  0.00    +0.120 C 
ATOM     20  C   LIG    1        1.921   0.042  -2.737  0.00  0.00    +0.027 C 
ENDBRANCH   1  19
BRANCH   9  21
ATOM     21  C   LIG    1        5.183  -0.311   1.667  0.00  0.00    +0.342 C 
ATOM     22  O   LIG    1        6.124   0.054   0.943  0.00  0.00    -0.245 OA
BRANCH  21  23
ATOM     23  O   LIG    1        5.438  -0.879   2.890  0.00  0.00    -0.477 OA
ATOM     24  H   LIG    1        5.263  -1.863   3.111  0.00  0.00    +0.295 HD
ENDBRANCH  21  23
ENDBRANCH   9  21
TORSDOF 4
