REMARK  Name = molecules/JOLJIIDDOBNFHW-UHFFFAOYSA-N.pdb
REMARK                            x       y       z     vdW  Elec       q    Type
REMARK                         _______ _______ _______ _____ _____    ______ ____
ROOT
ATOM      1  C   LIG    1       -0.277  -0.267  -0.845  0.00  0.00    +0.250 A 
ATOM      2  C   LIG    1       -1.571  -0.583  -1.162  0.00  0.00    +0.140 A 
ATOM      3  N   LIG    1       -1.819  -0.752  -2.469  0.00  0.00    -0.187 NA
ATOM      4  S   LIG    1       -0.359  -0.494  -3.224  0.00  0.00    +0.119 S 
ATOM      5  N   LIG    1        0.566  -0.170  -1.877  0.00  0.00    -0.154 NA
ENDROOT
BRANCH   2   6
ATOM      6  C   LIG    1       -2.689  -0.746  -0.185  0.00  0.00    -0.006 C 
ATOM      7  C   LIG    1       -2.573  -0.608   1.108  0.00  0.00    -0.019 C 
ATOM      8  C   LIG    1       -3.830  -0.817   1.908  0.00  0.00    +0.043 C 
ATOM      9  C   LIG    1       -4.983  -0.055   1.278  0.00  0.00    +0.088 C 
ATOM     10  N   LIG    1       -4.958  -0.082  -0.153  0.00  0.00    -0.301 NA
ATOM     11  C   LIG    1       -4.611   1.244  -0.644  0.00  0.00    +0.105 C 
ATOM     12  C   LIG    1       -4.064  -1.093  -0.657  0.00  0.00    +0.121 C 
ENDBRANCH   2   6
BRANCH   1  13
ATOM     13  O   LIG    1        0.194  -0.044   0.467  0.00  0.00    -0.475 OA
BRANCH  13  14
ATOM     14  C   LIG    1        1.543   0.267   0.727  0.00  0.00    +0.231 C 
BRANCH  14  15
ATOM     15  C   LIG    1        2.414  -0.855   0.321  0.00  0.00    +0.041 C 
BRANCH  15  16
ATOM     16  C   LIG    1        3.871  -0.736   0.514  0.00  0.00    +0.003 C 
BRANCH  16  17
ATOM     17  C   LIG    1        4.699   0.215  -0.221  0.00  0.00    -0.000 C 
BRANCH  17  18
ATOM     18  C   LIG    1        4.362   1.644  -0.088  0.00  0.00    -0.003 C 
ATOM     19  C   LIG    1        5.417   2.519  -0.836  0.00  0.00    +0.004 C 
ENDBRANCH  17  18
ENDBRANCH  16  17
ENDBRANCH  15  16
ENDBRANCH  14  15
ENDBRANCH  13  14
ENDBRANCH   1  13
TORSDOF 7
