REMARK  Name = molecules/JOOXLOJCABQBSG-UHFFFAOYSA-N.pdb
REMARK                            x       y       z     vdW  Elec       q    Type
REMARK                         _______ _______ _______ _____ _____    ______ ____
ROOT
ATOM      1  C   LIG    1        0.104   0.817   0.363  0.00  0.00    +0.221 A 
ATOM      2  N   LIG    1        0.590   0.637   1.600  0.00  0.00    -0.222 NA
ATOM      3  C   LIG    1       -0.145   0.636   2.716  0.00  0.00    +0.121 A 
ATOM      4  C   LIG    1       -1.504   0.831   2.643  0.00  0.00    +0.008 A 
ATOM      5  C   LIG    1       -2.362   0.841   3.848  0.00  0.00    +0.049 C 
ATOM      6  C   LIG    1       -2.045   1.023   1.359  0.00  0.00    +0.131 A 
ATOM      7  N   LIG    1       -1.234   1.008   0.294  0.00  0.00    -0.199 NA
ENDROOT
BRANCH   1   8
ATOM      8  N   LIG    1        0.900   0.816  -0.802  0.00  0.00    -0.284 N 
ATOM      9  H   LIG    1        0.327   0.972  -1.710  0.00  0.00    +0.155 HD
BRANCH   8  12
ATOM     10  C   LIG    1        4.525   0.447   0.023  0.00  0.00    +0.047 A 
ATOM     11  C   LIG    1        3.133   0.612   0.166  0.00  0.00    +0.027 A 
ATOM     12  C   LIG    1        2.292   0.642  -0.896  0.00  0.00    +0.034 A 
ATOM     13  C   LIG    1        2.878   0.498  -2.169  0.00  0.00    +0.027 A 
ATOM     14  C   LIG    1        4.232   0.336  -2.329  0.00  0.00    +0.047 A 
ATOM     15  C   LIG    1        5.070   0.309  -1.225  0.00  0.00    +0.121 A 
BRANCH  15  16
ATOM     16  O   LIG    1        6.430   0.142  -1.449  0.00  0.00    -0.491 OA
BRANCH  16  17
ATOM     17  C   LIG    1        7.275   0.117  -0.295  0.00  0.00    +0.244 C 
BRANCH  17  18
ATOM     18  C   LIG    1        8.709  -0.064  -0.654  0.00  0.00    +0.125 C 
BRANCH  18  19
ATOM     19  N   LIG    1        8.913  -1.294  -1.368  0.00  0.00    -0.299 NA
ATOM     20  C   LIG    1        8.693  -2.407  -0.478  0.00  0.00    +0.084 C 
ATOM     21  C   LIG    1        9.891  -2.296   0.440  0.00  0.00    +0.017 C 
ATOM     22  C   LIG    1       10.975  -1.641  -0.363  0.00  0.00    +0.017 C 
ATOM     23  C   LIG    1       10.336  -1.357  -1.708  0.00  0.00    +0.084 C 
ENDBRANCH  18  19
ENDBRANCH  17  18
ENDBRANCH  16  17
ENDBRANCH  15  16
ENDBRANCH   8  12
ENDBRANCH   1   8
BRANCH   6  24
ATOM     24  N   LIG    1       -3.438   1.218   1.269  0.00  0.00    -0.299 N 
ATOM     25  H   LIG    1       -3.971   1.201   2.199  0.00  0.00    +0.154 HD
BRANCH  24  26
ATOM     26  C   LIG    1       -4.186   1.437   0.078  0.00  0.00    +0.034 A 
ATOM     27  C   LIG    1       -5.580   1.490   0.179  0.00  0.00    +0.051 A 
ATOM     28  C   LIG    1       -6.428   1.687  -0.877  0.00  0.00    +0.107 A 
ATOM     29  C   LIG    1       -5.843   1.841  -2.122  0.00  0.00    +0.028 A 
ATOM     30  C   LIG    1       -4.480   1.796  -2.274  0.00  0.00    +0.004 A 
ATOM     31  C   LIG    1       -3.645   1.593  -1.169  0.00  0.00    +0.023 A 
BRANCH  28  32
ATOM     32  S   LIG    1       -8.146   1.744  -0.615  0.00  0.00    +0.059 S 
ATOM     33  O   LIG    1       -8.339   2.258   0.801  0.00  0.00    -0.153 OA
ATOM     34  O   LIG    1       -8.777   2.784  -1.530  0.00  0.00    -0.153 OA
BRANCH  32  35
ATOM     35  N   LIG    1       -8.857   0.249  -0.875  0.00  0.00    -0.185 NA
ATOM     36  H   LIG    1       -9.379   0.092  -1.737  0.00  0.00    +0.149 HD
BRANCH  35  37
ATOM     37  C   LIG    1       -8.489  -0.856  -0.083  0.00  0.00    +0.032 C 
ATOM     38  C   LIG    1       -8.558  -0.627   1.397  0.00  0.00    +0.029 C 
ATOM     39  C   LIG    1       -9.414  -2.031  -0.410  0.00  0.00    +0.029 C 
ATOM     40  C   LIG    1       -7.073  -1.325  -0.410  0.00  0.00    +0.029 C 
ENDBRANCH  35  37
ENDBRANCH  32  35
ENDBRANCH  28  32
ENDBRANCH  24  26
ENDBRANCH   6  24
TORSDOF 11
