REMARK  Name = molecules/JOWRFSPJFXLGGY-VIFPVBQESA-N.pdb
REMARK                            x       y       z     vdW  Elec       q    Type
REMARK                         _______ _______ _______ _____ _____    ______ ____
ROOT
ATOM      1  O   LIG    1        0.683  -1.790  -0.119  0.00  0.00    -0.270 OA
ATOM      2  C   LIG    1        0.303  -0.621  -0.291  0.00  0.00    +0.257 C 
ATOM      3  N   LIG    1       -1.015  -0.389  -0.357  0.00  0.00    -0.270 N 
ATOM      4  C   LIG    1       -2.046  -1.368  -0.246  0.00  0.00    +0.075 C 
ATOM      5  C   LIG    1       -3.021  -0.888   0.825  0.00  0.00    +0.022 C 
ATOM      6  C   LIG    1       -3.517   0.496   0.590  0.00  0.00    +0.006 C 
ATOM      7  C   LIG    1       -2.881   1.128  -0.616  0.00  0.00    +0.050 C 
ATOM      8  C   LIG    1       -1.580  -2.725   0.153  0.00  0.00    +0.028 C 
ATOM      9  C   LIG    1       -1.411   0.902  -0.546  0.00  0.00    +0.142 C 
ATOM     10  N   LIG    1       -0.577   1.925  -0.668  0.00  0.00    -0.314 N 
ATOM     11  C   LIG    1        0.747   1.713  -0.605  0.00  0.00    +0.092 C 
ATOM     12  C   LIG    1       -1.136   3.257  -0.867  0.00  0.00    +0.131 C 
ATOM     13  C   LIG    1        1.196   0.423  -0.414  0.00  0.00    +0.134 C 
ENDROOT
BRANCH  13  14
ATOM     14  C   LIG    1        2.632   0.164  -0.341  0.00  0.00    +0.345 C 
ATOM     15  O   LIG    1        3.467   1.099  -0.451  0.00  0.00    -0.245 OA
BRANCH  14  16
ATOM     16  O   LIG    1        3.102  -1.118  -0.151  0.00  0.00    -0.461 OA
BRANCH  16  17
ATOM     17  C   LIG    1        4.496  -1.343  -0.084  0.00  0.00    +0.229 C 
ATOM     18  C   LIG    1        5.133  -0.566   1.070  0.00  0.00    +0.048 C 
ENDBRANCH  16  17
ENDBRANCH  14  16
ENDBRANCH  13  14
TORSDOF 3
