REMARK  Name = molecules/JPYYWXPAHJBKJX-JNRDNZLTSA-N.pdb
REMARK                            x       y       z     vdW  Elec       q    Type
REMARK                         _______ _______ _______ _____ _____    ______ ____
ROOT
ATOM      1  C   LIG    1       -0.071  -0.833  -0.652  0.00  0.00    +0.163 C 
ATOM      2  C   LIG    1       -0.951  -1.853  -0.102  0.00  0.00    +0.204 C 
ATOM      3  O   LIG    1       -0.561  -2.359   1.025  0.00  0.00    -0.215 OA
ATOM      4  C   LIG    1       -2.196  -2.408  -0.600  0.00  0.00    -0.035 C 
ATOM      5  C   LIG    1       -2.212  -3.934  -0.717  0.00  0.00    +0.042 C 
ATOM      6  C   LIG    1       -3.292  -1.769  -0.936  0.00  0.00    -0.021 C 
ATOM      7  C   LIG    1       -3.661  -0.388  -0.941  0.00  0.00    +0.021 C 
ATOM      8  C   LIG    1       -3.937   0.352   0.248  0.00  0.00    +0.003 C 
ATOM      9  C   LIG    1       -3.560  -0.188   1.594  0.00  0.00    +0.009 C 
ATOM     10  C   LIG    1       -2.664   0.684   2.394  0.00  0.00    +0.034 C 
ATOM     11  C   LIG    1       -1.619   1.388   1.655  0.00  0.00    -0.036 C 
ATOM     12  C   LIG    1       -0.295   0.779   1.289  0.00  0.00    +0.213 C 
ATOM     13  C   LIG    1       -1.856   2.639   1.288  0.00  0.00    +0.011 C 
ATOM     14  C   LIG    1       -5.118  -0.154  -0.483  0.00  0.00    -0.025 C 
ATOM     15  C   LIG    1       -5.894  -1.302   0.068  0.00  0.00    +0.012 C 
ATOM     16  C   LIG    1       -5.935   0.774  -1.372  0.00  0.00    +0.012 C 
ATOM     17  C   LIG    1       -0.248   0.576  -0.164  0.00  0.00    +0.122 C 
ATOM     18  C   LIG    1        0.822   1.265  -0.933  0.00  0.00    +0.191 C 
ATOM     19  C   LIG    1        0.602   0.679  -2.310  0.00  0.00    +0.031 C 
ATOM     20  C   LIG    1        1.926   0.414  -3.006  0.00  0.00    +0.011 C 
ATOM     21  C   LIG    1       -0.148  -0.623  -2.124  0.00  0.00    +0.059 C 
ENDROOT
BRANCH   1  22
ATOM     22  O   LIG    1        1.278  -1.291  -0.412  0.00  0.00    -0.454 OA
BRANCH  22  23
ATOM     23  C   LIG    1        1.688  -2.548  -0.779  0.00  0.00    +0.305 C 
ATOM     24  C   LIG    1        3.095  -2.979  -0.504  0.00  0.00    +0.136 C 
ATOM     25  O   LIG    1        0.861  -3.304  -1.339  0.00  0.00    -0.251 OA
ENDBRANCH  22  23
ENDBRANCH   1  22
BRANCH  12  26
ATOM     26  O   LIG    1        0.775   1.479   1.861  0.00  0.00    -0.457 OA
BRANCH  26  27
ATOM     27  C   LIG    1        1.648   1.043   2.805  0.00  0.00    +0.305 C 
ATOM     28  C   LIG    1        2.765   1.830   3.378  0.00  0.00    +0.136 C 
ATOM     29  O   LIG    1        1.496  -0.121   3.226  0.00  0.00    -0.251 OA
ENDBRANCH  26  27
ENDBRANCH  12  26
BRANCH  18  30
ATOM     30  O   LIG    1        2.141   0.990  -0.590  0.00  0.00    -0.457 OA
BRANCH  30  31
ATOM     31  C   LIG    1        3.117   1.971  -0.439  0.00  0.00    +0.339 C 
ATOM     32  O   LIG    1        2.683   3.134  -0.643  0.00  0.00    -0.245 OA
BRANCH  31  33
ATOM     33  C   LIG    1        4.498   1.695  -0.083  0.00  0.00    +0.059 A 
ATOM     34  C   LIG    1        4.942   0.412   0.136  0.00  0.00    +0.015 A 
ATOM     35  C   LIG    1        6.238   0.090   0.474  0.00  0.00    +0.001 A 
ATOM     36  C   LIG    1        7.162   1.088   0.608  0.00  0.00    +0.000 A 
ATOM     37  C   LIG    1        6.756   2.392   0.396  0.00  0.00    +0.001 A 
ATOM     38  C   LIG    1        5.439   2.703   0.054  0.00  0.00    +0.015 A 
ENDBRANCH  31  33
ENDBRANCH  30  31
ENDBRANCH  18  30
TORSDOF 7
