REMARK  Name = molecules/JQSAYKKFZOSZGJ-UHFFFAOYSA-N.pdb
REMARK                            x       y       z     vdW  Elec       q    Type
REMARK                         _______ _______ _______ _____ _____    ______ ____
ROOT
ATOM      1  N   LIG    1       -2.202   0.380  -0.023  0.00  0.00    -0.289 NA
ATOM      2  C   LIG    1       -1.900  -0.734   0.760  0.00  0.00    +0.100 C 
ATOM      3  C   LIG    1       -0.442  -1.089   0.883  0.00  0.00    +0.100 C 
ATOM      4  N   LIG    1        0.487  -0.124   0.646  0.00  0.00    -0.296 NA
ATOM      5  C   LIG    1       -0.108   1.228   0.366  0.00  0.00    +0.100 C 
ATOM      6  C   LIG    1       -1.139   1.000  -0.703  0.00  0.00    +0.100 C 
ENDROOT
BRANCH   1   7
ATOM      7  C   LIG    1       -3.476   0.433  -0.702  0.00  0.00    +0.117 C 
BRANCH   7   8
ATOM      8  C   LIG    1       -4.234   1.530  -0.057  0.00  0.00    -0.026 A 
ATOM      9  C   LIG    1       -3.583   2.562   0.615  0.00  0.00    +0.008 A 
ATOM     10  C   LIG    1       -4.203   3.610   1.253  0.00  0.00    +0.038 A 
ATOM     11  C   LIG    1       -5.584   3.657   1.229  0.00  0.00    +0.123 A 
ATOM     12  F   LIG    1       -6.256   4.673   1.838  0.00  0.00    -0.205 F 
ATOM     13  C   LIG    1       -6.240   2.655   0.570  0.00  0.00    +0.038 A 
ATOM     14  C   LIG    1       -5.613   1.610  -0.063  0.00  0.00    +0.008 A 
ENDBRANCH   7   8
BRANCH   7  15
ATOM     15  C   LIG    1       -4.118  -0.916  -0.526  0.00  0.00    -0.026 A 
ATOM     16  C   LIG    1       -4.788  -1.177   0.627  0.00  0.00    +0.008 A 
ATOM     17  C   LIG    1       -5.239  -2.446   0.844  0.00  0.00    +0.038 A 
ATOM     18  C   LIG    1       -5.027  -3.462  -0.097  0.00  0.00    +0.123 A 
ATOM     19  F   LIG    1       -5.490  -4.733   0.147  0.00  0.00    -0.205 F 
ATOM     20  C   LIG    1       -4.346  -3.136  -1.245  0.00  0.00    +0.038 A 
ATOM     21  C   LIG    1       -3.873  -1.871  -1.492  0.00  0.00    +0.008 A 
ENDBRANCH   7  15
ENDBRANCH   1   7
BRANCH   4  22
ATOM     22  C   LIG    1        1.599  -0.132  -0.166  0.00  0.00    +0.123 C 
BRANCH  22  23
ATOM     23  C   LIG    1        2.862  -0.838   0.084  0.00  0.00    +0.012 A 
ATOM     24  C   LIG    1        3.883   0.124   0.485  0.00  0.00    +0.170 A 
ATOM     25  C   LIG    1        5.150  -0.311   0.439  0.00  0.00    +0.204 A 
ATOM     26  C   LIG    1        5.564  -1.610   0.038  0.00  0.00    +0.165 A 
ATOM     27  C   LIG    1        4.552  -2.498  -0.328  0.00  0.00    +0.050 A 
ATOM     28  C   LIG    1        3.223  -2.099  -0.296  0.00  0.00    +0.012 A 
BRANCH  24  29
ATOM     29  O   LIG    1        3.533   1.335   0.869  0.00  0.00    -0.491 OA
ATOM     30  C   LIG    1        3.254   2.599   0.691  0.00  0.00    +0.277 C 
ENDBRANCH  24  29
BRANCH  25  31
ATOM     31  O   LIG    1        6.145   0.631   0.831  0.00  0.00    -0.488 OA
ATOM     32  C   LIG    1        6.539   1.444  -0.296  0.00  0.00    +0.277 C 
ENDBRANCH  25  31
BRANCH  26  33
ATOM     33  O   LIG    1        6.857  -1.847   0.045  0.00  0.00    -0.491 OA
ATOM     34  C   LIG    1        7.955  -2.516  -0.110  0.00  0.00    +0.277 C 
ENDBRANCH  26  33
ENDBRANCH  22  23
ENDBRANCH   4  22
TORSDOF 8
