REMARK  Name = molecules/JQSHBVHOMNKWFT-DTORHVGOSA-N.pdb
REMARK                            x       y       z     vdW  Elec       q    Type
REMARK                         _______ _______ _______ _____ _____    ______ ____
ROOT
ATOM      1  N   LIG    1        3.358   1.092  -0.799  0.00  0.00    -0.252 NA
ATOM      2  C   LIG    1        2.196   0.584  -0.312  0.00  0.00    +0.089 A 
ATOM      3  C   LIG    1        2.147  -0.641   0.327  0.00  0.00    +0.089 A 
ATOM      4  C   LIG    1        0.957  -1.133   0.812  0.00  0.00    +0.034 A 
ATOM      5  C   LIG    1       -0.215  -0.422   0.675  0.00  0.00    -0.037 A 
ATOM      6  C   LIG    1       -1.617  -0.716   1.100  0.00  0.00    +0.034 C 
ATOM      7  C   LIG    1       -2.188   0.691   1.259  0.00  0.00    +0.019 C 
ATOM      8  C   LIG    1       -1.581   1.356   0.029  0.00  0.00    +0.034 C 
ATOM      9  C   LIG    1       -2.336   0.798  -1.167  0.00  0.00    +0.089 C 
ATOM     10  N   LIG    1       -3.108  -0.373  -0.818  0.00  0.00    -0.315 NA
ATOM     11  H   LIG    1       -3.458  -0.809  -1.676  0.00  0.00    +0.122 HD
ATOM     12  C   LIG    1       -2.317  -1.339  -0.076  0.00  0.00    +0.089 C 
ATOM     13  C   LIG    1       -0.196   0.801   0.044  0.00  0.00    -0.037 A 
ATOM     14  N   LIG    1        3.305  -1.339   0.460  0.00  0.00    -0.252 NA
ATOM     15  C   LIG    1        4.478  -0.848  -0.022  0.00  0.00    +0.131 A 
ATOM     16  C   LIG    1        1.005   1.277  -0.435  0.00  0.00    +0.034 A 
ATOM     17  C   LIG    1        4.486   0.377  -0.652  0.00  0.00    +0.131 A 
ENDROOT
TORSDOF 0
