REMARK  Name = molecules/JQSHEDRVRBSFCZ-YWZLYKJASA-N.pdb
REMARK                            x       y       z     vdW  Elec       q    Type
REMARK                         _______ _______ _______ _____ _____    ______ ____
ROOT
ATOM      1  C   LIG    1       -0.747  -1.421   0.203  0.00  0.00    +0.109 C 
ENDROOT
BRANCH   1   3
ATOM      2  C   LIG    1       -2.658   0.068  -0.347  0.00  0.00    -0.012 C 
ATOM      3  C   LIG    1       -1.382  -0.174  -0.208  0.00  0.00    -0.003 C 
BRANCH   2   4
ATOM      4  C   LIG    1       -3.689  -0.995  -0.235  0.00  0.00    -0.011 A 
ATOM      5  C   LIG    1       -4.941  -0.769   0.222  0.00  0.00    +0.016 A 
ATOM      6  C   LIG    1       -5.836  -1.793   0.164  0.00  0.00    +0.046 A 
ATOM      7  S   LIG    1       -4.933  -3.058  -0.522  0.00  0.00    -0.104 S 
ATOM      8  C   LIG    1       -3.440  -2.255  -0.721  0.00  0.00    +0.053 A 
ENDBRANCH   2   4
BRANCH   2   9
ATOM      9  C   LIG    1       -3.095   1.446  -0.768  0.00  0.00    -0.011 A 
ATOM     10  C   LIG    1       -2.277   2.511  -0.719  0.00  0.00    +0.016 A 
ATOM     11  C   LIG    1       -2.756   3.703  -1.195  0.00  0.00    +0.046 A 
ATOM     12  S   LIG    1       -4.328   3.316  -1.699  0.00  0.00    -0.104 S 
ATOM     13  C   LIG    1       -4.342   1.651  -1.295  0.00  0.00    +0.053 A 
ENDBRANCH   2   9
ENDBRANCH   1   3
BRANCH   1  14
ATOM     14  N   LIG    1        0.110  -1.125   1.362  0.00  0.00    -0.307 NA
ATOM     15  H   LIG    1        0.345  -1.962   1.897  0.00  0.00    +0.123 HD
BRANCH  14  16
ATOM     16  C   LIG    1        1.243  -0.314   1.055  0.00  0.00    +0.084 C 
ATOM     17  C   LIG    1        1.961  -0.064   2.378  0.00  0.00    +0.027 C 
BRANCH  16  18
ATOM     18  C   LIG    1        2.132  -1.037   0.084  0.00  0.00    +0.161 C 
BRANCH  18  19
ATOM     19  C   LIG    1        3.305  -0.224  -0.327  0.00  0.00    -0.018 A 
ATOM     20  C   LIG    1        4.414  -0.130   0.479  0.00  0.00    +0.006 A 
ATOM     21  C   LIG    1        5.488   0.648   0.038  0.00  0.00    +0.000 A 
ATOM     22  C   LIG    1        5.448   1.311  -1.174  0.00  0.00    +0.000 A 
ATOM     23  C   LIG    1        4.332   1.216  -1.985  0.00  0.00    +0.000 A 
ATOM     24  C   LIG    1        3.300   0.449  -1.527  0.00  0.00    +0.006 A 
ENDBRANCH  18  19
BRANCH  18  25
ATOM     25  O   LIG    1        2.599  -2.244   0.573  0.00  0.00    -0.386 OA
ATOM     26  H   LIG    1        2.883  -2.776  -0.232  0.00  0.00    +0.210 HD
ENDBRANCH  18  25
ENDBRANCH  16  18
ENDBRANCH  14  16
ENDBRANCH   1  14
TORSDOF 8
