REMARK  Name = molecules/JQXXHWHPUNPDRT-OIZHSVSBSA-N.pdb
REMARK                            x       y       z     vdW  Elec       q    Type
REMARK                         _______ _______ _______ _____ _____    ______ ____
ROOT
ATOM      1  C   LIG    1        1.491   1.986  -2.822  0.00  0.00    +0.071 A 
ATOM      2  C   LIG    1        1.363   2.252  -1.472  0.00  0.00    +0.046 A 
ATOM      3  C   LIG    1        1.685   1.236  -0.633  0.00  0.00    +0.136 A 
ATOM      4  C   LIG    1        2.112  -0.069  -1.115  0.00  0.00    +0.061 A 
ATOM      5  C   LIG    1        2.188  -0.336  -2.461  0.00  0.00    +0.088 A 
ATOM      6  N   LIG    1        2.105  -1.742  -2.996  0.00  0.00    -0.281 N 
ATOM      7  C   LIG    1        3.051  -2.725  -3.177  0.00  0.00    +0.224 C 
ATOM      8  C   LIG    1        3.502  -3.864  -2.361  0.00  0.00    +0.062 C 
ATOM      9  C   LIG    1        2.710  -4.580  -1.573  0.00  0.00    +0.013 C 
ATOM     10  C   LIG    1        1.604  -4.075  -0.795  0.00  0.00    +0.001 C 
ATOM     11  C   LIG    1        0.506  -3.431  -0.980  0.00  0.00    +0.002 C 
ATOM     12  C   LIG    1       -0.794  -3.681  -1.575  0.00  0.00    +0.018 C 
ATOM     13  C   LIG    1       -1.676  -2.468  -1.708  0.00  0.00    +0.123 C 
ATOM     14  C   LIG    1       -2.620  -2.167  -0.591  0.00  0.00    +0.044 C 
ATOM     15  C   LIG    1       -2.268  -1.025   0.318  0.00  0.00    +0.126 C 
ATOM     16  C   LIG    1       -3.451  -0.144   0.648  0.00  0.00    +0.056 C 
ATOM     17  C   LIG    1       -3.049   1.099   1.481  0.00  0.00    +0.187 C 
ATOM     18  C   LIG    1       -4.031   2.206   1.251  0.00  0.00    +0.056 C 
ATOM     19  C   LIG    1       -3.732   3.583   1.621  0.00  0.00    +0.130 C 
ATOM     20  C   LIG    1       -2.365   3.974   2.027  0.00  0.00    +0.058 C 
ATOM     21  C   LIG    1       -1.767   5.121   1.807  0.00  0.00    +0.158 C 
ATOM     22  O   LIG    1       -1.371   5.629   0.557  0.00  0.00    -0.327 OA
ATOM     23  C   LIG    1       -0.794   4.900  -0.399  0.00  0.00    +0.274 C 
ATOM     24  C   LIG    1        0.489   4.157   0.054  0.00  0.00    +0.238 C 
ATOM     25  O   LIG    1        0.822   4.318   1.236  0.00  0.00    -0.285 OA
ATOM     26  C   LIG    1       -1.698   3.833  -0.974  0.00  0.00    +0.098 C 
ATOM     27  O   LIG    1       -0.123   5.601  -1.455  0.00  0.00    -0.453 OA
ATOM     28  C   LIG    1        0.438   4.427  -2.152  0.00  0.00    +0.142 A 
ATOM     29  C   LIG    1        0.572   4.187  -3.481  0.00  0.00    +0.034 A 
ATOM     30  C   LIG    1        0.189   5.149  -4.562  0.00  0.00    +0.051 C 
ATOM     31  C   LIG    1       -4.601   2.171  -0.166  0.00  0.00    +0.014 C 
ATOM     32  C   LIG    1       -4.521  -0.858   1.412  0.00  0.00    +0.014 C 
ATOM     33  C   LIG    1       -3.075  -3.419   0.122  0.00  0.00    +0.013 C 
ATOM     34  C   LIG    1       -0.747  -4.436  -2.909  0.00  0.00    +0.010 C 
ATOM     35  C   LIG    1        4.974  -4.279  -2.451  0.00  0.00    +0.022 C 
ATOM     36  O   LIG    1        3.736  -2.693  -4.320  0.00  0.00    -0.275 OA
ATOM     37  H   LIG    1        1.095  -2.168  -3.355  0.00  0.00    +0.155 HD
ATOM     38  C   LIG    1        0.823   3.512  -1.194  0.00  0.00    +0.078 A 
ATOM     39  C   LIG    1        1.891   0.734  -3.359  0.00  0.00    +0.150 A 
ATOM     40  C   LIG    1        1.105   2.946  -3.780  0.00  0.00    +0.135 A 
ENDROOT
BRANCH   3  41
ATOM     41  O   LIG    1        1.709   1.123   0.782  0.00  0.00    -0.505 OA
ATOM     42  H   LIG    1        1.584   1.644   1.542  0.00  0.00    +0.292 HD
ENDBRANCH   3  41
BRANCH   4  43
ATOM     43  C   LIG    1        2.752  -0.765   0.081  0.00  0.00    +0.143 C 
ATOM     44  N   LIG    1        3.287  -1.861   0.225  0.00  0.00    -0.192 NA
BRANCH  44  45
ATOM     45  N   LIG    1        3.859  -2.471   1.312  0.00  0.00    -0.253 N 
ATOM     46  C   LIG    1        3.122  -2.723   2.510  0.00  0.00    +0.141 C 
ATOM     47  C   LIG    1        3.930  -2.230   3.690  0.00  0.00    +0.104 C 
ATOM     48  N   LIG    1        5.298  -2.717   3.677  0.00  0.00    -0.302 NA
ATOM     49  C   LIG    1        5.999  -2.000   4.745  0.00  0.00    +0.105 C 
ATOM     50  C   LIG    1        5.967  -2.310   2.446  0.00  0.00    +0.104 C 
ATOM     51  C   LIG    1        5.244  -2.859   1.235  0.00  0.00    +0.141 C 
ENDBRANCH  44  45
ENDBRANCH   4  43
BRANCH  19  52
ATOM     52  O   LIG    1       -4.651   3.989   2.637  0.00  0.00    -0.379 OA
ATOM     53  C   LIG    1       -5.473   5.018   2.216  0.00  0.00    +0.194 C 
ENDBRANCH  19  52
BRANCH  15  54
ATOM     54  O   LIG    1       -1.325  -0.219  -0.301  0.00  0.00    -0.391 OA
ATOM     55  H   LIG    1       -1.714   0.594  -0.714  0.00  0.00    +0.210 HD
ENDBRANCH  15  54
BRANCH  13  56
ATOM     56  O   LIG    1       -1.048  -1.308  -2.071  0.00  0.00    -0.391 OA
ATOM     57  H   LIG    1       -1.189  -1.013  -2.997  0.00  0.00    +0.210 HD
ENDBRANCH  13  56
BRANCH  39  58
ATOM     58  O   LIG    1        1.931   0.844  -4.737  0.00  0.00    -0.504 OA
ATOM     59  H   LIG    1        2.054   0.595  -5.593  0.00  0.00    +0.292 HD
ENDBRANCH  39  58
BRANCH  40  60
ATOM     60  O   LIG    1        1.264   2.650  -5.139  0.00  0.00    -0.506 OA
ATOM     61  H   LIG    1        0.998   3.312  -5.828  0.00  0.00    +0.292 HD
ENDBRANCH  40  60
BRANCH  17  62
ATOM     62  O   LIG    1       -3.233   0.653   2.832  0.00  0.00    -0.461 OA
BRANCH  62  63
ATOM     63  C   LIG    1       -2.250   0.488   3.753  0.00  0.00    +0.304 C 
ATOM     64  C   LIG    1       -2.657   0.011   5.120  0.00  0.00    +0.136 C 
ATOM     65  O   LIG    1       -1.059   0.731   3.453  0.00  0.00    -0.251 OA
ENDBRANCH  62  63
ENDBRANCH  17  62
TORSDOF 10
