REMARK  Name = molecules/JRURYQJSLYLRLN-BJMVGYQFSA-N.pdb
REMARK                            x       y       z     vdW  Elec       q    Type
REMARK                         _______ _______ _______ _____ _____    ______ ____
ROOT
ATOM      1  C   LIG    1        1.762   0.202   0.171  0.00  0.00    -0.018 A 
ATOM      2  C   LIG    1        2.408   0.188   1.382  0.00  0.00    +0.057 A 
ATOM      3  C   LIG    1        3.772   0.282   1.493  0.00  0.00    +0.161 A 
ATOM      4  C   LIG    1        4.592   0.401   0.356  0.00  0.00    +0.189 A 
ATOM      5  C   LIG    1        3.939   0.416  -0.852  0.00  0.00    +0.172 A 
ATOM      6  C   LIG    1        2.551   0.319  -0.949  0.00  0.00    +0.044 A 
ENDROOT
BRANCH   5   7
ATOM      7  N   LIG    1        4.655   0.518  -2.068  0.00  0.00    +0.060 N 
ATOM      8  O   LIG    1        5.856   1.151  -2.206  0.00  0.00    -0.126 OA
ATOM      9  O   LIG    1        4.200   0.009  -3.131  0.00  0.00    -0.126 OA
ENDBRANCH   5   7
BRANCH   1  10
ATOM     10  C   LIG    1        0.286   0.125   0.047  0.00  0.00    +0.032 C 
ATOM     11  C   LIG    1       -0.437  -0.773   0.649  0.00  0.00    +0.114 C 
BRANCH  11  12
ATOM     12  C   LIG    1       -1.855  -0.985   0.638  0.00  0.00    +0.257 C 
ATOM     13  O   LIG    1       -2.248  -1.991   1.396  0.00  0.00    -0.269 OA
ATOM     14  N   LIG    1       -2.899  -0.329  -0.018  0.00  0.00    -0.297 N 
BRANCH  14  15
ATOM     15  C   LIG    1       -4.306  -0.760   0.236  0.00  0.00    +0.105 C 
ATOM     16  C   LIG    1       -4.753  -1.800  -0.731  0.00  0.00    +0.024 C 
ENDBRANCH  14  15
BRANCH  14  17
ATOM     17  C   LIG    1       -2.768   0.753  -0.944  0.00  0.00    +0.105 C 
ATOM     18  C   LIG    1       -2.747   2.103  -0.278  0.00  0.00    +0.024 C 
ENDBRANCH  14  17
ENDBRANCH  11  12
BRANCH  11  19
ATOM     19  C   LIG    1        0.359  -1.730   1.447  0.00  0.00    +0.104 C 
ATOM     20  N   LIG    1        0.970  -2.503   2.064  0.00  0.00    -0.191 NA
ENDBRANCH  11  19
ENDBRANCH   1  10
BRANCH   3  21
ATOM     21  O   LIG    1        4.419   0.268   2.725  0.00  0.00    -0.503 OA
ATOM     22  H   LIG    1        3.858   0.187   3.542  0.00  0.00    +0.292 HD
ENDBRANCH   3  21
BRANCH   4  23
ATOM     23  O   LIG    1        5.962   0.490   0.520  0.00  0.00    -0.502 OA
ATOM     24  H   LIG    1        6.632   0.566  -0.204  0.00  0.00    +0.292 HD
ENDBRANCH   4  23
TORSDOF 8
