REMARK  Name = molecules/JRWZLRBJNMZMFE-CYBMUJFWSA-N.pdb
REMARK                            x       y       z     vdW  Elec       q    Type
REMARK                         _______ _______ _______ _____ _____    ______ ____
ROOT
ATOM      1  N   LIG    1        0.823  -0.230   0.358  0.00  0.00    -0.313 NA
ATOM      2  H   LIG    1        0.558   0.541   0.989  0.00  0.00    +0.122 HD
ENDROOT
BRANCH   1   4
ATOM      3  C   LIG    1        0.546  -2.616  -0.099  0.00  0.00    +0.024 C 
ATOM      4  C   LIG    1        0.009  -1.397   0.644  0.00  0.00    +0.051 C 
BRANCH   4   5
ATOM      5  C   LIG    1       -1.450  -1.176   0.316  0.00  0.00    +0.023 C 
BRANCH   5   6
ATOM      6  C   LIG    1       -1.997   0.019   1.041  0.00  0.00    +0.036 C 
BRANCH   6   7
ATOM      7  C   LIG    1       -3.454   0.226   0.712  0.00  0.00    -0.047 A 
ATOM      8  C   LIG    1       -4.461  -0.363   1.454  0.00  0.00    +0.007 A 
ATOM      9  C   LIG    1       -5.797  -0.182   1.156  0.00  0.00    +0.045 A 
ATOM     10  C   LIG    1       -6.179   0.605   0.090  0.00  0.00    +0.117 A 
ATOM     11  C   LIG    1       -5.183   1.196  -0.656  0.00  0.00    +0.045 A 
ATOM     12  C   LIG    1       -3.847   1.010  -0.351  0.00  0.00    +0.007 A 
BRANCH  10  13
ATOM     13  O   LIG    1       -7.527   0.789  -0.211  0.00  0.00    -0.507 OA
ATOM     14  H   LIG    1       -8.065   1.548   0.190  0.00  0.00    +0.292 HD
ENDBRANCH  10  13
ENDBRANCH   6   7
ENDBRANCH   5   6
ENDBRANCH   4   5
ENDBRANCH   1   4
BRANCH   1  15
ATOM     15  C   LIG    1        0.794   0.150  -1.022  0.00  0.00    +0.086 C 
BRANCH  15  16
ATOM     16  C   LIG    1        1.742   1.351  -1.146  0.00  0.00    +0.050 C 
BRANCH  16  17
ATOM     17  C   LIG    1        3.122   0.942  -0.735  0.00  0.00    -0.042 A 
ATOM     18  C   LIG    1        3.536   1.030   0.568  0.00  0.00    +0.052 A 
ATOM     19  C   LIG    1        4.827   0.634   0.930  0.00  0.00    +0.158 A 
ATOM     20  C   LIG    1        5.719   0.144  -0.018  0.00  0.00    +0.158 A 
ATOM     21  C   LIG    1        5.285   0.064  -1.320  0.00  0.00    +0.049 A 
ATOM     22  C   LIG    1        4.003   0.458  -1.675  0.00  0.00    +0.007 A 
BRANCH  19  23
ATOM     23  O   LIG    1        5.240   0.725   2.247  0.00  0.00    -0.503 OA
ATOM     24  H   LIG    1        4.592   1.079   2.936  0.00  0.00    +0.292 HD
ENDBRANCH  19  23
BRANCH  20  25
ATOM     25  O   LIG    1        6.987  -0.234   0.402  0.00  0.00    -0.503 OA
ATOM     26  H   LIG    1        7.632  -0.596  -0.308  0.00  0.00    +0.292 HD
ENDBRANCH  20  25
ENDBRANCH  16  17
ENDBRANCH  15  16
ENDBRANCH   1  15
TORSDOF 10
