REMARK  Name = molecules/JRWZLRBJNMZMFE-ZDUSSCGKSA-N.pdb
REMARK                            x       y       z     vdW  Elec       q    Type
REMARK                         _______ _______ _______ _____ _____    ______ ____
ROOT
ATOM      1  N   LIG    1       -0.061  -0.874  -0.865  0.00  0.00    -0.313 NA
ATOM      2  H   LIG    1        0.371  -1.236  -1.717  0.00  0.00    +0.122 HD
ENDROOT
BRANCH   1   3
ATOM      3  C   LIG    1        0.436  -1.543   0.293  0.00  0.00    +0.051 C 
ATOM      4  C   LIG    1        0.216  -3.042   0.287  0.00  0.00    +0.024 C 
BRANCH   3   5
ATOM      5  C   LIG    1        1.958  -1.323   0.301  0.00  0.00    +0.023 C 
BRANCH   5   6
ATOM      6  C   LIG    1        2.225   0.182   0.366  0.00  0.00    +0.036 C 
BRANCH   6   7
ATOM      7  C   LIG    1        3.661   0.500   0.381  0.00  0.00    -0.047 A 
ATOM      8  C   LIG    1        4.385   0.602   1.552  0.00  0.00    +0.007 A 
ATOM      9  C   LIG    1        5.743   0.909   1.553  0.00  0.00    +0.045 A 
ATOM     10  C   LIG    1        6.411   1.122   0.363  0.00  0.00    +0.117 A 
ATOM     11  C   LIG    1        5.687   1.021  -0.829  0.00  0.00    +0.045 A 
ATOM     12  C   LIG    1        4.343   0.716  -0.803  0.00  0.00    +0.007 A 
BRANCH  10  13
ATOM     13  O   LIG    1        7.761   1.429   0.334  0.00  0.00    -0.507 OA
ATOM     14  H   LIG    1        8.080   2.390   0.369  0.00  0.00    +0.292 HD
ENDBRANCH  10  13
ENDBRANCH   6   7
ENDBRANCH   5   6
ENDBRANCH   3   5
ENDBRANCH   1   3
BRANCH   1  15
ATOM     15  C   LIG    1       -1.489  -0.737  -0.923  0.00  0.00    +0.086 C 
BRANCH  15  16
ATOM     16  C   LIG    1       -2.023   0.212   0.122  0.00  0.00    +0.050 C 
BRANCH  16  17
ATOM     17  C   LIG    1       -3.478   0.350   0.057  0.00  0.00    -0.042 A 
ATOM     18  C   LIG    1       -4.367  -0.431   0.753  0.00  0.00    +0.007 A 
ATOM     19  C   LIG    1       -5.726  -0.259   0.657  0.00  0.00    +0.049 A 
ATOM     20  C   LIG    1       -6.234   0.743  -0.174  0.00  0.00    +0.158 A 
ATOM     21  C   LIG    1       -5.373   1.546  -0.888  0.00  0.00    +0.158 A 
ATOM     22  C   LIG    1       -4.017   1.337  -0.761  0.00  0.00    +0.052 A 
BRANCH  20  23
ATOM     23  O   LIG    1       -7.624   0.866  -0.227  0.00  0.00    -0.503 OA
ATOM     24  H   LIG    1       -8.017   1.586  -0.820  0.00  0.00    +0.292 HD
ENDBRANCH  20  23
BRANCH  21  25
ATOM     25  O   LIG    1       -5.901   2.544  -1.716  0.00  0.00    -0.503 OA
ATOM     26  H   LIG    1       -5.254   3.126  -2.232  0.00  0.00    +0.292 HD
ENDBRANCH  21  25
ENDBRANCH  16  17
ENDBRANCH  15  16
ENDBRANCH   1  15
TORSDOF 10
