REMARK  Name = molecules/JSDRRTOADPPCHY-HSQYWUDLSA-N.pdb
REMARK                            x       y       z     vdW  Elec       q    Type
REMARK                         _______ _______ _______ _____ _____    ______ ____
ROOT
ATOM      1  C   UNK A  1        0.605   0.404  -0.016  0.00  0.00    +0.138 C 
ATOM      2  C   UNK A  1        0.819   1.907  -0.226  0.00  0.00    +0.034 C 
ENDROOT
BRANCH   1   3
ATOM      3  C   UNK A  1        1.619   0.072   1.063  0.00  0.00    +0.233 C 
ATOM      4  O   UNK A  1        1.237  -0.272   2.189  0.00  0.00    -0.274 OA
ATOM      5  N   UNK A  1        2.987   0.178   0.706  0.00  0.00    -0.282 N 
ATOM      6  C   UNK A  1        3.955  -0.124   1.767  0.00  0.00    +0.189 C 
ATOM      7  C   UNK A  1        5.367  -0.011   1.214  0.00  0.00    +0.069 C 
ATOM      8  C   UNK A  1        5.475  -0.717  -0.101  0.00  0.00    -0.040 A 
ATOM      9  C   UNK A  1        6.494  -1.590  -0.367  0.00  0.00    +0.004 A 
ATOM     10  C   UNK A  1        6.513  -2.190  -1.607  0.00  0.00    +0.000 A 
ATOM     11  C   UNK A  1        5.521  -1.899  -2.532  0.00  0.00    +0.000 A 
ATOM     12  C   UNK A  1        4.482  -1.020  -2.264  0.00  0.00    +0.005 A 
ATOM     13  C   UNK A  1        4.500  -0.441  -1.011  0.00  0.00    -0.027 A 
ATOM     14  C   UNK A  1        3.442   0.541  -0.600  0.00  0.00    +0.144 C 
BRANCH   6  15
ATOM     15  C   UNK A  1        3.817   0.948   2.798  0.00  0.00    +0.326 C 
ATOM     16  O   UNK A  1        4.077   0.728   4.034  0.00  0.00    -0.249 OA
BRANCH  15  17
ATOM     17  O   UNK A  1        3.416   2.227   2.507  0.00  0.00    -0.479 OA
ATOM     18  H   UNK A  1        2.659   2.760   2.878  0.00  0.00    +0.295 HD
ENDBRANCH  15  17
ENDBRANCH   6  15
ENDBRANCH   1   3
BRANCH   1  19
ATOM     19  N   UNK A  1       -0.661   0.209   0.453  0.00  0.00    -0.294 NA
ATOM     20  H   UNK A  1       -0.882   0.395   1.450  0.00  0.00    +0.123 HD
BRANCH  19  21
ATOM     21  C   UNK A  0       -1.816   0.608  -0.353  0.00  0.00    +0.164 C 
BRANCH  21  22
ATOM     22  C   UNK A  0       -2.249   1.933   0.040  0.00  0.00    +0.324 C 
ATOM     23  O   UNK A  0       -1.929   2.987  -0.608  0.00  0.00    -0.249 OA
BRANCH  22  24
ATOM     24  O   UNK A  0       -3.019   2.224   1.168  0.00  0.00    -0.464 OA
BRANCH  24  25
ATOM     25  C   UNK A  0       -3.385   3.495   1.600  0.00  0.00    +0.229 C 
ATOM     26  C   UNK A  0       -4.323   4.282   0.772  0.00  0.00    +0.048 C 
ENDBRANCH  24  25
ENDBRANCH  22  24
ENDBRANCH  21  22
BRANCH  21  27
ATOM     27  C   UNK A  0       -2.699  -0.547  -0.514  0.00  0.00    +0.035 C 
BRANCH  27  28
ATOM     28  C   UNK A  0       -3.987  -0.479  -1.282  0.00  0.00    +0.037 C 
BRANCH  28  29
ATOM     29  C   UNK A  0       -4.521  -1.850  -1.098  0.00  0.00    -0.047 A 
ATOM     30  C   UNK A  0       -4.965  -2.125   0.207  0.00  0.00    +0.003 A 
ATOM     31  C   UNK A  0       -5.473  -3.391   0.541  0.00  0.00    +0.000 A 
ATOM     32  C   UNK A  0       -5.541  -4.361  -0.419  0.00  0.00    +0.000 A 
ATOM     33  C   UNK A  0       -5.112  -4.104  -1.716  0.00  0.00    +0.000 A 
ATOM     34  C   UNK A  0       -4.596  -2.825  -2.031  0.00  0.00    +0.003 A 
ENDBRANCH  28  29
ENDBRANCH  27  28
ENDBRANCH  21  27
ENDBRANCH  19  21
ENDBRANCH   1  19
TORSDOF 11
