REMARK  Name = molecules/JSDXOWVAHXDYCU-VXSYNFHWSA-N.pdb
REMARK                            x       y       z     vdW  Elec       q    Type
REMARK                         _______ _______ _______ _____ _____    ______ ____
ROOT
ATOM      1  C   UNK    1        0.373   0.602   0.400  0.00  0.00    +0.242 C 
ATOM      2  C   UNK    1       -0.644   0.638   1.531  0.00  0.00    +0.271 C 
ATOM      3  O   UNK    1       -0.615   0.975   2.755  0.00  0.00    -0.270 OA
ATOM      4  N   UNK    1       -1.631   0.142   0.601  0.00  0.00    -0.262 N 
ATOM      5  C   UNK    1       -2.879  -0.544   0.556  0.00  0.00    +0.175 C 
ATOM      6  C   UNK    1       -2.979  -1.586  -0.275  0.00  0.00    +0.033 C 
ATOM      7  C   UNK    1       -1.829  -2.071  -1.124  0.00  0.00    +0.082 C 
ATOM      8  S   UNK    1       -0.834  -0.731  -1.745  0.00  0.00    -0.133 S 
ATOM      9  C   UNK    1       -0.862   0.641  -0.553  0.00  0.00    +0.195 C 
ENDROOT
BRANCH   1  10
ATOM     10  N   UNK    1        1.130  -0.498   0.166  0.00  0.00    -0.277 N 
ATOM     11  H   UNK    1        0.172  -1.354   0.671  0.00  0.00    +0.152 HD
ATOM     12  C   UNK    1        1.877  -1.598  -0.068  0.00  0.00    +0.225 C 
ATOM     13  O   UNK    1        1.188  -2.692  -0.555  0.00  0.00    -0.275 OA
BRANCH  12  14
ATOM     14  C   UNK    1        3.284  -2.009   0.064  0.00  0.00    +0.164 C 
BRANCH  14  15
ATOM     15  S   UNK    1        4.362  -1.560  -1.268  0.00  0.00    -0.149 S 
BRANCH  15  16
ATOM     16  C   UNK    1        4.817   0.205  -1.086  0.00  0.00    +0.099 C 
BRANCH  16  17
ATOM     17  C   UNK    1        5.853   0.254   0.066  0.00  0.00    +0.171 C 
BRANCH  17  18
ATOM     18  N   UNK    1        7.060  -0.433  -0.550  0.00  0.00    -0.318 NA
ATOM     19  H   UNK    1        7.736  -0.526   0.232  0.00  0.00    +0.119 HD
ATOM     20  H   UNK    1        7.410   0.277  -1.244  0.00  0.00    +0.119 HD
ENDBRANCH  17  18
BRANCH  17  21
ATOM     21  C   UNK    1        6.303   1.564   0.434  0.00  0.00    +0.323 C 
ATOM     22  O   UNK    1        5.611   2.389   1.068  0.00  0.00    -0.249 OA
BRANCH  21  23
ATOM     23  O   UNK    1        7.596   2.017   0.078  0.00  0.00    -0.480 OA
ATOM     24  H   UNK    1        8.404   1.388   0.243  0.00  0.00    +0.295 HD
ENDBRANCH  21  23
ENDBRANCH  17  21
ENDBRANCH  16  17
ENDBRANCH  15  16
ENDBRANCH  14  15
ENDBRANCH  12  14
ENDBRANCH   1  10
BRANCH   5  25
ATOM     25  C   UNK    1       -3.831  -0.220   1.541  0.00  0.00    +0.332 C 
ATOM     26  O   UNK    1       -4.833  -1.101   1.735  0.00  0.00    -0.248 OA
BRANCH  25  27
ATOM     27  O   UNK    1       -3.945   0.812   2.380  0.00  0.00    -0.479 OA
ATOM     28  H   UNK    1       -3.863   1.818   2.189  0.00  0.00    +0.295 HD
ENDBRANCH  25  27
ENDBRANCH   5  25
BRANCH   1  29
ATOM     29  O   UNK    1        1.006   1.826   0.402  0.00  0.00    -0.349 OA
ATOM     30  C   UNK    1        1.946   1.926   1.441  0.00  0.00    +0.197 C 
ENDBRANCH   1  29
BRANCH   6  31
ATOM     31  C   UNK    1       -4.238  -2.211  -0.661  0.00  0.00    +0.088 C 
BRANCH  31  32
ATOM     32  S   UNK    1       -5.836  -1.452  -0.343  0.00  0.00    -0.084 S 
BRANCH  32  33
ATOM     33  C   UNK    1       -6.068  -0.162  -1.549  0.00  0.00    +0.209 A 
ATOM     34  N   UNK    1       -5.871   1.136  -1.564  0.00  0.00    -0.223 N 
ATOM     35  C   UNK    1       -5.424   1.899  -0.427  0.00  0.00    +0.177 C 
ATOM     36  N   UNK    1       -6.208   1.586  -2.808  0.00  0.00    -0.043 NA
ATOM     37  N   UNK    1       -6.611   0.582  -3.540  0.00  0.00    -0.022 NA
ATOM     38  N   UNK    1       -6.542  -0.487  -2.831  0.00  0.00    -0.102 NA
ENDBRANCH  32  33
ENDBRANCH  31  32
ENDBRANCH   6  31
TORSDOF 14
