REMARK  Name = molecules/JSJCTEKTBOKRST-JTQLQIEISA-N.pdb
REMARK                            x       y       z     vdW  Elec       q    Type
REMARK                         _______ _______ _______ _____ _____    ______ ____
ROOT
ATOM      1  C   LIG    1       -3.284  -0.089  -0.458  0.00  0.00    +0.077 A 
ATOM      2  C   LIG    1       -4.096  -0.521   0.578  0.00  0.00    +0.055 A 
ATOM      3  C   LIG    1       -3.522  -0.697   1.823  0.00  0.00    +0.062 A 
ATOM      4 CL   LIG    1       -4.576  -1.243   3.112  0.00  0.00    -0.082 Cl
ATOM      5  C   LIG    1       -2.186  -0.444   1.998  0.00  0.00    +0.028 A 
ATOM      6  C   LIG    1       -1.355  -0.013   0.983  0.00  0.00    -0.016 A 
ATOM      7  C   LIG    1       -1.931   0.161  -0.257  0.00  0.00    +0.020 A 
ENDROOT
BRANCH   1   8
ATOM      8  C   LIG    1       -3.896   0.100  -1.796  0.00  0.00    +0.419 C 
ATOM      9  F   LIG    1       -4.967   0.967  -1.707  0.00  0.00    -0.166 F 
ATOM     10  F   LIG    1       -4.408  -1.118  -2.192  0.00  0.00    -0.166 F 
ATOM     11  F   LIG    1       -2.942   0.585  -2.649  0.00  0.00    -0.166 F 
ENDBRANCH   1   8
BRANCH   2  12
ATOM     12  N   LIG    1       -5.473  -0.776   0.373  0.00  0.00    -0.356 N 
ATOM     13  H   LIG    1       -6.194  -0.346   0.986  0.00  0.00    +0.142 HD
ATOM     14  H   LIG    1       -5.801  -1.397  -0.393  0.00  0.00    +0.142 HD
ENDBRANCH   2  12
BRANCH   6  15
ATOM     15  C   LIG    1        0.058   0.222   1.300  0.00  0.00    +0.158 C 
BRANCH  15  16
ATOM     16  O   LIG    1        0.482  -0.876   2.079  0.00  0.00    -0.386 OA
ATOM     17  H   LIG    1        0.421  -1.667   1.474  0.00  0.00    +0.210 HD
ENDBRANCH  15  16
BRANCH  15  18
ATOM     18  C   LIG    1        0.953   0.228   0.079  0.00  0.00    +0.117 C 
BRANCH  18  19
ATOM     19  N   LIG    1        2.291   0.376   0.548  0.00  0.00    -0.309 NA
ATOM     20  H   LIG    1        2.506  -0.034   1.460  0.00  0.00    +0.123 HD
BRANCH  19  21
ATOM     21  C   LIG    1        3.326   0.418  -0.415  0.00  0.00    +0.011 C 
ATOM     22  C   LIG    1        4.658   0.519   0.322  0.00  0.00    +0.027 C 
ATOM     23  C   LIG    1        3.322  -0.868  -1.211  0.00  0.00    +0.027 C 
ATOM     24  C   LIG    1        3.252   1.573  -1.372  0.00  0.00    +0.027 C 
ENDBRANCH  19  21
ENDBRANCH  18  19
ENDBRANCH  15  18
ENDBRANCH   6  15
TORSDOF 7
