REMARK  Name = molecules/JSWZEAMFRNKZNL-UHFFFAOYSA-N.pdb
REMARK                            x       y       z     vdW  Elec       q    Type
REMARK                         _______ _______ _______ _____ _____    ______ ____
ROOT
ATOM      1  C   LIG    1        3.313  -2.551   0.067  0.00  0.00    +0.149 C 
ATOM      2  N   LIG    1        2.756  -1.209   0.016  0.00  0.00    -0.346 N 
ATOM      3  C   LIG    1        1.469  -0.931   0.097  0.00  0.00    +0.033 A 
ATOM      4  C   LIG    1        1.245   0.399   0.100  0.00  0.00    +0.065 A 
ATOM      5  C   LIG    1       -0.045   0.906   0.421  0.00  0.00    +0.249 C 
ATOM      6  N   LIG    1       -1.050  -0.028   0.757  0.00  0.00    -0.291 N 
ATOM      7  C   LIG    1       -0.976  -1.420   0.372  0.00  0.00    +0.114 C 
ATOM      8  O   LIG    1       -0.302   2.162   0.414  0.00  0.00    -0.270 OA
ATOM      9  C   LIG    1        2.475   0.980  -0.010  0.00  0.00    +0.012 A 
ATOM     10  C   LIG    1        2.902   2.304  -0.087  0.00  0.00    +0.011 A 
ATOM     11  C   LIG    1        4.248   2.514  -0.185  0.00  0.00    +0.001 A 
ATOM     12  C   LIG    1        5.195   1.492  -0.219  0.00  0.00    +0.002 A 
ATOM     13  C   LIG    1        4.752   0.196  -0.157  0.00  0.00    +0.026 A 
ATOM     14  C   LIG    1        0.317  -1.899  -0.066  0.00  0.00    +0.073 C 
ATOM     15  C   LIG    1        3.433  -0.046  -0.049  0.00  0.00    +0.050 A 
ENDROOT
BRANCH   6  16
ATOM     16  C   LIG    1       -2.350   0.408   1.297  0.00  0.00    +0.163 C 
BRANCH  16  17
ATOM     17  C   LIG    1       -3.426   0.074   0.373  0.00  0.00    +0.056 A 
ATOM     18  N   LIG    1       -3.923  -1.170   0.123  0.00  0.00    -0.347 N 
ATOM     19  H   LIG    1       -3.449  -2.041   0.582  0.00  0.00    +0.167 HD
ATOM     20  C   LIG    1       -4.999  -1.268  -0.502  0.00  0.00    +0.197 A 
ATOM     21  N   LIG    1       -5.374   0.073  -0.699  0.00  0.00    -0.241 NA
ATOM     22  C   LIG    1       -4.467   0.872  -0.179  0.00  0.00    +0.061 A 
ATOM     23  C   LIG    1       -4.418   2.364  -0.203  0.00  0.00    +0.067 C 
ENDBRANCH  16  17
ENDBRANCH   6  16
TORSDOF 2
