REMARK  Name = molecules/JTEGQNOMFQHVDC-NKWVEPMBSA-N.pdb
REMARK                            x       y       z     vdW  Elec       q    Type
REMARK                         _______ _______ _______ _____ _____    ______ ____
ROOT
ATOM      1  C   LIG    1       -3.531  -0.295  -0.084  0.00  0.00    +0.123 A 
ATOM      2  C   LIG    1       -2.838  -0.529   1.087  0.00  0.00    +0.061 A 
ATOM      3  C   LIG    1       -1.447  -0.557   1.083  0.00  0.00    +0.096 A 
ATOM      4  N   LIG    1       -0.730  -0.359  -0.045  0.00  0.00    -0.272 N 
ATOM      5  C   LIG    1       -1.440  -0.134  -1.167  0.00  0.00    +0.352 A 
ATOM      6  O   LIG    1       -0.792   0.056  -2.246  0.00  0.00    -0.244 OA
ATOM      7  N   LIG    1       -2.788  -0.102  -1.189  0.00  0.00    -0.178 NA
ENDROOT
BRANCH   4   8
ATOM      8  C   LIG    1        0.695  -0.384  -0.071  0.00  0.00    +0.235 C 
ATOM      9  C   LIG    1        1.293  -1.570   0.656  0.00  0.00    +0.126 C 
ATOM     10  S   LIG    1        2.990  -0.890   0.915  0.00  0.00    -0.123 S 
ATOM     11  C   LIG    1        2.582   0.767   0.225  0.00  0.00    +0.203 C 
ATOM     12  O   LIG    1        1.210   0.759   0.479  0.00  0.00    -0.340 OA
BRANCH  11  13
ATOM     13  C   LIG    1        3.299   1.854   0.956  0.00  0.00    +0.198 C 
BRANCH  13  14
ATOM     14  O   LIG    1        4.646   1.797   0.655  0.00  0.00    -0.392 OA
ATOM     15  H   LIG    1        5.083   0.990   1.020  0.00  0.00    +0.210 HD
ENDBRANCH  13  14
ENDBRANCH  11  13
ENDBRANCH   4   8
BRANCH   1  16
ATOM     16  N   LIG    1       -4.961  -0.258  -0.123  0.00  0.00    -0.343 N 
ATOM     17  H   LIG    1       -5.530  -0.777   0.567  0.00  0.00    +0.144 HD
ATOM     18  H   LIG    1       -5.468   0.291  -0.848  0.00  0.00    +0.144 HD
ENDBRANCH   1  16
TORSDOF 4
