REMARK  Name = molecules/JTIGKVIOEQASGT-UHFFFAOYSA-N.pdb
REMARK                            x       y       z     vdW  Elec       q    Type
REMARK                         _______ _______ _______ _____ _____    ______ ____
ROOT
ATOM      1  N   LIG    1       -1.360  -1.250   0.222  0.00  0.00    -0.289 N 
ATOM      2  C   LIG    1       -0.934   0.035   0.202  0.00  0.00    +0.056 A 
ATOM      3  C   LIG    1       -1.801   1.097   0.283  0.00  0.00    +0.030 A 
ATOM      4  C   LIG    1       -1.407   2.416   0.249  0.00  0.00    -0.048 A 
ATOM      5  C   LIG    1       -2.376   3.533   0.341  0.00  0.00    +0.044 C 
ATOM      6  C   LIG    1       -0.080   2.690   0.127  0.00  0.00    +0.004 A 
ATOM      7  C   LIG    1        0.831   1.661   0.042  0.00  0.00    +0.012 A 
ATOM      8  C   LIG    1        0.425   0.350   0.079  0.00  0.00    +0.025 A 
ATOM      9  C   LIG    1        1.372  -0.649  -0.024  0.00  0.00    +0.085 A 
ATOM     10  N   LIG    1        0.879  -1.924   0.002  0.00  0.00    -0.192 NA
ATOM     11  C   LIG    1       -0.427  -2.190   0.120  0.00  0.00    +0.350 A 
ATOM     12  O   LIG    1       -0.846  -3.405   0.140  0.00  0.00    -0.244 OA
ENDROOT
BRANCH   9  13
ATOM     13  C   LIG    1        2.801  -0.422  -0.164  0.00  0.00    +0.001 A 
ATOM     14  C   LIG    1        3.449   0.368   0.748  0.00  0.00    +0.010 A 
ATOM     15  C   LIG    1        4.822   0.626   0.637  0.00  0.00    +0.001 A 
ATOM     16  C   LIG    1        5.529   0.064  -0.420  0.00  0.00    +0.000 A 
ATOM     17  C   LIG    1        4.888  -0.733  -1.342  0.00  0.00    +0.001 A 
ATOM     18  C   LIG    1        3.526  -0.960  -1.191  0.00  0.00    +0.010 A 
ENDBRANCH   9  13
BRANCH   1  19
ATOM     19  C   LIG    1       -2.764  -1.474   0.353  0.00  0.00    +0.086 C 
ATOM     20  C   LIG    1       -3.158  -2.887   0.666  0.00  0.00    +0.031 C 
ATOM     21  C   LIG    1       -3.556  -1.056  -0.876  0.00  0.00    +0.031 C 
ENDBRANCH   1  19
TORSDOF 2
