REMARK  Name = molecules/JTPUMZTWMWIVPA-UHFFFAOYSA-O.pdb
REMARK                            x       y       z     vdW  Elec       q    Type
REMARK                         _______ _______ _______ _____ _____    ______ ____
ROOT
ATOM      1  C   LIG    1       -1.462  -0.349  -0.896  0.00  0.00    +0.095 C 
ENDROOT
BRANCH   1   2
ATOM      2  C   LIG    1       -1.827  -0.883   0.372  0.00  0.00    -0.028 A 
ATOM      3  C   LIG    1       -2.691  -0.235   1.220  0.00  0.00    +0.005 A 
ATOM      4  C   LIG    1       -3.078  -0.765   2.460  0.00  0.00    +0.000 A 
ATOM      5  C   LIG    1       -2.585  -1.976   2.856  0.00  0.00    +0.000 A 
ATOM      6  C   LIG    1       -1.719  -2.651   2.029  0.00  0.00    +0.000 A 
ATOM      7  C   LIG    1       -1.360  -2.101   0.818  0.00  0.00    +0.005 A 
ENDBRANCH   1   2
BRANCH   1   8
ATOM      8  C   LIG    1       -1.999   1.059  -1.041  0.00  0.00    -0.028 A 
ATOM      9  C   LIG    1       -1.733   2.064  -0.133  0.00  0.00    +0.005 A 
ATOM     10  C   LIG    1       -2.244   3.331  -0.367  0.00  0.00    +0.000 A 
ATOM     11  C   LIG    1       -3.006   3.636  -1.464  0.00  0.00    +0.000 A 
ATOM     12  C   LIG    1       -3.268   2.632  -2.364  0.00  0.00    +0.000 A 
ATOM     13  C   LIG    1       -2.778   1.375  -2.161  0.00  0.00    +0.005 A 
ENDBRANCH   1   8
BRANCH   1  14
ATOM     14  C   LIG    1       -2.473  -1.137  -1.820  0.00  0.00    +0.225 C 
ATOM     15  N   LIG    1       -3.829  -1.021  -1.488  0.00  0.00    -0.328 N 
ATOM     16  H   LIG    1       -4.275  -0.203  -1.008  0.00  0.00    +0.145 HD
ATOM     17  H   LIG    1       -4.519  -1.799  -1.713  0.00  0.00    +0.145 HD
ATOM     18  O   LIG    1       -2.052  -1.802  -2.765  0.00  0.00    -0.275 OA
ENDBRANCH   1  14
BRANCH   1  19
ATOM     19  C   LIG    1       -0.160  -0.493  -1.542  0.00  0.00    +0.007 C 
BRANCH  19  20
ATOM     20  C   LIG    1        1.124   0.029  -1.146  0.00  0.00    -0.073 C 
BRANCH  20  21
ATOM     21  N   LIG    1        1.915  -0.340  -0.019  0.00  0.00    +0.381 N 
ATOM     22  C   LIG    1        1.926  -1.714   0.361  0.00  0.00    -0.091 C 
BRANCH  21  23
ATOM     23  C   LIG    1        1.587   0.439   1.127  0.00  0.00    -0.072 C 
ATOM     24  C   LIG    1        2.059  -0.159   2.439  0.00  0.00    -0.013 C 
ATOM     25  C   LIG    1        1.959   1.901   1.028  0.00  0.00    -0.013 C 
ENDBRANCH  21  23
BRANCH  21  26
ATOM     26  C   LIG    1        3.299  -0.069  -0.473  0.00  0.00    -0.072 C 
ATOM     27  C   LIG    1        4.323   0.035   0.564  0.00  0.00    -0.013 C 
ATOM     28  C   LIG    1        3.692  -1.223  -1.407  0.00  0.00    -0.013 C 
ENDBRANCH  21  26
ENDBRANCH  20  21
ENDBRANCH  19  20
ENDBRANCH   1  19
TORSDOF 8
