REMARK  Name = molecules/JTTAUPUMOLRVRA-UHFFFAOYSA-N.pdb
REMARK                            x       y       z     vdW  Elec       q    Type
REMARK                         _______ _______ _______ _____ _____    ______ ____
ROOT
ATOM      1  N   LIG    1       -1.125  -0.334   0.113  0.00  0.00    -0.297 N 
ATOM      2  C   LIG    1       -2.099  -1.035   0.926  0.00  0.00    +0.046 A 
ATOM      3  C   LIG    1       -1.633  -1.862   1.928  0.00  0.00    +0.024 A 
ATOM      4  C   LIG    1       -2.524  -2.558   2.756  0.00  0.00    +0.002 A 
ATOM      5  C   LIG    1       -3.884  -2.444   2.603  0.00  0.00    +0.001 A 
ATOM      6  C   LIG    1       -4.329  -1.619   1.604  0.00  0.00    +0.017 A 
ATOM      7  C   LIG    1       -3.449  -0.931   0.786  0.00  0.00    +0.034 A 
ATOM      8  S   LIG    1       -4.130   0.104  -0.469  0.00  0.00    -0.088 S 
ATOM      9  C   LIG    1       -2.772   0.862  -1.315  0.00  0.00    +0.037 C 
ATOM     10  C   LIG    1       -2.995   1.737  -2.329  0.00  0.00    -0.002 C 
ATOM     11  C   LIG    1       -1.972   2.339  -3.004  0.00  0.00    +0.065 C 
ATOM     12  C   LIG    1       -0.683   2.016  -2.608  0.00  0.00    +0.089 C 
ATOM     13  N   LIG    1       -0.514   1.166  -1.624  0.00  0.00    -0.260 NA
ATOM     14  C   LIG    1       -1.494   0.535  -0.914  0.00  0.00    +0.205 C 
ENDROOT
BRANCH   1  15
ATOM     15  C   LIG    1        0.276  -0.580   0.401  0.00  0.00    +0.109 C 
BRANCH  15  16
ATOM     16  C   LIG    1        1.282   0.129  -0.411  0.00  0.00    +0.034 C 
BRANCH  16  17
ATOM     17  C   LIG    1        2.652  -0.335   0.170  0.00  0.00    +0.085 C 
BRANCH  17  18
ATOM     18  N   LIG    1        3.728   0.285  -0.536  0.00  0.00    -0.308 NA
ATOM     19  C   LIG    1        4.964  -0.192   0.057  0.00  0.00    +0.104 C 
ATOM     20  C   LIG    1        3.679   1.718  -0.308  0.00  0.00    +0.104 C 
ENDBRANCH  17  18
ENDBRANCH  16  17
ENDBRANCH  15  16
ENDBRANCH   1  15
TORSDOF 4
