REMARK  Name = molecules/JTUQXGZRVLWBCR-GOSISDBHSA-N.pdb
REMARK                            x       y       z     vdW  Elec       q    Type
REMARK                         _______ _______ _______ _____ _____    ______ ____
ROOT
ATOM      1  C   LIG    1        2.646  -1.811   0.038  0.00  0.00    -0.001 A 
ATOM      2  C   LIG    1        1.378  -2.140  -0.389  0.00  0.00    +0.124 A 
ATOM      3  C   LIG    1        1.203  -3.099  -1.359  0.00  0.00    +0.046 A 
ATOM      4  C   LIG    1        2.267  -3.755  -1.931  0.00  0.00    +0.004 A 
ATOM      5  C   LIG    1        3.524  -3.411  -1.489  0.00  0.00    +0.001 A 
ATOM      6  C   LIG    1        3.718  -2.459  -0.524  0.00  0.00    +0.007 A 
ENDROOT
BRANCH   1   7
ATOM      7  C   LIG    1        2.901  -0.774   1.081  0.00  0.00    +0.074 C 
BRANCH   7   9
ATOM      8  C   LIG    1        1.642   1.343   0.694  0.00  0.00    +0.004 A 
ATOM      9  C   LIG    1        2.780   0.598   0.545  0.00  0.00    -0.043 A 
ATOM     10  C   LIG    1        3.832   1.171  -0.141  0.00  0.00    +0.004 A 
ATOM     11  C   LIG    1        3.731   2.459  -0.659  0.00  0.00    +0.000 A 
ATOM     12  C   LIG    1        2.572   3.181  -0.492  0.00  0.00    +0.000 A 
ATOM     13  C   LIG    1        1.528   2.629   0.182  0.00  0.00    +0.000 A 
ENDBRANCH   7   9
ENDBRANCH   1   7
BRANCH   2  14
ATOM     14  O   LIG    1        0.275  -1.479   0.187  0.00  0.00    -0.490 OA
BRANCH  14  15
ATOM     15  C   LIG    1       -0.999  -1.815  -0.253  0.00  0.00    +0.247 C 
BRANCH  15  16
ATOM     16  C   LIG    1       -2.102  -1.068   0.426  0.00  0.00    +0.091 C 
ATOM     17  C   LIG    1       -2.241  -1.490   1.888  0.00  0.00    +0.027 C 
BRANCH  16  18
ATOM     18  N   LIG    1       -2.078   0.348   0.300  0.00  0.00    -0.296 NA
ATOM     19  C   LIG    1       -3.087   0.901   1.159  0.00  0.00    +0.085 C 
ATOM     20  C   LIG    1       -3.272   2.383   1.009  0.00  0.00    +0.015 C 
ATOM     21  C   LIG    1       -3.157   2.841  -0.426  0.00  0.00    +0.002 C 
ATOM     22  C   LIG    1       -3.242   1.641  -1.378  0.00  0.00    +0.015 C 
ATOM     23  C   LIG    1       -2.069   0.769  -1.044  0.00  0.00    +0.085 C 
ENDBRANCH  16  18
ENDBRANCH  15  16
ENDBRANCH  14  15
ENDBRANCH   2  14
TORSDOF 6
