REMARK  Name = molecules/JUIHCCIFJCSFON-GFCCVEGCSA-N.pdb
REMARK                            x       y       z     vdW  Elec       q    Type
REMARK                         _______ _______ _______ _____ _____    ______ ____
ROOT
ATOM      1  O   LIG    1       -0.686  -1.470   2.061  0.00  0.00    -0.274 OA
ATOM      2  C   LIG    1       -1.006  -1.368   0.855  0.00  0.00    +0.234 C 
ATOM      3  C   LIG    1       -2.373  -1.595   0.323  0.00  0.00    +0.114 C 
ATOM      4  C   LIG    1       -2.088  -1.969  -1.104  0.00  0.00    +0.114 C 
ATOM      5  C   LIG    1       -0.904  -1.158  -1.430  0.00  0.00    +0.227 C 
ATOM      6  O   LIG    1       -0.560  -0.647  -2.548  0.00  0.00    -0.275 OA
ATOM      7  N   LIG    1       -0.154  -1.025  -0.228  0.00  0.00    -0.208 N 
ENDROOT
BRANCH   7   8
ATOM      8  C   LIG    1        1.226  -0.610  -0.165  0.00  0.00    +0.062 A 
ATOM      9  C   LIG    1        1.601   0.481   0.590  0.00  0.00    +0.065 A 
ATOM     10 CL   LIG    1        0.399   1.369   1.476  0.00  0.00    -0.082 Cl
ATOM     11  C   LIG    1        2.922   0.888   0.657  0.00  0.00    +0.050 A 
ATOM     12  C   LIG    1        3.902   0.204  -0.035  0.00  0.00    +0.107 A 
ATOM     13  C   LIG    1        3.530  -0.881  -0.786  0.00  0.00    +0.030 A 
ATOM     14  C   LIG    1        2.222  -1.276  -0.847  0.00  0.00    +0.027 A 
BRANCH  12  15
ATOM     15  S   LIG    1        5.594   0.712   0.041  0.00  0.00    +0.056 S 
ATOM     16  O   LIG    1        5.915   1.240   1.392  0.00  0.00    -0.153 OA
ATOM     17  O   LIG    1        6.437  -0.506  -0.201  0.00  0.00    -0.153 OA
BRANCH  15  18
ATOM     18  N   LIG    1        5.926   1.849  -1.217  0.00  0.00    -0.204 NA
ATOM     19  H   LIG    1        6.769   2.420  -0.976  0.00  0.00    +0.144 HD
ATOM     20  H   LIG    1        5.097   2.500  -1.351  0.00  0.00    +0.144 HD
ENDBRANCH  15  18
ENDBRANCH  12  15
ENDBRANCH   7   8
BRANCH   3  21
ATOM     21  C   LIG    1       -3.199  -0.374   0.462  0.00  0.00    -0.035 A 
ATOM     22  C   LIG    1       -4.420  -0.495   1.091  0.00  0.00    +0.004 A 
ATOM     23  C   LIG    1       -5.250   0.610   1.260  0.00  0.00    +0.000 A 
ATOM     24  C   LIG    1       -4.818   1.821   0.782  0.00  0.00    +0.000 A 
ATOM     25  C   LIG    1       -3.601   1.944   0.154  0.00  0.00    +0.000 A 
ATOM     26  C   LIG    1       -2.807   0.850   0.002  0.00  0.00    +0.004 A 
ENDBRANCH   3  21
TORSDOF 4
