REMARK  Name = molecules/JUKPWJGBANNWMW-VWBFHTRKSA-N.pdb
REMARK                            x       y       z     vdW  Elec       q    Type
REMARK                         _______ _______ _______ _____ _____    ______ ____
ROOT
ATOM      1  C   LIG    1        2.112  -2.222   0.657  0.00  0.00    +0.019 C 
ATOM      2  C   LIG    1        2.281  -0.838   0.019  0.00  0.00    +0.021 C 
ATOM      3  C   LIG    1        2.913   0.092   0.967  0.00  0.00    -0.057 C 
ATOM      4  C   LIG    1        2.254   1.209   1.670  0.00  0.00    +0.046 C 
ATOM      5  C   LIG    1        0.942   1.608   1.035  0.00  0.00    +0.108 C 
ATOM      6  C   LIG    1        0.199   0.390   0.596  0.00  0.00    +0.042 C 
ATOM      7  C   LIG    1       -1.179   0.655   0.090  0.00  0.00    +0.006 C 
ATOM      8  C   LIG    1       -2.110   1.349   1.008  0.00  0.00    +0.008 C 
ATOM      9  C   LIG    1       -3.440   1.112   0.280  0.00  0.00    +0.049 C 
ATOM     10  C   LIG    1       -3.306  -0.346  -0.105  0.00  0.00    +0.120 C 
ATOM     11  O   LIG    1       -4.023  -1.073   0.903  0.00  0.00    -0.457 OA
ATOM     12  C   LIG    1       -5.259  -1.428   0.454  0.00  0.00    +0.308 C 
ATOM     13  O   LIG    1       -6.190  -1.880   1.163  0.00  0.00    -0.251 OA
ATOM     14  C   LIG    1       -5.345  -1.203  -0.995  0.00  0.00    +0.124 C 
ATOM     15  C   LIG    1       -3.984  -0.677  -1.403  0.00  0.00    +0.060 C 
ATOM     16  C   LIG    1       -1.860  -0.716  -0.050  0.00  0.00    +0.013 C 
ATOM     17  C   LIG    1       -1.610  -1.613   1.117  0.00  0.00    +0.015 C 
ATOM     18  C   LIG    1       -1.313  -1.302  -1.306  0.00  0.00    +0.045 C 
ATOM     19  C   LIG    1        0.176  -1.289  -1.261  0.00  0.00    +0.153 C 
ATOM     20  O   LIG    1        0.791  -0.071  -1.801  0.00  0.00    -0.364 OA
ATOM     21  C   LIG    1        4.199  -0.090   1.220  0.00  0.00    +0.046 C 
ATOM     22  C   LIG    1        4.946  -1.169   0.581  0.00  0.00    +0.156 C 
ATOM     23  O   LIG    1        5.923  -1.697   1.173  0.00  0.00    -0.293 OA
ATOM     24  C   LIG    1        4.508  -1.600  -0.768  0.00  0.00    +0.080 C 
ATOM     25  C   LIG    1        0.908  -0.423  -0.455  0.00  0.00    +0.109 C 
ATOM     26  C   LIG    1        3.231  -0.956  -1.184  0.00  0.00    +0.022 C 
ENDROOT
BRANCH   5  27
ATOM     27  C   LIG    1        1.131   2.632  -0.012  0.00  0.00    +0.311 C 
ATOM     28  O   LIG    1        0.699   2.466  -1.175  0.00  0.00    -0.251 OA
BRANCH  27  29
ATOM     29  O   LIG    1        1.793   3.825   0.232  0.00  0.00    -0.468 OA
ATOM     30  C   LIG    1        1.978   4.812  -0.767  0.00  0.00    +0.280 C 
ENDBRANCH  27  29
ENDBRANCH   5  27
TORSDOF 2
