REMARK  Name = molecules/JUNDJWOLDSCTFK-MTZCLOFQSA-N.pdb
REMARK                            x       y       z     vdW  Elec       q    Type
REMARK                         _______ _______ _______ _____ _____    ______ ____
ROOT
ATOM      1  C   LIG    1        0.845   1.040   1.058  0.00  0.00    +0.012 C 
ATOM      2  C   LIG    1        1.009   0.190  -0.160  0.00  0.00    -0.016 C 
ATOM      3  C   LIG    1        0.279  -1.120   0.032  0.00  0.00    +0.003 C 
ATOM      4  C   LIG    1        1.109  -1.763   1.086  0.00  0.00    +0.005 C 
ATOM      5  C   LIG    1        2.540  -1.236   0.886  0.00  0.00    +0.015 C 
ATOM      6  C   LIG    1       -1.148  -0.895   0.383  0.00  0.00    +0.019 C 
ATOM      7  C   LIG    1       -1.996  -2.098  -0.060  0.00  0.00    +0.013 C 
ATOM      8  C   LIG    1       -3.307  -1.962   0.719  0.00  0.00    +0.036 C 
ATOM      9  C   LIG    1       -3.904  -0.664   0.284  0.00  0.00    -0.041 C 
ATOM     10  C   LIG    1       -5.183  -0.482   0.517  0.00  0.00    +0.050 C 
ATOM     11  C   LIG    1       -5.798   0.776   0.104  0.00  0.00    +0.157 C 
ATOM     12  O   LIG    1       -7.059   0.836   0.040  0.00  0.00    -0.293 OA
ATOM     13  C   LIG    1       -4.929   1.920  -0.218  0.00  0.00    +0.083 C 
ATOM     14  C   LIG    1       -3.768   1.445  -1.069  0.00  0.00    +0.043 C 
ATOM     15  C   LIG    1       -3.054   0.341  -0.375  0.00  0.00    -0.044 C 
ATOM     16  C   LIG    1       -1.728   0.267  -0.351  0.00  0.00    -0.063 C 
ATOM     17  C   LIG    1       -0.957   1.304  -1.030  0.00  0.00    +0.032 C 
ATOM     18  C   LIG    1        2.439  -0.266  -0.264  0.00  0.00    +0.034 C 
ATOM     19  C   LIG    1        2.711  -1.044  -1.527  0.00  0.00    +0.020 C 
ATOM     20  C   LIG    1        0.470   0.869  -1.358  0.00  0.00    +0.012 C 
ENDROOT
BRANCH  18  21
ATOM     21  C   LIG    1        3.357   0.870  -0.218  0.00  0.00    +0.168 C 
ATOM     22  O   LIG    1        2.888   2.016  -0.095  0.00  0.00    -0.294 OA
BRANCH  21  23
ATOM     23  C   LIG    1        4.826   0.778  -0.311  0.00  0.00    +0.178 C 
ATOM     24  C   LIG    1        5.339   0.182   0.998  0.00  0.00    +0.046 C 
BRANCH  23  25
ATOM     25  O   LIG    1        5.411   2.071  -0.348  0.00  0.00    -0.385 OA
ATOM     26  H   LIG    1        4.734   2.746  -0.611  0.00  0.00    +0.210 HD
ENDBRANCH  23  25
ENDBRANCH  21  23
ENDBRANCH  18  21
TORSDOF 3
