REMARK  Name = molecules/JUZNIMUFDBIJCM-ANEDZVCMSA-N.pdb
REMARK                            x       y       z     vdW  Elec       q    Type
REMARK                         _______ _______ _______ _____ _____    ______ ____
ROOT
ATOM      1  C   LIG    1        0.263   1.107  -0.886  0.00  0.00    +0.067 C 
ATOM      2  C   LIG    1        1.669   0.819  -0.217  0.00  0.00    +0.044 C 
ATOM      3  C   LIG    1        2.549   1.175  -1.389  0.00  0.00    +0.142 C 
ATOM      4  N   LIG    1        1.803   0.916  -2.578  0.00  0.00    -0.305 NA
ATOM      5  H   LIG    1        1.600   1.857  -3.026  0.00  0.00    +0.123 HD
ATOM      6  C   LIG    1        0.532   0.338  -2.167  0.00  0.00    +0.096 C 
ENDROOT
BRANCH   3   7
ATOM      7  C   LIG    1        3.782   0.315  -1.399  0.00  0.00    +0.234 C 
ATOM      8  N   LIG    1        4.654   0.424  -0.312  0.00  0.00    -0.284 N 
ATOM      9  H   LIG    1        4.360   1.127   0.447  0.00  0.00    +0.155 HD
ATOM     10  O   LIG    1        3.946  -0.441  -2.378  0.00  0.00    -0.274 OA
BRANCH   8  11
ATOM     11  C   LIG    1        5.845  -0.295  -0.148  0.00  0.00    +0.034 A 
ATOM     12  C   LIG    1        6.687  -0.050   0.940  0.00  0.00    +0.038 A 
ATOM     13  C   LIG    1        7.850  -0.714   1.158  0.00  0.00    +0.061 A 
ATOM     14  C   LIG    1        8.242  -1.687   0.272  0.00  0.00    +0.015 A 
ATOM     15  C   LIG    1        7.447  -1.954  -0.800  0.00  0.00    +0.003 A 
ATOM     16  C   LIG    1        6.243  -1.261  -1.018  0.00  0.00    +0.023 A 
BRANCH  13  17
ATOM     17  C   LIG    1        8.705  -0.434   2.304  0.00  0.00    +0.337 C 
ATOM     18  O   LIG    1        9.771  -1.069   2.471  0.00  0.00    -0.245 OA
BRANCH  17  19
ATOM     19  O   LIG    1        8.342   0.549   3.230  0.00  0.00    -0.477 OA
ATOM     20  H   LIG    1        7.947   1.425   2.904  0.00  0.00    +0.295 HD
ENDBRANCH  17  19
ENDBRANCH  13  17
ENDBRANCH   8  11
ENDBRANCH   3   7
BRANCH   1  21
ATOM     21  S   LIG    1       -0.909   0.428   0.180  0.00  0.00    -0.122 S 
BRANCH  21  23
ATOM     22  C   LIG    1       -3.414   1.115  -0.875  0.00  0.00    +0.131 C 
ATOM     23  C   LIG    1       -2.620   0.487  -0.054  0.00  0.00    +0.019 C 
ATOM     24  C   LIG    1       -3.500  -0.336   0.915  0.00  0.00    +0.046 C 
ATOM     25  C   LIG    1       -4.848   0.252   0.782  0.00  0.00    +0.104 C 
ATOM     26  C   LIG    1       -5.977  -0.585   0.295  0.00  0.00    +0.125 C 
ATOM     27  C   LIG    1       -6.159   0.546  -0.685  0.00  0.00    +0.228 C 
ATOM     28  O   LIG    1       -7.094   1.083  -1.317  0.00  0.00    -0.275 OA
ATOM     29  C   LIG    1       -3.368  -1.776   0.570  0.00  0.00    +0.015 C 
ATOM     30  N   LIG    1       -4.788   0.764  -0.597  0.00  0.00    -0.260 N 
BRANCH  22  31
ATOM     31  C   LIG    1       -3.077   2.038  -1.936  0.00  0.00    +0.352 C 
ATOM     32  O   LIG    1       -1.924   2.363  -2.190  0.00  0.00    -0.244 OA
BRANCH  31  33
ATOM     33  O   LIG    1       -4.077   2.594  -2.711  0.00  0.00    -0.476 OA
ATOM     34  H   LIG    1       -4.307   3.594  -2.608  0.00  0.00    +0.295 HD
ENDBRANCH  31  33
ENDBRANCH  22  31
BRANCH  26  35
ATOM     35  C   LIG    1       -7.154  -0.745   1.194  0.00  0.00    +0.125 C 
ATOM     36  C   LIG    1       -6.806  -1.379   2.521  0.00  0.00    +0.038 C 
BRANCH  35  37
ATOM     37  O   LIG    1       -7.797   0.478   1.412  0.00  0.00    -0.391 OA
ATOM     38  H   LIG    1       -8.666   0.520   0.952  0.00  0.00    +0.210 HD
ENDBRANCH  35  37
ENDBRANCH  26  35
ENDBRANCH  21  23
ENDBRANCH   1  21
TORSDOF 10
