REMARK  Name = molecules/JUZYLCPPVHEVSV-LJQANCHMSA-N.pdb
REMARK                            x       y       z     vdW  Elec       q    Type
REMARK                         _______ _______ _______ _____ _____    ______ ____
ROOT
ATOM      1  N   LIG    1       -2.066  -0.575   0.827  0.00  0.00    -0.340 N 
ATOM      2  C   LIG    1       -2.410  -0.769   2.143  0.00  0.00    +0.105 A 
ATOM      3  C   LIG    1       -1.525  -1.098   3.132  0.00  0.00    +0.122 A 
ATOM      4  C   LIG    1       -0.196  -1.252   2.832  0.00  0.00    +0.203 A 
ATOM      5  O   LIG    1        0.657  -1.559   3.733  0.00  0.00    -0.286 OA
ATOM      6  C   LIG    1        0.190  -1.068   1.534  0.00  0.00    +0.046 A 
ATOM      7  C   LIG    1        1.530  -1.230   1.243  0.00  0.00    +0.021 A 
ATOM      8  C   LIG    1        1.987  -1.067  -0.023  0.00  0.00    -0.001 A 
ATOM      9  C   LIG    1        1.097  -0.740  -1.003  0.00  0.00    +0.126 A 
ATOM     10  C   LIG    1       -0.248  -0.581  -0.697  0.00  0.00    +0.072 A 
ATOM     11  C   LIG    1       -0.760  -0.735   0.573  0.00  0.00    +0.057 A 
ENDROOT
BRANCH   3  12
ATOM     12  C   LIG    1       -1.944  -1.293   4.513  0.00  0.00    +0.342 C 
ATOM     13  O   LIG    1       -3.164  -1.150   4.778  0.00  0.00    -0.245 OA
BRANCH  12  14
ATOM     14  O   LIG    1       -1.086  -1.622   5.531  0.00  0.00    -0.477 OA
ATOM     15  H   LIG    1       -0.771  -2.548   5.752  0.00  0.00    +0.295 HD
ENDBRANCH  12  14
ENDBRANCH   3  12
BRANCH   9  16
ATOM     16  O   LIG    1        1.532  -0.568  -2.297  0.00  0.00    -0.495 OA
ATOM     17  C   LIG    1        0.629  -0.234  -3.307  0.00  0.00    +0.277 C 
ENDBRANCH   9  16
BRANCH   1  18
ATOM     18  C   LIG    1       -3.016  -0.233  -0.173  0.00  0.00    +0.115 C 
BRANCH  18  19
ATOM     19  C   LIG    1       -2.922   1.078  -0.873  0.00  0.00    +0.008 C 
ATOM     20  C   LIG    1       -2.349   2.179  -0.027  0.00  0.00    +0.009 C 
ATOM     21  C   LIG    1       -4.364   1.594  -1.215  0.00  0.00    +0.009 C 
ENDBRANCH  18  19
BRANCH  18  22
ATOM     22  C   LIG    1       -3.652  -1.356  -0.931  0.00  0.00    +0.181 C 
BRANCH  22  23
ATOM     23  O   LIG    1       -3.053  -1.718  -2.120  0.00  0.00    -0.393 OA
ATOM     24  H   LIG    1       -2.385  -2.428  -1.931  0.00  0.00    +0.209 HD
ENDBRANCH  22  23
ENDBRANCH  18  22
ENDBRANCH   1  18
BRANCH   8  25
ATOM     25  C   LIG    1        3.450  -1.250  -0.307  0.00  0.00    +0.077 C 
BRANCH  25  26
ATOM     26  C   LIG    1        4.144   0.043  -0.490  0.00  0.00    -0.006 A 
ATOM     27  C   LIG    1        4.449   0.830   0.594  0.00  0.00    +0.145 A 
ATOM     28  F   LIG    1        4.129   0.455   1.872  0.00  0.00    -0.204 F 
ATOM     29  C   LIG    1        5.095   2.038   0.445  0.00  0.00    +0.076 A 
ATOM     30 CL   LIG    1        5.476   3.026   1.824  0.00  0.00    -0.081 Cl
ATOM     31  C   LIG    1        5.451   2.481  -0.830  0.00  0.00    +0.023 A 
ATOM     32  C   LIG    1        5.148   1.699  -1.916  0.00  0.00    +0.002 A 
ATOM     33  C   LIG    1        4.506   0.501  -1.753  0.00  0.00    +0.007 A 
ENDBRANCH  25  26
ENDBRANCH   8  25
TORSDOF 9
