REMARK  Name = molecules/JVLBPIPGETUEET-WIXLDOGYSA-O.pdb
REMARK                            x       y       z     vdW  Elec       q    Type
REMARK                         _______ _______ _______ _____ _____    ______ ____
ROOT
ATOM      1  C   LIG    1        0.367   1.198  -0.493  0.00  0.00    +0.069 C 
ATOM      2  C   LIG    1        1.292   0.713   0.590  0.00  0.00    +0.069 C 
ATOM      3  C   LIG    1        0.586   0.282   1.818  0.00  0.00    +0.000 C 
ATOM      4  C   LIG    1       -0.781  -0.220   1.728  0.00  0.00    -0.074 C 
ATOM      5  N   LIG    1       -1.527   0.085   0.524  0.00  0.00    +0.382 N 
ATOM      6  C   LIG    1       -2.192   1.353   0.763  0.00  0.00    -0.091 C 
ATOM      7  C   LIG    1        2.463   1.619   0.837  0.00  0.00    +0.252 C 
ATOM      8  O   LIG    1        3.558   0.712   1.024  0.00  0.00    -0.476 OA
ATOM      9  C   LIG    1        3.340  -0.417   0.248  0.00  0.00    +0.167 A 
ATOM     10  C   LIG    1        4.078  -1.452  -0.285  0.00  0.00    +0.159 A 
ATOM     11  C   LIG    1        3.476  -2.438  -1.042  0.00  0.00    +0.049 A 
ATOM     12  C   LIG    1        2.091  -2.390  -1.275  0.00  0.00    +0.007 A 
ATOM     13  C   LIG    1        1.345  -1.363  -0.749  0.00  0.00    -0.041 A 
ATOM     14  C   LIG    1       -0.110  -1.227  -0.938  0.00  0.00    +0.023 C 
ATOM     15  C   LIG    1        2.780   2.400  -0.381  0.00  0.00    +0.175 C 
ATOM     16  O   LIG    1        3.353   3.458  -0.250  0.00  0.00    -0.293 OA
ATOM     17  C   LIG    1        2.427   1.940  -1.740  0.00  0.00    +0.081 C 
ATOM     18  C   LIG    1        1.996  -0.436  -0.022  0.00  0.00    +0.014 A 
ATOM     19  C   LIG    1       -0.673   0.110  -0.650  0.00  0.00    -0.028 C 
ATOM     20  C   LIG    1        1.055   1.359  -1.831  0.00  0.00    +0.042 C 
ENDROOT
BRANCH   1  21
ATOM     21  O   LIG    1       -0.131   2.413  -0.139  0.00  0.00    -0.389 OA
ATOM     22  H   LIG    1        0.397   2.875   0.580  0.00  0.00    +0.210 HD
ENDBRANCH   1  21
BRANCH  10  23
ATOM     23  O   LIG    1        5.450  -1.452  -0.023  0.00  0.00    -0.503 OA
ATOM     24  H   LIG    1        6.072  -2.174  -0.373  0.00  0.00    +0.292 HD
ENDBRANCH  10  23
BRANCH   5  25
ATOM     25  C   LIG    1       -2.538  -0.922   0.269  0.00  0.00    -0.071 C 
BRANCH  25  26
ATOM     26  C   LIG    1       -3.943  -0.365   0.226  0.00  0.00    -0.027 C 
ATOM     27  C   LIG    1       -4.946  -0.685   1.243  0.00  0.00    +0.002 C 
ATOM     28  C   LIG    1       -4.988  -1.434  -0.043  0.00  0.00    +0.002 C 
ENDBRANCH  25  26
ENDBRANCH   5  25
TORSDOF 4
