REMARK  Name = molecules/JVVRCYWZTJLJSG-UHFFFAOYSA-N.pdb
REMARK                            x       y       z     vdW  Elec       q    Type
REMARK                         _______ _______ _______ _____ _____    ______ ____
ROOT
ATOM      1  C   LIG    1        0.573  -1.212   0.046  0.00  0.00    +0.026 A 
ATOM      2  C   LIG    1        1.954  -1.218   0.032  0.00  0.00    +0.047 A 
ATOM      3  C   LIG    1        2.681  -0.050  -0.077  0.00  0.00    +0.117 A 
ATOM      4  C   LIG    1        1.957   1.121  -0.172  0.00  0.00    +0.047 A 
ATOM      5  C   LIG    1        0.571   1.139  -0.159  0.00  0.00    +0.026 A 
ATOM      6  C   LIG    1       -0.140  -0.040  -0.049  0.00  0.00    +0.029 A 
ENDROOT
BRANCH   6   7
ATOM      7  N   LIG    1       -1.556   0.007  -0.038  0.00  0.00    -0.336 N 
ATOM      8  C   LIG    1       -2.363  -1.188   0.077  0.00  0.00    +0.129 C 
ATOM      9  C   LIG    1       -2.262   1.268  -0.142  0.00  0.00    +0.129 C 
ENDBRANCH   6   7
BRANCH   3  10
ATOM     10  O   LIG    1        4.074  -0.045  -0.092  0.00  0.00    -0.507 OA
ATOM     11  H   LIG    1        4.543   0.035   0.806  0.00  0.00    +0.292 HD
ENDBRANCH   3  10
TORSDOF 2
