REMARK  Name = molecules/JVWOCHRRAWHKLT-UHFFFAOYSA-N.pdb
REMARK                            x       y       z     vdW  Elec       q    Type
REMARK                         _______ _______ _______ _____ _____    ______ ____
ROOT
ATOM      1  C   LIG    1        2.154   0.553  -0.020  0.00  0.00    +0.341 C 
ATOM      2  O   LIG    1        1.679   1.440  -0.831  0.00  0.00    -0.245 OA
ENDROOT
BRANCH   1   3
ATOM      3  C   LIG    1        3.581   0.540   0.238  0.00  0.00    +0.077 A 
ATOM      4  C   LIG    1        4.221  -0.351   1.044  0.00  0.00    +0.125 A 
ATOM      5  N   LIG    1        5.561  -0.324   1.242  0.00  0.00    -0.262 NA
ATOM      6  C   LIG    1        6.379   0.574   0.671  0.00  0.00    +0.111 A 
ATOM      7  C   LIG    1        5.752   1.512  -0.165  0.00  0.00    +0.020 A 
ATOM      8  C   LIG    1        4.387   1.494  -0.373  0.00  0.00    +0.018 A 
ENDBRANCH   1   3
BRANCH   1   9
ATOM      9  O   LIG    1        1.231  -0.294   0.516  0.00  0.00    -0.460 OA
BRANCH   9  10
ATOM     10  C   LIG    1       -0.147  -0.164   0.153  0.00  0.00    +0.248 C 
BRANCH  10  11
ATOM     11  C   LIG    1       -1.051  -1.112   0.851  0.00  0.00    +0.125 C 
BRANCH  11  12
ATOM     12  N   LIG    1       -2.437  -0.875   0.397  0.00  0.00    -0.300 NA
BRANCH  12  13
ATOM     13  C   LIG    1       -2.986   0.225   1.026  0.00  0.00    +0.081 C 
ATOM     14  C   LIG    1       -4.201   0.926   0.623  0.00  0.00    +0.020 C 
ENDBRANCH  12  13
BRANCH  12  15
ATOM     15  C   LIG    1       -2.612  -1.251  -0.922  0.00  0.00    +0.081 C 
ATOM     16  C   LIG    1       -4.034  -1.363  -1.428  0.00  0.00    +0.020 C 
ENDBRANCH  12  15
ENDBRANCH  11  12
ENDBRANCH  10  11
ENDBRANCH   9  10
ENDBRANCH   1   9
TORSDOF 7
