REMARK  Name = molecules/JVYKJZPZFIUYAB-UHFFFAOYSA-N.pdb
REMARK                            x       y       z     vdW  Elec       q    Type
REMARK                         _______ _______ _______ _____ _____    ______ ____
ROOT
ATOM      1  S   LIG    1       -0.171   1.778  -1.166  0.00  0.00    +0.073 S 
ATOM      2  O   LIG    1       -0.740   3.047  -1.732  0.00  0.00    -0.150 OA
ATOM      3  O   LIG    1        0.508   1.017  -2.285  0.00  0.00    -0.150 OA
ENDROOT
BRANCH   1   4
ATOM      4  C   LIG    1       -1.395   0.753  -0.485  0.00  0.00    +0.109 A 
ATOM      5  C   LIG    1       -2.544   1.246   0.096  0.00  0.00    +0.030 A 
ATOM      6  C   LIG    1       -3.485   0.363   0.624  0.00  0.00    +0.024 A 
ATOM      7  C   LIG    1       -3.301  -0.998   0.582  0.00  0.00    +0.025 A 
ATOM      8  C   LIG    1       -2.155  -1.492   0.003  0.00  0.00    +0.024 A 
ATOM      9  C   LIG    1       -1.210  -0.612  -0.527  0.00  0.00    +0.030 A 
BRANCH   7  10
ATOM     10  N   LIG    1       -4.293  -1.863   1.136  0.00  0.00    -0.358 N 
ATOM     11  H   LIG    1       -4.040  -2.828   1.394  0.00  0.00    +0.142 HD
ATOM     12  H   LIG    1       -5.272  -1.512   1.275  0.00  0.00    +0.142 HD
ENDBRANCH   7  10
ENDBRANCH   1   4
BRANCH   1  13
ATOM     13  N   LIG    1        0.975   2.167   0.043  0.00  0.00    -0.208 N 
ATOM     14  H   LIG    1        1.137   3.136   0.339  0.00  0.00    +0.174 HD
BRANCH  13  15
ATOM     15  C   LIG    1        1.713   1.087   0.639  0.00  0.00    +0.105 A 
ATOM     16  S   LIG    1        1.357   0.136   2.008  0.00  0.00    +0.028 S 
ATOM     17  N   LIG    1        2.702  -0.859   2.000  0.00  0.00    -0.214 NA
ATOM     18  C   LIG    1        3.412  -0.456   0.951  0.00  0.00    +0.049 A 
ATOM     19  C   LIG    1        4.731  -1.137   0.612  0.00  0.00    +0.066 C 
ATOM     20  C   LIG    1        2.916   0.565   0.218  0.00  0.00    +0.057 A 
ENDBRANCH  13  15
ENDBRANCH   1  13
TORSDOF 4
