REMARK  Name = molecules/JWIXXNLOKOAAQT-UHFFFAOYSA-N.pdb
REMARK                            x       y       z     vdW  Elec       q    Type
REMARK                         _______ _______ _______ _____ _____    ______ ____
ROOT
ATOM      1  C   LIG    1        0.757  -0.056  -0.015  0.00  0.00    +0.003 C 
ATOM      2  C   LIG    1       -0.502   0.248  -0.050  0.00  0.00    -0.046 C 
ATOM      3  C   LIG    1       -1.528  -0.780   0.321  0.00  0.00    +0.115 C 
ATOM      4  N   LIG    1       -2.842  -0.325   0.256  0.00  0.00    -0.301 NA
ATOM      5  C   LIG    1       -3.144   0.968   0.731  0.00  0.00    +0.085 C 
ATOM      6  C   LIG    1       -2.045   1.961   0.643  0.00  0.00    +0.020 C 
ATOM      7  C   LIG    1       -3.829  -1.034  -0.434  0.00  0.00    +0.105 C 
ATOM      8  C   LIG    1       -1.017   1.589  -0.412  0.00  0.00    +0.034 C 
ENDROOT
BRANCH   1   9
ATOM      9  C   LIG    1        1.290  -1.378   0.379  0.00  0.00    +0.020 A 
ATOM     10  S   LIG    1        1.008  -2.286   1.797  0.00  0.00    -0.097 S 
ATOM     11  C   LIG    1        2.025  -3.617   1.479  0.00  0.00    +0.046 A 
ATOM     12  C   LIG    1        2.560  -3.308   0.257  0.00  0.00    +0.008 A 
ATOM     13  C   LIG    1        2.183  -2.156  -0.309  0.00  0.00    +0.016 A 
ENDBRANCH   1   9
BRANCH   1  14
ATOM     14  C   LIG    1        1.774   0.943  -0.403  0.00  0.00    +0.020 A 
ATOM     15  C   LIG    1        2.961   1.211   0.232  0.00  0.00    +0.016 A 
ATOM     16  C   LIG    1        3.749   2.158  -0.304  0.00  0.00    +0.008 A 
ATOM     17  C   LIG    1        3.297   2.774  -1.438  0.00  0.00    +0.046 A 
ATOM     18  S   LIG    1        1.801   2.023  -1.724  0.00  0.00    -0.097 S 
ENDBRANCH   1  14
TORSDOF 2
