REMARK  Name = molecules/JWJOTENAMICLJG-QWBYCMEYSA-N.pdb
REMARK                            x       y       z     vdW  Elec       q    Type
REMARK                         _______ _______ _______ _____ _____    ______ ____
ROOT
ATOM      1  C   LIG    1        0.116  -0.888   1.243  0.00  0.00    +0.012 C 
ATOM      2  C   LIG    1       -0.133  -0.080   0.009  0.00  0.00    -0.018 C 
ATOM      3  C   LIG    1       -0.392   1.358   0.268  0.00  0.00    +0.008 C 
ATOM      4  C   LIG    1       -1.754   1.872   0.072  0.00  0.00    +0.005 C 
ATOM      5  C   LIG    1       -2.862   0.941  -0.253  0.00  0.00    +0.004 C 
ATOM      6  C   LIG    1       -4.128   1.220   0.503  0.00  0.00    +0.008 C 
ATOM      7  C   LIG    1       -4.001   0.996   2.000  0.00  0.00    +0.017 C 
ATOM      8  C   LIG    1       -4.552   2.639   0.348  0.00  0.00    -0.013 C 
ATOM      9  C   LIG    1       -5.829   2.974   0.328  0.00  0.00    +0.063 C 
ATOM     10  C   LIG    1       -6.922   1.990   0.443  0.00  0.00    +0.237 C 
ATOM     11  N   LIG    1       -6.485   0.620   0.575  0.00  0.00    -0.308 N 
ATOM     12  H   LIG    1       -7.063  -0.054   1.090  0.00  0.00    +0.149 HD
ATOM     13  O   LIG    1       -8.135   2.315   0.432  0.00  0.00    -0.271 OA
ATOM     14  C   LIG    1       -5.224   0.349  -0.073  0.00  0.00    +0.083 C 
ATOM     15  C   LIG    1       -4.871  -1.100  -0.080  0.00  0.00    +0.023 C 
ATOM     16  C   LIG    1       -3.613  -1.288  -0.921  0.00  0.00    +0.006 C 
ATOM     17  C   LIG    1       -2.503  -0.528  -0.191  0.00  0.00    -0.003 C 
ATOM     18  C   LIG    1        1.076  -0.320  -0.894  0.00  0.00    +0.081 C 
ATOM     19  C   LIG    1        0.817  -1.776  -1.285  0.00  0.00    +0.013 C 
ATOM     20  C   LIG    1       -0.665  -2.025  -1.119  0.00  0.00    +0.005 C 
ATOM     21  C   LIG    1       -1.198  -0.661  -0.905  0.00  0.00    -0.001 C 
ENDROOT
BRANCH  18  22
ATOM     22  C   LIG    1        2.332  -0.140  -0.193  0.00  0.00    +0.221 C 
ATOM     23  O   LIG    1        2.131   0.504   0.980  0.00  0.00    -0.275 OA
ATOM     24  N   LIG    1        3.597  -0.442  -0.413  0.00  0.00    -0.285 N 
ATOM     25  H   LIG    1        3.482  -0.994  -1.528  0.00  0.00    +0.155 HD
BRANCH  24  26
ATOM     26  C   LIG    1        4.944  -0.533  -0.222  0.00  0.00    +0.046 A 
ATOM     27  C   LIG    1        5.444   0.194   0.888  0.00  0.00    +0.036 A 
ATOM     28  C   LIG    1        6.757   0.220   1.256  0.00  0.00    +0.057 A 
ATOM     29  C   LIG    1        7.613  -0.521   0.473  0.00  0.00    +0.013 A 
ATOM     30  C   LIG    1        7.172  -1.231  -0.599  0.00  0.00    +0.015 A 
ATOM     31  C   LIG    1        5.833  -1.262  -0.985  0.00  0.00    +0.076 A 
BRANCH  28  32
ATOM     32  C   LIG    1        7.284   1.003   2.400  0.00  0.00    +0.417 C 
ATOM     33  F   LIG    1        6.651   0.782   3.576  0.00  0.00    -0.166 F 
ATOM     34  F   LIG    1        8.633   0.745   2.538  0.00  0.00    -0.166 F 
ATOM     35  F   LIG    1        7.183   2.365   2.081  0.00  0.00    -0.166 F 
ENDBRANCH  28  32
BRANCH  31  36
ATOM     36  C   LIG    1        5.431  -1.979  -2.231  0.00  0.00    +0.419 C 
ATOM     37  F   LIG    1        4.482  -2.941  -2.041  0.00  0.00    -0.166 F 
ATOM     38  F   LIG    1        6.537  -2.570  -2.803  0.00  0.00    -0.166 F 
ATOM     39  F   LIG    1        4.986  -1.010  -3.170  0.00  0.00    -0.166 F 
ENDBRANCH  31  36
ENDBRANCH  24  26
ENDBRANCH  18  22
TORSDOF 4
