REMARK  Name = molecules/JWNPDZNEKVCWMY-VQHVLOKHSA-N.pdb
REMARK                            x       y       z     vdW  Elec       q    Type
REMARK                         _______ _______ _______ _____ _____    ______ ____
ROOT
ATOM      1  N   LIG    1        0.094  -5.254   1.529  0.00  0.00    -0.253 NA
ATOM      2  C   LIG    1        1.213  -5.094   2.294  0.00  0.00    +0.132 A 
ATOM      3  C   LIG    1        1.647  -3.851   2.669  0.00  0.00    +0.091 A 
ATOM      4  C   LIG    1        0.906  -2.754   2.242  0.00  0.00    +0.060 A 
ATOM      5  C   LIG    1       -0.208  -2.921   1.481  0.00  0.00    +0.025 A 
ATOM      6  C   LIG    1       -0.982  -1.843   1.031  0.00  0.00    +0.039 A 
ATOM      7  C   LIG    1       -2.101  -2.000   0.267  0.00  0.00    +0.077 A 
ATOM      8  C   LIG    1       -2.515  -3.302  -0.098  0.00  0.00    +0.144 A 
ATOM      9  C   LIG    1       -1.737  -4.342   0.356  0.00  0.00    +0.076 A 
ATOM     10  C   LIG    1       -0.608  -4.180   1.127  0.00  0.00    +0.076 A 
ENDROOT
BRANCH   7  11
ATOM     11  N   LIG    1       -2.882  -0.910  -0.187  0.00  0.00    -0.279 N 
ATOM     12  C   LIG    1       -2.688   0.457   0.045  0.00  0.00    +0.241 C 
ATOM     13  O   LIG    1       -1.711   0.883   0.744  0.00  0.00    -0.271 OA
ATOM     14  H   LIG    1       -3.741  -1.149  -0.792  0.00  0.00    +0.155 HD
BRANCH  12  15
ATOM     15  C   LIG    1       -3.599   1.483  -0.503  0.00  0.00    +0.064 C 
ATOM     16  C   LIG    1       -4.648   1.248  -1.238  0.00  0.00    -0.007 C 
BRANCH  16  17
ATOM     17  C   LIG    1       -5.535   2.320  -1.764  0.00  0.00    +0.111 C 
BRANCH  17  18
ATOM     18  N   LIG    1       -5.166   3.644  -1.374  0.00  0.00    -0.305 NA
ATOM     19  C   LIG    1       -5.446   3.834   0.062  0.00  0.00    +0.104 C 
ATOM     20  C   LIG    1       -6.103   4.542  -2.078  0.00  0.00    +0.104 C 
ENDBRANCH  17  18
ENDBRANCH  16  17
ENDBRANCH  12  15
ENDBRANCH   7  11
BRANCH   3  21
ATOM     21  C   LIG    1        2.832  -3.656   3.481  0.00  0.00    +0.103 C 
ATOM     22  N   LIG    1        3.772  -3.507   4.149  0.00  0.00    -0.191 NA
ENDBRANCH   3  21
BRANCH   4  23
ATOM     23  N   LIG    1        1.345  -1.470   2.620  0.00  0.00    -0.313 N 
ATOM     24  H   LIG    1        0.989  -1.064   3.509  0.00  0.00    +0.152 HD
BRANCH  23  25
ATOM     25  C   LIG    1        2.246  -0.717   1.843  0.00  0.00    +0.033 A 
ATOM     26  C   LIG    1        2.651   0.534   2.239  0.00  0.00    +0.027 A 
ATOM     27  C   LIG    1        3.533   1.257   1.469  0.00  0.00    +0.049 A 
ATOM     28  C   LIG    1        4.026   0.730   0.282  0.00  0.00    +0.139 A 
ATOM     29  C   LIG    1        3.609  -0.525  -0.099  0.00  0.00    +0.084 A 
ATOM     30 CL   LIG    1        4.245  -1.172  -1.605  0.00  0.00    -0.080 Cl
ATOM     31  C   LIG    1        2.731  -1.244   0.667  0.00  0.00    +0.047 A 
BRANCH  28  32
ATOM     32  O   LIG    1        4.917   1.429  -0.521  0.00  0.00    -0.484 OA
BRANCH  32  33
ATOM     33  C   LIG    1        5.317   2.716  -0.089  0.00  0.00    +0.284 C 
BRANCH  33  34
ATOM     34  C   LIG    1        6.271   3.333  -1.054  0.00  0.00    +0.078 A 
ATOM     35  C   LIG    1        7.624   3.096  -0.869  0.00  0.00    +0.027 A 
ATOM     36  C   LIG    1        8.524   3.664  -1.758  0.00  0.00    +0.003 A 
ATOM     37  C   LIG    1        8.101   4.452  -2.813  0.00  0.00    +0.020 A 
ATOM     38  C   LIG    1        6.746   4.656  -2.952  0.00  0.00    +0.111 A 
ATOM     39  N   LIG    1        5.869   4.101  -2.082  0.00  0.00    -0.256 NA
ENDBRANCH  33  34
ENDBRANCH  32  33
ENDBRANCH  28  32
ENDBRANCH  23  25
ENDBRANCH   4  23
BRANCH   8  40
ATOM     40  O   LIG    1       -3.650  -3.463  -0.874  0.00  0.00    -0.490 OA
BRANCH  40  41
ATOM     41  C   LIG    1       -4.087  -4.731  -1.245  0.00  0.00    +0.226 C 
ATOM     42  C   LIG    1       -4.453  -5.645  -0.116  0.00  0.00    +0.048 C 
ENDBRANCH  40  41
ENDBRANCH   8  40
TORSDOF 12
