REMARK  Name = molecules/JWQZOTGHUDZFMU-WIDFLDSMSA-N.pdb
REMARK                            x       y       z     vdW  Elec       q    Type
REMARK                         _______ _______ _______ _____ _____    ______ ____
ROOT
ATOM      1  N   LIG    1        6.054 -32.289   0.000  0.00  0.00    -0.133 NA
ATOM      2  C   LIG    1        6.054 -30.789   0.000  0.00  0.00    +0.149 C 
ENDROOT
BRANCH   2   3
ATOM      3  C   LIG    1        4.554 -30.789   0.000  0.00  0.00    +0.085 C 
ATOM      4  N   LIG    1        3.804 -29.490   0.000  0.00  0.00    -0.253 NA
BRANCH   4   5
ATOM      5  C   LIG    1        2.304 -29.490   0.000  0.00  0.00    +0.153 C 
ATOM      6  C   LIG    1        2.304 -30.990   0.000  0.00  0.00    +0.270 C 
ATOM      7  O   LIG    1        2.304 -32.490   0.000  0.00  0.00    -0.295 OA
ENDBRANCH   4   5
ENDBRANCH   2   3
BRANCH   2   8
ATOM      8  C   LIG    1        7.554 -30.789   0.000  0.00  0.00    +0.085 C 
BRANCH   8   9
ATOM      9  C   LIG    1        9.054 -30.789   0.000  0.00  0.00    +0.063 A 
ATOM     10  C   LIG    1        9.935 -29.576   0.000  0.00  0.00    +0.135 A 
ATOM     11  N   LIG    1       11.362 -30.039   0.000  0.00  0.00    -0.242 NA
ATOM     12  C   LIG    1       11.362 -31.539   0.000  0.00  0.00    +0.221 A 
ATOM     13  N   LIG    1        9.935 -32.003   0.000  0.00  0.00    -0.239 NA
ENDBRANCH   8   9
ENDBRANCH   2   8
TORSDOF 4
REMARK  Name = molecules/JWQZOTGHUDZFMU-WIDFLDSMSA-N.pdb
REMARK                            x       y       z     vdW  Elec       q    Type
REMARK                         _______ _______ _______ _____ _____    ______ ____
ROOT
ATOM      1  C   LIG    1        1.005 -25.740   0.000  0.00  0.00    +0.151 C 
ENDROOT
BRANCH   1   2
ATOM      2  C   LIG    1        2.505 -25.740   0.000  0.00  0.00    +0.052 C 
ATOM      3  C   LIG    1        4.005 -25.740   0.000  0.00  0.00    +0.223 C 
ATOM      4  O   LIG    1        4.755 -24.441   0.000  0.00  0.00    -0.284 OA
ENDBRANCH   1   2
BRANCH   1   5
ATOM      5  N   LIG    1        1.005 -27.240   0.000  0.00  0.00    -0.216 NA
ATOM      6  C   LIG    1        2.304 -27.990   0.000  0.00  0.00    +0.107 C 
ENDBRANCH   1   5
BRANCH   1   7
ATOM      7  C   LIG    1       -0.495 -25.740   0.000  0.00  0.00    +0.183 C 
BRANCH   7   8
ATOM      8  N   LIG    1       -1.245 -24.441   0.000  0.00  0.00    -0.278 NA
ATOM      9  C   LIG    1       -1.647 -23.343   0.000  0.00  0.00    +0.093 C 
ATOM     10  H   LIG    1       -0.348 -24.093   0.000  0.00  0.00    +0.125 HD
ENDBRANCH   7   8
BRANCH   7  11
ATOM     11  O   LIG    1       -1.245 -27.039   0.000  0.00  0.00    -0.369 OA
ATOM     12  H   LIG    1       -0.294 -27.990   0.000  0.00  0.00    +0.212 HD
ENDBRANCH   7  11
ENDBRANCH   1   7
TORSDOF 5
REMARK  Name = molecules/JWQZOTGHUDZFMU-WIDFLDSMSA-N.pdb
REMARK                            x       y       z     vdW  Elec       q    Type
REMARK                         _______ _______ _______ _____ _____    ______ ____
ROOT
ATOM      1  N   ALA A  1       -4.995 -23.142   0.000  0.00  0.00    -0.243 NA
ATOM      2  CA  ALA A  1       -4.245 -21.843   0.000  0.00  0.00    +0.061 C 
ATOM      3  CB  ALA A  1       -5.544 -21.093   0.000  0.00  0.00    +0.049 C 
ENDROOT
BRANCH   1   4
ATOM      4  C   UNK A  0       -4.245 -24.441   0.000  0.00  0.00    +0.308 C 
ATOM      5  O   UNK A  0       -4.995 -25.740   0.000  0.00  0.00    -0.191 OA
ENDBRANCH   1   4
BRANCH   2   6
ATOM      6  C   ALA A  1       -2.946 -22.593   0.000  0.00  0.00    +0.238 C 
ATOM      7  O   ALA A  1       -2.196 -21.294   0.000  0.00  0.00    -0.222 OA
ENDBRANCH   2   6
TORSDOF 2
REMARK  Name = molecules/JWQZOTGHUDZFMU-WIDFLDSMSA-N.pdb
REMARK                            x       y       z     vdW  Elec       q    Type
REMARK                         _______ _______ _______ _____ _____    ______ ____
ROOT
ATOM      1  C   LIG    1       -8.343 -21.441   0.000  0.00  0.00    -0.024 A 
ATOM      2  C   LIG    1       -9.843 -21.441   0.000  0.00  0.00    +0.008 A 
ATOM      3  C   LIG    1      -10.593 -22.740   0.000  0.00  0.00    +0.001 A 
ATOM      4  C   LIG    1       -9.843 -24.039   0.000  0.00  0.00    +0.000 A 
ATOM      5  C   LIG    1       -8.343 -24.039   0.000  0.00  0.00    +0.001 A 
ATOM      6  C   LIG    1       -7.593 -22.740   0.000  0.00  0.00    +0.008 A 
ENDROOT
BRANCH   1   9
ATOM      7  N   LIG    1       -5.544 -19.593   0.000  0.00  0.00    -0.138 NA
ATOM      8  C   LIG    1       -6.843 -18.843   0.000  0.00  0.00    +0.118 C 
ATOM      9  C   LIG    1       -7.593 -20.142   0.000  0.00  0.00    +0.026 C 
ENDBRANCH   1   9
TORSDOF 1
REMARK  Name = molecules/JWQZOTGHUDZFMU-WIDFLDSMSA-N.pdb
REMARK                            x       y       z     vdW  Elec       q    Type
REMARK                         _______ _______ _______ _____ _____    ______ ____
ROOT
ATOM      1  N   LIG    1       -4.593 -17.544   0.000  0.00  0.00    -0.162 NA
ATOM      2  C   LIG    1       -3.441 -17.343   0.000  0.00  0.00    +0.117 C 
ATOM      3  C   LIG    1       -2.544 -16.995   0.000  0.00  0.00    +0.045 C 
ENDROOT
TORSDOF 0
REMARK  Name = molecules/JWQZOTGHUDZFMU-WIDFLDSMSA-N.pdb
REMARK                            x       y       z     vdW  Elec       q    Type
REMARK                         _______ _______ _______ _____ _____    ______ ____
ROOT
ATOM      1  N   LIG    1       -5.142 -13.995   0.000  0.00  0.00    -0.320 NA
ATOM      2  C   LIG    1       -5.691 -14.544   0.000  0.00  0.00    +0.082 C 
ATOM      3  H   LIG    1       -5.590 -13.197   0.000  0.00  0.00    +0.119 HD
ATOM      4  H   LIG    1       -4.197 -14.675   0.000  0.00  0.00    +0.119 HD
ENDROOT
TORSDOF 0
REMARK  Name = molecules/JWQZOTGHUDZFMU-WIDFLDSMSA-N.pdb
REMARK                            x       y       z     vdW  Elec       q    Type
REMARK                         _______ _______ _______ _____ _____    ______ ____
ROOT
ATOM      1  N   LIG    1       -1.593 -14.544   0.000  0.00  0.00    +0.000 NA
ENDROOT
TORSDOF 0
REMARK  Name = molecules/JWQZOTGHUDZFMU-WIDFLDSMSA-N.pdb
REMARK                            x       y       z     vdW  Elec       q    Type
REMARK                         _______ _______ _______ _____ _____    ______ ____
ROOT
ATOM      1  N   LIG    1        1.755 -15.843   0.000  0.00  0.00    +0.000 NA
ENDROOT
TORSDOF 0
REMARK  Name = molecules/JWQZOTGHUDZFMU-WIDFLDSMSA-N.pdb
REMARK                            x       y       z     vdW  Elec       q    Type
REMARK                         _______ _______ _______ _____ _____    ______ ____
ROOT
ATOM      1  N   LIG    1        0.804 -13.794   0.000  0.00  0.00    -0.178 NA
ATOM      2  C   LIG    1        0.054 -12.495   0.000  0.00  0.00    +0.127 C 
ATOM      3  C   LIG    1        0.456 -15.093   0.000  0.00  0.00    +0.127 C 
ENDROOT
BRANCH   1   4
ATOM      4  O   LIG    1        0.093 -13.638   0.000  0.00  0.00    -0.312 OA
ATOM      5  H   LIG    1       -0.806 -13.511   0.000  0.00  0.00    +0.237 HD
ENDBRANCH   1   4
TORSDOF 1
REMARK  Name = molecules/JWQZOTGHUDZFMU-WIDFLDSMSA-N.pdb
REMARK                            x       y       z     vdW  Elec       q    Type
REMARK                         _______ _______ _______ _____ _____    ______ ____
ROOT
ATOM      1  N   LIG    1        1.353 -10.245   0.000  0.00  0.00    -0.344 NA
ATOM      2  H   LIG    1        0.288 -10.977   0.000  0.00  0.00    +0.115 HD
ATOM      3  H   LIG    1        1.857 -10.767   0.000  0.00  0.00    +0.115 HD
ATOM      4  H   LIG    1        0.350  -9.695   0.000  0.00  0.00    +0.115 HD
ENDROOT
TORSDOF 0
REMARK  Name = molecules/JWQZOTGHUDZFMU-WIDFLDSMSA-N.pdb
REMARK                            x       y       z     vdW  Elec       q    Type
REMARK                         _______ _______ _______ _____ _____    ______ ____
ROOT
ATOM      1  N   LIG    1        0.402  -8.196   0.000  0.00  0.00    -0.180 NA
ATOM      2  C   LIG    1        0.603  -7.446   0.000  0.00  0.00    +0.180 C 
ENDROOT
TORSDOF 0
REMARK  Name = molecules/JWQZOTGHUDZFMU-WIDFLDSMSA-N.pdb
REMARK                            x       y       z     vdW  Elec       q    Type
REMARK                         _______ _______ _______ _____ _____    ______ ____
ROOT
ATOM      1  N   LIG    1        0.951  -4.647   0.000  0.00  0.00    +0.000 NA
ENDROOT
TORSDOF 0
REMARK  Name = molecules/JWQZOTGHUDZFMU-WIDFLDSMSA-N.pdb
REMARK                            x       y       z     vdW  Elec       q    Type
REMARK                         _______ _______ _______ _____ _____    ______ ____
ROOT
ATOM      1  C   LIG    1        0.750  -1.299   0.000  0.00  0.00    +0.037 C 
ENDROOT
BRANCH   1   2
ATOM      2  C   LIG    1        1.500  -2.598   0.000  0.00  0.00    +0.009 C 
BRANCH   2   3
ATOM      3  C   LIG    1        2.250  -3.897   0.000  0.00  0.00    +0.019 C 
BRANCH   3   4
ATOM      4  C   LIG    1        3.201  -4.848   0.000  0.00  0.00    +0.079 C 
BRANCH   4   5
ATOM      5  N   LIG    1        4.500  -5.196   0.000  0.00  0.00    -0.246 NA
ATOM      6  H   LIG    1        4.399  -3.945   0.000  0.00  0.00    +0.141 HD
ENDBRANCH   4   5
ENDBRANCH   3   4
ENDBRANCH   2   3
ENDBRANCH   1   2
BRANCH   1   7
ATOM      7  C   LIG    1        0.000   0.000   0.000  0.00  0.00    +0.196 C 
BRANCH   7   8
ATOM      8  N   LIG    1       -0.750   1.299   0.000  0.00  0.00    -0.268 N 
ATOM      9  H   LIG    1       -2.159   1.528   0.000  0.00  0.00    +0.258 HD
BRANCH   8  10
ATOM     10  C   LIG    1        0.000   2.598   0.000  0.00  0.00    +0.500 C 
ATOM     11  N   LIG    1       -0.750   3.897   0.000  0.00  0.00    +0.132 NA
ATOM     12  N   LIG    1        1.500   2.598   0.000  0.00  0.00    +0.132 NA
ENDBRANCH   8  10
ENDBRANCH   7   8
ENDBRANCH   1   7
TORSDOF 7
REMARK  Name = molecules/JWQZOTGHUDZFMU-WIDFLDSMSA-N.pdb
REMARK                            x       y       z     vdW  Elec       q    Type
REMARK                         _______ _______ _______ _____ _____    ______ ____
ROOT
ATOM      1  N   LIG    1        3.951  -8.745   0.000  0.00  0.00    +0.000 NA
ENDROOT
TORSDOF 0
REMARK  Name = molecules/JWQZOTGHUDZFMU-WIDFLDSMSA-N.pdb
REMARK                            x       y       z     vdW  Elec       q    Type
REMARK                         _______ _______ _______ _____ _____    ______ ____
ROOT
ATOM      1  N   LIG    1        2.652  -6.897   0.000  0.00  0.00    -0.163 NA
ATOM      2  H   LIG    1        1.984  -6.860   0.000  0.00  0.00    +0.163 HD
ENDROOT
TORSDOF 0
REMARK  Name = molecules/JWQZOTGHUDZFMU-WIDFLDSMSA-N.pdb
REMARK                            x       y       z     vdW  Elec       q    Type
REMARK                         _______ _______ _______ _____ _____    ______ ____
ROOT
ATOM      1  N   LIG    1       -0.696  -5.598   0.000  0.00  0.00    -0.163 NA
ATOM      2  H   LIG    1       -1.447  -5.449   0.000  0.00  0.00    +0.163 HD
ENDROOT
TORSDOF 0
REMARK  Name = molecules/JWQZOTGHUDZFMU-WIDFLDSMSA-N.pdb
REMARK                            x       y       z     vdW  Elec       q    Type
REMARK                         _______ _______ _______ _____ _____    ______ ____
ROOT
ATOM      1  N   LIG    1       -1.995  -8.946   0.000  0.00  0.00    -0.131 NA
ATOM      2  C   LIG    1       -2.544  -9.495   0.000  0.00  0.00    +0.109 C 
ATOM      3  C   LIG    1       -2.946  -8.397   0.000  0.00  0.00    +0.022 C 
ENDROOT
TORSDOF 0
REMARK  Name = molecules/JWQZOTGHUDZFMU-WIDFLDSMSA-N.pdb
REMARK                            x       y       z     vdW  Elec       q    Type
REMARK                         _______ _______ _______ _____ _____    ______ ____
ROOT
ATOM      1  N   LIG    1       -3.843 -10.245   0.000  0.00  0.00    +0.000 NA
ENDROOT
TORSDOF 0
REMARK  Name = molecules/JWQZOTGHUDZFMU-WIDFLDSMSA-N.pdb
REMARK                            x       y       z     vdW  Elec       q    Type
REMARK                         _______ _______ _______ _____ _____    ______ ____
ROOT
ATOM      1  N   LIG    1       -7.392  -9.696   0.000  0.00  0.00    +0.000 NA
ENDROOT
TORSDOF 0
REMARK  Name = molecules/JWQZOTGHUDZFMU-WIDFLDSMSA-N.pdb
REMARK                            x       y       z     vdW  Elec       q    Type
REMARK                         _______ _______ _______ _____ _____    ______ ____
ROOT
ATOM      1  N   LIG    1       -9.441 -10.647   0.000  0.00  0.00    +0.038 NA
ATOM      2  O   LIG    1       -8.558 -10.640   0.000  0.00  0.00    -0.278 OA
ATOM      3  H   LIG    1       -8.061 -11.233   0.000  0.00  0.00    +0.240 HD
ENDROOT
TORSDOF 0
REMARK  Name = molecules/JWQZOTGHUDZFMU-WIDFLDSMSA-N.pdb
REMARK                            x       y       z     vdW  Elec       q    Type
REMARK                         _______ _______ _______ _____ _____    ______ ____
ROOT
ATOM      1  N   LIG    1      -12.990 -10.098   0.000  0.00  0.00    -0.221 NA
ATOM      2  C   LIG    1      -11.490 -10.098   0.000  0.00  0.00    +0.251 C 
ATOM      3  O   LIG    1      -11.243  -8.952   0.000  0.00  0.00    -0.270 OA
ATOM      4  O   LIG    1      -11.295  -8.296   0.000  0.00  0.00    -0.268 OA
ATOM      5  C   LIG    1      -12.441  -8.049   0.000  0.00  0.00    +0.269 C 
ATOM      6  C   LIG    1      -13.740  -8.799   0.000  0.00  0.00    +0.142 C 
ENDROOT
BRANCH   2   7
ATOM      7  C   LIG    1      -10.740 -11.397   0.000  0.00  0.00    +0.100 C 
ATOM      8  C   LIG    1       -9.990 -12.696   0.000  0.00  0.00    +0.005 C 
ENDBRANCH   2   7
BRANCH   5   9
ATOM      9  N   LIG    1      -12.441  -6.549   0.000  0.00  0.00    -0.209 NA
BRANCH   9  10
ATOM     10  C   LIG    1      -11.142  -5.799   0.000  0.00  0.00    +0.106 C 
ATOM     11  C   LIG    1      -10.392  -7.098   0.000  0.00  0.00    +0.017 C 
BRANCH  10  12
ATOM     12  C   LIG    1      -11.892  -4.500   0.000  0.00  0.00    +0.034 C 
BRANCH  12  13
ATOM     13  C   LIG    1      -12.642  -3.201   0.000  0.00  0.00    +0.101 C 
BRANCH  13  14
ATOM     14  C   LIG    1      -13.392  -1.902   0.000  0.00  0.00    +0.252 C 
ATOM     15  N   LIG    1      -12.642  -0.603   0.000  0.00  0.00    -0.088 NA
ATOM     16  O   LIG    1      -14.892  -1.902   0.000  0.00  0.00    -0.272 OA
ENDBRANCH  13  14
ENDBRANCH  12  13
ENDBRANCH  10  12
ENDBRANCH   9  10
ENDBRANCH   5   9
BRANCH   6  17
ATOM     17  C   LIG    1      -15.039  -9.549   0.000  0.00  0.00    +0.046 C 
BRANCH  17  18
ATOM     18  C   LIG    1      -16.338 -10.299   0.000  0.00  0.00    -0.005 C 
ATOM     19  C   LIG    1      -17.637 -11.049   0.000  0.00  0.00    +0.008 C 
ATOM     20  C   LIG    1      -15.588 -11.598   0.000  0.00  0.00    +0.004 C 
ENDBRANCH  17  18
ENDBRANCH   6  17
TORSDOF 8
REMARK  Name = molecules/JWQZOTGHUDZFMU-WIDFLDSMSA-N.pdb
REMARK                            x       y       z     vdW  Elec       q    Type
REMARK                         _______ _______ _______ _____ _____    ______ ____
ROOT
ATOM      1  N   LIG    1       -8.892  -7.098   0.000  0.00  0.00    +0.000 NA
ENDROOT
TORSDOF 0
REMARK  Name = molecules/JWQZOTGHUDZFMU-WIDFLDSMSA-N.pdb
REMARK                            x       y       z     vdW  Elec       q    Type
REMARK                         _______ _______ _______ _____ _____    ______ ____
ROOT
ATOM      1  N   LIG    1       -5.892  -9.696   0.000  0.00  0.00    +0.000 NA
ENDROOT
TORSDOF 0
REMARK  Name = molecules/JWQZOTGHUDZFMU-WIDFLDSMSA-N.pdb
REMARK                            x       y       z     vdW  Elec       q    Type
REMARK                         _______ _______ _______ _____ _____    ______ ____
ROOT
ATOM      1  N   LIG    1       -6.441 -13.245   0.000  0.00  0.00    -0.163 NA
ATOM      2  H   LIG    1       -5.892 -12.696   0.000  0.00  0.00    +0.163 HD
ENDROOT
TORSDOF 0
REMARK  Name = molecules/JWQZOTGHUDZFMU-WIDFLDSMSA-N.pdb
REMARK                            x       y       z     vdW  Elec       q    Type
REMARK                         _______ _______ _______ _____ _____    ______ ____
ROOT
ATOM      1  N   LIG    1       -7.740 -11.397   0.000  0.00  0.00    -0.163 NA
ATOM      2  H   LIG    1       -8.295 -10.894   0.000  0.00  0.00    +0.163 HD
ENDROOT
TORSDOF 0
REMARK  Name = molecules/JWQZOTGHUDZFMU-WIDFLDSMSA-N.pdb
REMARK                            x       y       z     vdW  Elec       q    Type
REMARK                         _______ _______ _______ _____ _____    ______ ____
ROOT
ATOM      1  O   HOH    1        3.804 -32.089   0.000  0.00  0.00    -0.410 OA
ATOM      2  H   HOH    0        4.755 -33.039   0.000  0.00  0.00    +0.205 HD
ATOM      3  H   HOH    0        3.759 -31.353   0.000  0.00  0.00    +0.205 HD
ENDROOT
TORSDOF 0
REMARK  Name = molecules/JWQZOTGHUDZFMU-WIDFLDSMSA-N.pdb
REMARK                            x       y       z     vdW  Elec       q    Type
REMARK                         _______ _______ _______ _____ _____    ______ ____
ROOT
ATOM      1  O   LIG    1        3.603 -27.240   0.000  0.00  0.00    -0.253 OA
ATOM      2  H   LIG    1        2.868 -27.196   0.000  0.00  0.00    +0.253 HD
ENDROOT
BRANCH   1   3
ATOM      3  O   LIG    1        4.755 -27.039   0.000  0.00  0.00    -0.253 OA
ATOM      4  H   LIG    1        4.554 -28.191   0.000  0.00  0.00    +0.253 HD
ENDBRANCH   1   3
TORSDOF 1
REMARK  Name = molecules/JWQZOTGHUDZFMU-WIDFLDSMSA-N.pdb
REMARK                            x       y       z     vdW  Elec       q    Type
REMARK                         _______ _______ _______ _____ _____    ______ ____
ROOT
ATOM      1  C   LIG    1       -2.745 -24.441   0.000  0.00  0.00    +0.000 C 
ENDROOT
TORSDOF 0
REMARK  Name = molecules/JWQZOTGHUDZFMU-WIDFLDSMSA-N.pdb
REMARK                            x       y       z     vdW  Elec       q    Type
REMARK                         _______ _______ _______ _____ _____    ______ ____
ROOT
ATOM      1  O   HOH    1       -6.843 -21.843   0.000  0.00  0.00    -0.410 OA
ATOM      2  H   HOH    0       -6.514 -21.184   0.000  0.00  0.00    +0.205 HD
ATOM      3  H   HOH    0       -6.104 -22.558   0.000  0.00  0.00    +0.205 HD
ENDROOT
TORSDOF 0
REMARK  Name = molecules/JWQZOTGHUDZFMU-WIDFLDSMSA-N.pdb
REMARK                            x       y       z     vdW  Elec       q    Type
REMARK                         _______ _______ _______ _____ _____    ______ ____
ROOT
ATOM      1  C   LIG    1       -6.093 -17.544   0.000  0.00  0.00    +0.000 C 
ENDROOT
TORSDOF 0
REMARK  Name = molecules/JWQZOTGHUDZFMU-WIDFLDSMSA-N.pdb
REMARK                            x       y       z     vdW  Elec       q    Type
REMARK                         _______ _______ _______ _____ _____    ______ ____
ROOT
ATOM      1  O   LIG    1       -6.439 -16.729   0.000  0.00  0.00    +0.000 OA
ATOM      2  O   LIG    1       -6.039 -17.343   0.000  0.00  0.00    +0.000 OA
ENDROOT
TORSDOF 0
REMARK  Name = molecules/JWQZOTGHUDZFMU-WIDFLDSMSA-N.pdb
REMARK                            x       y       z     vdW  Elec       q    Type
REMARK                         _______ _______ _______ _____ _____    ______ ____
ROOT
ATOM      1  C   LIG    1       -5.142 -15.495   0.000  0.00  0.00    +0.182 C 
ATOM      2  O   LIG    1       -5.850 -16.028   0.000  0.00  0.00    -0.356 OA
ATOM      3  C   LIG    1       -6.240 -16.593   0.000  0.00  0.00    +0.174 C 
ENDROOT
TORSDOF 0
REMARK  Name = molecules/JWQZOTGHUDZFMU-WIDFLDSMSA-N.pdb
REMARK                            x       y       z     vdW  Elec       q    Type
REMARK                         _______ _______ _______ _____ _____    ______ ____
ROOT
ATOM      1  N   LIG    1       -1.392 -14.892   0.000  0.00  0.00    -0.194 NA
ATOM      2  C   LIG    1       -0.843 -15.843   0.000  0.00  0.00    +0.123 C 
ATOM      3  H   LIG    1       -0.659 -14.626   0.000  0.00  0.00    +0.154 HD
ENDROOT
BRANCH   1   4
ATOM      4  O   LIG    1       -1.794 -15.696   0.000  0.00  0.00    -0.283 OA
ATOM      5  C   LIG    1       -2.142 -16.593   0.000  0.00  0.00    +0.200 C 
ENDBRANCH   1   4
TORSDOF 1
REMARK  Name = molecules/JWQZOTGHUDZFMU-WIDFLDSMSA-N.pdb
REMARK                            x       y       z     vdW  Elec       q    Type
REMARK                         _______ _______ _______ _____ _____    ______ ____
ROOT
ATOM      1  C   LIG    1       -3.843 -16.245   0.000  0.00  0.00    +0.000 C 
ENDROOT
TORSDOF 0
REMARK  Name = molecules/JWQZOTGHUDZFMU-WIDFLDSMSA-N.pdb
REMARK                            x       y       z     vdW  Elec       q    Type
REMARK                         _______ _______ _______ _____ _____    ______ ____
ROOT
ATOM      1  C   LIG    1       -1.245 -17.745   0.000  0.00  0.00    +0.000 C 
ENDROOT
TORSDOF 0
REMARK  Name = molecules/JWQZOTGHUDZFMU-WIDFLDSMSA-N.pdb
REMARK                            x       y       z     vdW  Elec       q    Type
REMARK                         _______ _______ _______ _____ _____    ______ ____
ROOT
ATOM      1  C   LIG    1       -3.093 -14.544   0.000  0.00  0.00    +0.228 C 
ATOM      2  C   LIG    1       -3.642 -13.593   0.000  0.00  0.00    +0.073 C 
ATOM      3  O   LIG    1       -2.544 -13.995   0.000  0.00  0.00    -0.301 OA
ENDROOT
TORSDOF 0
REMARK  Name = molecules/JWQZOTGHUDZFMU-WIDFLDSMSA-N.pdb
REMARK                            x       y       z     vdW  Elec       q    Type
REMARK                         _______ _______ _______ _____ _____    ______ ____
ROOT
ATOM      1  C   LIG    1       -4.593 -11.946   0.000  0.00  0.00    +0.000 C 
ATOM      2  C   LIG    1       -5.142 -10.995   0.000  0.00  0.00    +0.000 C 
ENDROOT
TORSDOF 0
REMARK  Name = molecules/JWQZOTGHUDZFMU-WIDFLDSMSA-N.pdb
REMARK                            x       y       z     vdW  Elec       q    Type
REMARK                         _______ _______ _______ _____ _____    ______ ____
ROOT
ATOM      1  O   LIG    1       -5.343 -10.647   0.000  0.00  0.00    -0.386 OA
ATOM      2  C   LIG    1       -5.892  -9.696   0.000  0.00  0.00    +0.176 C 
ATOM      3  H   LIG    1       -6.252 -11.214   0.000  0.00  0.00    +0.210 HD
ENDROOT
TORSDOF 0
REMARK  Name = molecules/JWQZOTGHUDZFMU-WIDFLDSMSA-N.pdb
REMARK                            x       y       z     vdW  Elec       q    Type
REMARK                         _______ _______ _______ _____ _____    ______ ____
ROOT
ATOM      1  C   LIG    1       -3.843 -13.245   0.000  0.00  0.00    +0.000 C 
ENDROOT
TORSDOF 0
REMARK  Name = molecules/JWQZOTGHUDZFMU-WIDFLDSMSA-N.pdb
REMARK                            x       y       z     vdW  Elec       q    Type
REMARK                         _______ _______ _______ _____ _____    ______ ____
ROOT
ATOM      1  O   LIG    1       -3.585 -15.396   0.000  0.00  0.00    -0.379 OA
ATOM      2  C   LIG    1       -2.892 -14.892   0.000  0.00  0.00    +0.169 C 
ATOM      3  H   LIG    1       -4.106 -15.020   0.000  0.00  0.00    +0.211 HD
ENDROOT
TORSDOF 0
REMARK  Name = molecules/JWQZOTGHUDZFMU-WIDFLDSMSA-N.pdb
REMARK                            x       y       z     vdW  Elec       q    Type
REMARK                         _______ _______ _______ _____ _____    ______ ____
ROOT
ATOM      1  C   LIG    1       -4.740 -18.093   0.000  0.00  0.00    +0.000 C 
ENDROOT
TORSDOF 0
REMARK  Name = molecules/JWQZOTGHUDZFMU-WIDFLDSMSA-N.pdb
REMARK                            x       y       z     vdW  Elec       q    Type
REMARK                         _______ _______ _______ _____ _____    ______ ____
ROOT
ATOM      1  O   HOH    1       -4.203 -19.494   0.000  0.00  0.00    -0.410 OA
ATOM      2  H   HOH    0       -3.495 -20.544   0.000  0.00  0.00    +0.205 HD
ATOM      3  H   HOH    0       -3.843 -18.843   0.000  0.00  0.00    +0.205 HD
ENDROOT
TORSDOF 0
REMARK  Name = molecules/JWQZOTGHUDZFMU-WIDFLDSMSA-N.pdb
REMARK                            x       y       z     vdW  Elec       q    Type
REMARK                         _______ _______ _______ _____ _____    ______ ____
ROOT
ATOM      1  C   LIG    1        2.304 -13.794   0.000  0.00  0.00    +0.000 C 
ENDROOT
TORSDOF 0
REMARK  Name = molecules/JWQZOTGHUDZFMU-WIDFLDSMSA-N.pdb
REMARK                            x       y       z     vdW  Elec       q    Type
REMARK                         _______ _______ _______ _____ _____    ______ ____
ROOT
ATOM      1  C   LIG    1        5.304 -18.990   0.000  0.00  0.00    +0.000 C 
ENDROOT
TORSDOF 0
REMARK  Name = molecules/JWQZOTGHUDZFMU-WIDFLDSMSA-N.pdb
REMARK                            x       y       z     vdW  Elec       q    Type
REMARK                         _______ _______ _______ _____ _____    ______ ____
ROOT
ATOM      1  N   LIG    1        5.652 -17.289   0.000  0.00  0.00    -0.301 NA
ATOM      2  C   LIG    1        4.554 -17.691   0.000  0.00  0.00    +0.091 C 
ATOM      3  H   LIG    1        6.756 -18.139   0.000  0.00  0.00    +0.123 HD
ENDROOT
BRANCH   1   5
ATOM      4  C   LIG    1        3.804 -16.392   0.000  0.00  0.00    +0.018 C 
ATOM      5  C   LIG    1        4.902 -15.990   0.000  0.00  0.00    +0.068 C 
ENDBRANCH   1   5
TORSDOF 1
REMARK  Name = molecules/JWQZOTGHUDZFMU-WIDFLDSMSA-N.pdb
REMARK                            x       y       z     vdW  Elec       q    Type
REMARK                         _______ _______ _______ _____ _____    ______ ____
ROOT
ATOM      1  C   LIG    1        3.054 -15.093   0.000  0.00  0.00    +0.166 C 
ATOM      2  N   LIG    1        3.402 -15.990   0.000  0.00  0.00    -0.166 NA
ENDROOT
TORSDOF 0
REMARK  Name = molecules/JWQZOTGHUDZFMU-WIDFLDSMSA-N.pdb
REMARK                            x       y       z     vdW  Elec       q    Type
REMARK                         _______ _______ _______ _____ _____    ______ ____
ROOT
ATOM      1  C   LIG    1        5.853 -16.941   0.000  0.00  0.00    +0.000 C 
ENDROOT
TORSDOF 0
REMARK  Name = molecules/JWQZOTGHUDZFMU-WIDFLDSMSA-N.pdb
REMARK                            x       y       z     vdW  Elec       q    Type
REMARK                         _______ _______ _______ _____ _____    ______ ____
ROOT
ATOM      1  O   HOH    1        3.054 -12.495   0.000  0.00  0.00    -0.410 OA
ATOM      2  H   HOH    0        2.458 -11.960   0.000  0.00  0.00    +0.205 HD
ATOM      3  H   HOH    0        3.402 -13.392   0.000  0.00  0.00    +0.205 HD
ENDROOT
TORSDOF 0
REMARK  Name = molecules/JWQZOTGHUDZFMU-WIDFLDSMSA-N.pdb
REMARK                            x       y       z     vdW  Elec       q    Type
REMARK                         _______ _______ _______ _____ _____    ______ ____
ROOT
ATOM      1  C   LIG    1        1.353 -11.745   0.000  0.00  0.00    +0.000 C 
ENDROOT
TORSDOF 0
REMARK  Name = molecules/JWQZOTGHUDZFMU-WIDFLDSMSA-N.pdb
REMARK                            x       y       z     vdW  Elec       q    Type
REMARK                         _______ _______ _______ _____ _____    ______ ____
ROOT
ATOM      1  C   LIG    1       -1.245 -13.245   0.000  0.00  0.00    +0.000 C 
ENDROOT
TORSDOF 0
REMARK  Name = molecules/JWQZOTGHUDZFMU-WIDFLDSMSA-N.pdb
REMARK                            x       y       z     vdW  Elec       q    Type
REMARK                         _______ _______ _______ _____ _____    ______ ____
ROOT
ATOM      1  O   HOH    1        2.652 -12.495   0.000  0.00  0.00    +0.000 OA
ENDROOT
TORSDOF 0
REMARK  Name = molecules/JWQZOTGHUDZFMU-WIDFLDSMSA-N.pdb
REMARK                            x       y       z     vdW  Elec       q    Type
REMARK                         _______ _______ _______ _____ _____    ______ ____
ROOT
ATOM      1  C   LIG    1        1.902  -8.196   0.000  0.00  0.00    +0.000 C 
ENDROOT
TORSDOF 0
REMARK  Name = molecules/JWQZOTGHUDZFMU-WIDFLDSMSA-N.pdb
REMARK                            x       y       z     vdW  Elec       q    Type
REMARK                         _______ _______ _______ _____ _____    ______ ____
ROOT
ATOM      1  C   LIG    1        3.402 -10.794   0.000  0.00  0.00    +0.000 C 
ENDROOT
TORSDOF 0
REMARK  Name = molecules/JWQZOTGHUDZFMU-WIDFLDSMSA-N.pdb
REMARK                            x       y       z     vdW  Elec       q    Type
REMARK                         _______ _______ _______ _____ _____    ______ ____
ROOT
ATOM      1  C   LIG    1        4.152 -12.093   0.000  0.00  0.00    +0.000 C 
ENDROOT
TORSDOF 0
REMARK  Name = molecules/JWQZOTGHUDZFMU-WIDFLDSMSA-N.pdb
REMARK                            x       y       z     vdW  Elec       q    Type
REMARK                         _______ _______ _______ _____ _____    ______ ____
ROOT
ATOM      1  C   LIG    1        4.902 -13.392   0.000  0.00  0.00    +0.000 C 
ENDROOT
TORSDOF 0
REMARK  Name = molecules/JWQZOTGHUDZFMU-WIDFLDSMSA-N.pdb
REMARK                            x       y       z     vdW  Elec       q    Type
REMARK                         _______ _______ _______ _____ _____    ______ ____
ROOT
ATOM      1  N   LIG    1        5.652 -14.691   0.000  0.00  0.00    -0.163 NA
ATOM      2  H   LIG    1        5.185 -15.806   0.000  0.00  0.00    +0.163 HD
ENDROOT
TORSDOF 0
REMARK  Name = molecules/JWQZOTGHUDZFMU-WIDFLDSMSA-N.pdb
REMARK                            x       y       z     vdW  Elec       q    Type
REMARK                         _______ _______ _______ _____ _____    ______ ____
ROOT
ATOM      1  C   LIG    1        2.652  -9.495   0.000  0.00  0.00    +0.000 C 
ENDROOT
TORSDOF 0
REMARK  Name = molecules/JWQZOTGHUDZFMU-WIDFLDSMSA-N.pdb
REMARK                            x       y       z     vdW  Elec       q    Type
REMARK                         _______ _______ _______ _____ _____    ______ ____
ROOT
ATOM      1  C   LIG    1        1.902  -5.598   0.000  0.00  0.00    +0.232 C 
ENDROOT
BRANCH   1   2
ATOM      2  O   LIG    1        2.445  -6.016   0.000  0.00  0.00    -0.193 OA
BRANCH   2   3
ATOM      3  O   LIG    1        2.136  -6.715   0.000  0.00  0.00    -0.033 OA
ATOM      4  O   LIG    1        1.834  -6.140   0.000  0.00  0.00    -0.002 OA
ENDBRANCH   2   3
ENDBRANCH   1   2
BRANCH   1   5
ATOM      5  C   LIG    1        3.000  -5.196   0.000  0.00  0.00    +0.166 C 
BRANCH   5   6
ATOM      6  O   LIG    1        3.317  -5.886   0.000  0.00  0.00    -0.380 OA
ATOM      7  H   LIG    1        4.104  -6.046   0.000  0.00  0.00    +0.211 HD
ENDBRANCH   5   6
ENDBRANCH   1   5
TORSDOF 4
REMARK  Name = molecules/JWQZOTGHUDZFMU-WIDFLDSMSA-N.pdb
REMARK                            x       y       z     vdW  Elec       q    Type
REMARK                         _______ _______ _______ _____ _____    ______ ____
ROOT
ATOM      1  C   LIG    1        0.951  -6.147   0.000  0.00  0.00    +0.000 C 
ENDROOT
TORSDOF 0
REMARK  Name = molecules/JWQZOTGHUDZFMU-WIDFLDSMSA-N.pdb
REMARK                            x       y       z     vdW  Elec       q    Type
REMARK                         _______ _______ _______ _____ _____    ______ ____
ROOT
ATOM      1  C   LIG    1       -4.245  -9.147   0.000  0.00  0.00    +0.000 C 
ENDROOT
TORSDOF 0
REMARK  Name = molecules/JWQZOTGHUDZFMU-WIDFLDSMSA-N.pdb
REMARK                            x       y       z     vdW  Elec       q    Type
REMARK                         _______ _______ _______ _____ _____    ______ ____
ROOT
ATOM      1  C   LIG    1       -1.647  -7.647   0.000  0.00  0.00    +0.000 C 
ENDROOT
TORSDOF 0
REMARK  Name = molecules/JWQZOTGHUDZFMU-WIDFLDSMSA-N.pdb
REMARK                            x       y       z     vdW  Elec       q    Type
REMARK                         _______ _______ _______ _____ _____    ______ ____
ROOT
ATOM      1  C   LIG    1       -0.348  -6.897   0.000  0.00  0.00    +0.000 C 
ENDROOT
TORSDOF 0
REMARK  Name = molecules/JWQZOTGHUDZFMU-WIDFLDSMSA-N.pdb
REMARK                            x       y       z     vdW  Elec       q    Type
REMARK                         _______ _______ _______ _____ _____    ______ ____
ROOT
ATOM      1  C   LIG    1       -2.196  -9.696   0.000  0.00  0.00    +0.000 C 
ATOM      2  C   LIG    1       -1.245 -10.245   0.000  0.00  0.00    +0.000 C 
ENDROOT
TORSDOF 0
REMARK  Name = molecules/JWQZOTGHUDZFMU-WIDFLDSMSA-N.pdb
REMARK                            x       y       z     vdW  Elec       q    Type
REMARK                         _______ _______ _______ _____ _____    ______ ____
ROOT
ATOM      1  C   LIG    1        3.951  -7.245   0.000  0.00  0.00    -0.000 C 
ENDROOT
TORSDOF 0
REMARK  Name = molecules/JWQZOTGHUDZFMU-WIDFLDSMSA-N.pdb
REMARK                            x       y       z     vdW  Elec       q    Type
REMARK                         _______ _______ _______ _____ _____    ______ ____
ROOT
ATOM      1  C   LIG    1        6.549  -5.745   0.000  0.00  0.00    +0.136 C 
ATOM      2  C   LIG    1        7.848  -4.995   0.000  0.00  0.00    +0.357 C 
ATOM      3  O   LIG    1        7.848  -3.495   0.000  0.00  0.00    -0.246 OA
ATOM      4  O   LIG    1        9.147  -5.745   0.000  0.00  0.00    -0.246 OA
ENDROOT
TORSDOF 0
REMARK  Name = molecules/JWQZOTGHUDZFMU-WIDFLDSMSA-N.pdb
REMARK                            x       y       z     vdW  Elec       q    Type
REMARK                         _______ _______ _______ _____ _____    ______ ____
ROOT
ATOM      1  C   LIG    1        5.250  -6.495   0.000  0.00  0.00    +0.000 C 
ENDROOT
TORSDOF 0
REMARK  Name = molecules/JWQZOTGHUDZFMU-WIDFLDSMSA-N.pdb
REMARK                            x       y       z     vdW  Elec       q    Type
REMARK                         _______ _______ _______ _____ _____    ______ ____
ROOT
ATOM      1  C   LIG    1        1.902  -8.196   0.000  0.00  0.00    -0.026 C 
ATOM      2  C   LIG    1        2.652  -7.995   0.000  0.00  0.00    +0.031 C 
ATOM      3  C   LIG    1        1.353  -8.745   0.000  0.00  0.00    -0.005 C 
ENDROOT
TORSDOF 0
REMARK  Name = molecules/JWQZOTGHUDZFMU-WIDFLDSMSA-N.pdb
REMARK                            x       y       z     vdW  Elec       q    Type
REMARK                         _______ _______ _______ _____ _____    ______ ____
ROOT
ATOM      1  C   LIG    1        3.402 -10.794   0.000  0.00  0.00    +0.217 C 
ATOM      2  O   LIG    1        4.152 -12.093   0.000  0.00  0.00    -0.217 OA
ENDROOT
TORSDOF 0
REMARK  Name = molecules/JWQZOTGHUDZFMU-WIDFLDSMSA-N.pdb
REMARK                            x       y       z     vdW  Elec       q    Type
REMARK                         _______ _______ _______ _____ _____    ______ ____
ROOT
ATOM      1  C   LIG    1        2.652  -9.495   0.000  0.00  0.00    +0.000 C 
ENDROOT
TORSDOF 0
REMARK  Name = molecules/JWQZOTGHUDZFMU-WIDFLDSMSA-N.pdb
REMARK                            x       y       z     vdW  Elec       q    Type
REMARK                         _______ _______ _______ _____ _____    ______ ____
ROOT
ATOM      1  O   LIG    1        0.413  -8.379   0.000  0.00  0.00    -0.218 OA
ATOM      2  O   LIG    1        0.786  -7.837   0.000  0.00  0.00    -0.038 OA
ATOM      3  H   LIG    1       -0.375  -8.442   0.000  0.00  0.00    +0.256 HD
ENDROOT
TORSDOF 0
REMARK  Name = molecules/JWQZOTGHUDZFMU-WIDFLDSMSA-N.pdb
REMARK                            x       y       z     vdW  Elec       q    Type
REMARK                         _______ _______ _______ _____ _____    ______ ____
ROOT
ATOM      1  C   LIG    1        0.603  -6.348   0.000  0.00  0.00    +0.000 C 
ENDROOT
TORSDOF 0
REMARK  Name = molecules/JWQZOTGHUDZFMU-WIDFLDSMSA-N.pdb
REMARK                            x       y       z     vdW  Elec       q    Type
REMARK                         _______ _______ _______ _____ _____    ______ ____
ROOT
ATOM      1  C   LIG    1       -1.245  -7.647   0.000  0.00  0.00    +0.008 C 
ATOM      2  C   LIG    1       -1.245  -8.745   0.000  0.00  0.00    -0.008 C 
ENDROOT
TORSDOF 0
REMARK  Name = molecules/JWQZOTGHUDZFMU-WIDFLDSMSA-N.pdb
REMARK                            x       y       z     vdW  Elec       q    Type
REMARK                         _______ _______ _______ _____ _____    ______ ____
ROOT
ATOM      1  C   LIG    1       -2.745  -5.049   0.000  0.00  0.00    +0.000 C 
ATOM      2  C   LIG    1       -2.946  -3.897   0.000  0.00  0.00    +0.000 C 
ENDROOT
TORSDOF 0
REMARK  Name = molecules/JWQZOTGHUDZFMU-WIDFLDSMSA-N.pdb
REMARK                            x       y       z     vdW  Elec       q    Type
REMARK                         _______ _______ _______ _____ _____    ______ ____
ROOT
ATOM      1  C   LIG    1       -3.495  -3.750   0.000  0.00  0.00    -0.106 C 
ATOM      2  N   LIG    1       -4.245  -3.147   0.000  0.00  0.00    +0.380 N 
ATOM      3  C   LIG    1       -4.245  -2.451   0.000  0.00  0.00    -0.103 C 
ATOM      4  H   LIG    1       -5.626  -3.037   0.000  0.00  0.00    -0.085 HD
ATOM      5  H   LIG    1       -4.876  -4.336   0.000  0.00  0.00    -0.085 HD
ENDROOT
TORSDOF 0
REMARK  Name = molecules/JWQZOTGHUDZFMU-WIDFLDSMSA-N.pdb
REMARK                            x       y       z     vdW  Elec       q    Type
REMARK                         _______ _______ _______ _____ _____    ______ ____
ROOT
ATOM      1  C   LIG    1       -4.245   0.147   0.000  0.00  0.00    +0.489 C 
ATOM      2  N   LIG    1       -4.995   1.446   0.000  0.00  0.00    +0.131 NA
ENDROOT
BRANCH   1   3
ATOM      3  N   LIG    1       -4.995  -1.152   0.000  0.00  0.00    -0.121 NA
ATOM      4  H   LIG    1       -4.608  -1.692   0.000  0.00  0.00    +0.307 HD
ENDBRANCH   1   3
BRANCH   1   5
ATOM      5  N   LIG    1       -2.745   0.147   0.000  0.00  0.00    -0.121 NA
ATOM      6  H   LIG    1       -2.239   1.482   0.000  0.00  0.00    +0.307 HD
ENDBRANCH   1   5
TORSDOF 2
REMARK  Name = molecules/JWQZOTGHUDZFMU-WIDFLDSMSA-N.pdb
REMARK                            x       y       z     vdW  Elec       q    Type
REMARK                         _______ _______ _______ _____ _____    ______ ____
ROOT
ATOM      1  C   LIG    1       -1.995  -6.348   0.000  0.00  0.00    -0.000 C 
ENDROOT
TORSDOF 0
REMARK  Name = molecules/JWQZOTGHUDZFMU-WIDFLDSMSA-N.pdb
REMARK                            x       y       z     vdW  Elec       q    Type
REMARK                         _______ _______ _______ _____ _____    ______ ____
ROOT
ATOM      1  O   HOH    1        0.244  -7.830   0.000  0.00  0.00    +0.000 OA
ENDROOT
TORSDOF 0
REMARK  Name = molecules/JWQZOTGHUDZFMU-WIDFLDSMSA-N.pdb
REMARK                            x       y       z     vdW  Elec       q    Type
REMARK                         _______ _______ _______ _____ _____    ______ ____
ROOT
ATOM      1  C   LIG    1       -2.544 -10.995   0.000  0.00  0.00    +0.000 C 
ENDROOT
TORSDOF 0
REMARK  Name = molecules/JWQZOTGHUDZFMU-WIDFLDSMSA-N.pdb
REMARK                            x       y       z     vdW  Elec       q    Type
REMARK                         _______ _______ _______ _____ _____    ______ ____
ROOT
ATOM      1  C   LIG    1        0.054  -9.495   0.000  0.00  0.00    +0.000 C 
ENDROOT
TORSDOF 0
REMARK  Name = molecules/JWQZOTGHUDZFMU-WIDFLDSMSA-N.pdb
REMARK                            x       y       z     vdW  Elec       q    Type
REMARK                         _______ _______ _______ _____ _____    ______ ____
ROOT
ATOM      1  O   HOH    1       -2.361 -12.484   0.000  0.00  0.00    -0.410 OA
ATOM      2  H   HOH    0       -2.200 -13.180   0.000  0.00  0.00    +0.205 HD
ATOM      3  H   HOH    0       -1.995 -11.946   0.000  0.00  0.00    +0.205 HD
ENDROOT
TORSDOF 0
REMARK  Name = molecules/JWQZOTGHUDZFMU-WIDFLDSMSA-N.pdb
REMARK                            x       y       z     vdW  Elec       q    Type
REMARK                         _______ _______ _______ _____ _____    ______ ____
ROOT
ATOM      1  C   LIG    1       -4.392 -12.294   0.000  0.00  0.00    +0.000 C 
ENDROOT
TORSDOF 0
REMARK  Name = molecules/JWQZOTGHUDZFMU-WIDFLDSMSA-N.pdb
REMARK                            x       y       z     vdW  Elec       q    Type
REMARK                         _______ _______ _______ _____ _____    ______ ____
ROOT
ATOM      1  O   HOH    1       -3.306 -16.334   0.000  0.00  0.00    -0.410 OA
ATOM      2  H   HOH    0       -4.191 -16.044   0.000  0.00  0.00    +0.205 HD
ATOM      3  H   HOH    0       -3.308 -15.649   0.000  0.00  0.00    +0.205 HD
ENDROOT
TORSDOF 0
REMARK  Name = molecules/JWQZOTGHUDZFMU-WIDFLDSMSA-N.pdb
REMARK                            x       y       z     vdW  Elec       q    Type
REMARK                         _______ _______ _______ _____ _____    ______ ____
ROOT
ATOM      1  C   LIG    1       -5.142 -10.995   0.000  0.00  0.00    +0.000 C 
ENDROOT
TORSDOF 0
REMARK  Name = molecules/JWQZOTGHUDZFMU-WIDFLDSMSA-N.pdb
REMARK                            x       y       z     vdW  Elec       q    Type
REMARK                         _______ _______ _______ _____ _____    ______ ____
ROOT
ATOM      1  O   HOH    1       -5.306  -8.315   0.000  0.00  0.00    +0.000 OA
ENDROOT
TORSDOF 0
REMARK  Name = molecules/JWQZOTGHUDZFMU-WIDFLDSMSA-N.pdb
REMARK                            x       y       z     vdW  Elec       q    Type
REMARK                         _______ _______ _______ _____ _____    ______ ____
ROOT
ATOM      1  C   LIG    1       -9.441  -9.147   0.000  0.00  0.00    +0.000 C 
ENDROOT
TORSDOF 0
REMARK  Name = molecules/JWQZOTGHUDZFMU-WIDFLDSMSA-N.pdb
REMARK                            x       y       z     vdW  Elec       q    Type
REMARK                         _______ _______ _______ _____ _____    ______ ____
ROOT
ATOM      1  C   LIG    1       -6.843  -7.647   0.000  0.00  0.00    +0.000 C 
ENDROOT
TORSDOF 0
REMARK  Name = molecules/JWQZOTGHUDZFMU-WIDFLDSMSA-N.pdb
REMARK                            x       y       z     vdW  Elec       q    Type
REMARK                         _______ _______ _______ _____ _____    ______ ____
ROOT
ATOM      1  C   LIG    1       -5.544  -6.897   0.000  0.00  0.00    +0.000 C 
ENDROOT
TORSDOF 0
REMARK  Name = molecules/JWQZOTGHUDZFMU-WIDFLDSMSA-N.pdb
REMARK                            x       y       z     vdW  Elec       q    Type
REMARK                         _______ _______ _______ _____ _____    ______ ____
ROOT
ATOM      1  C   LIG    1       -4.245  -6.147   0.000  0.00  0.00    -0.000 C 
ENDROOT
TORSDOF 0
REMARK  Name = molecules/JWQZOTGHUDZFMU-WIDFLDSMSA-N.pdb
REMARK                            x       y       z     vdW  Elec       q    Type
REMARK                         _______ _______ _______ _____ _____    ______ ____
ROOT
ATOM      1  N   LIG    1       -2.946  -5.397   0.000  0.00  0.00    -0.163 NA
ATOM      2  H   LIG    1       -2.550  -6.449   0.000  0.00  0.00    +0.163 HD
ENDROOT
TORSDOF 0
REMARK  Name = molecules/JWQZOTGHUDZFMU-WIDFLDSMSA-N.pdb
REMARK                            x       y       z     vdW  Elec       q    Type
REMARK                         _______ _______ _______ _____ _____    ______ ____
ROOT
ATOM      1  N   LIG    1       -1.647  -3.147   0.000  0.00  0.00    -0.273 NA
ATOM      2  H   LIG    1       -1.547  -4.146   0.000  0.00  0.00    +0.137 HD
ATOM      3  H   LIG    1       -2.416  -2.708   0.000  0.00  0.00    +0.137 HD
ENDROOT
TORSDOF 0
REMARK  Name = molecules/JWQZOTGHUDZFMU-WIDFLDSMSA-N.pdb
REMARK                            x       y       z     vdW  Elec       q    Type
REMARK                         _______ _______ _______ _____ _____    ______ ____
ROOT
ATOM      1  C   LIG    1       -8.142  -8.397   0.000  0.00  0.00    -0.000 C 
ENDROOT
TORSDOF 0
REMARK  Name = molecules/JWQZOTGHUDZFMU-WIDFLDSMSA-N.pdb
REMARK                            x       y       z     vdW  Elec       q    Type
REMARK                         _______ _______ _______ _____ _____    ______ ____
ROOT
ATOM      1  O   HOH    1      -10.822  -8.561   0.000  0.00  0.00    -0.253 OA
ATOM      2  H   HOH    0       -9.584  -8.810   0.000  0.00  0.00    +0.253 HD
ENDROOT
TORSDOF 0
REMARK  Name = molecules/JWQZOTGHUDZFMU-WIDFLDSMSA-N.pdb
REMARK                            x       y       z     vdW  Elec       q    Type
REMARK                         _______ _______ _______ _____ _____    ______ ____
ROOT
ATOM      1  C   LIG    1       -8.490 -15.294   0.000  0.00  0.00    +0.000 C 
ENDROOT
TORSDOF 0
REMARK  Name = molecules/JWQZOTGHUDZFMU-WIDFLDSMSA-N.pdb
REMARK                            x       y       z     vdW  Elec       q    Type
REMARK                         _______ _______ _______ _____ _____    ______ ____
ROOT
ATOM      1  C   LIG    1       -7.941 -13.245   0.000  0.00  0.00    -0.017 C 
ATOM      2  C   LIG    1       -8.490 -12.696   0.000  0.00  0.00    +0.008 C 
ATOM      3  C   LIG    1       -7.740 -13.995   0.000  0.00  0.00    +0.008 C 
ENDROOT
TORSDOF 0
REMARK  Name = molecules/JWQZOTGHUDZFMU-WIDFLDSMSA-N.pdb
REMARK                            x       y       z     vdW  Elec       q    Type
REMARK                         _______ _______ _______ _____ _____    ______ ____
ROOT
ATOM      1  C   LIG    1       -9.240 -13.995   0.000  0.00  0.00    +0.176 C 
ATOM      2  O   LIG    1       -9.946 -13.059   0.000  0.00  0.00    -0.386 OA
ATOM      3  H   LIG    1      -11.289 -13.446   0.000  0.00  0.00    +0.210 HD
ENDROOT
TORSDOF 0
REMARK  Name = molecules/JWQZOTGHUDZFMU-WIDFLDSMSA-N.pdb
REMARK                            x       y       z     vdW  Elec       q    Type
REMARK                         _______ _______ _______ _____ _____    ______ ____
ROOT
ATOM      1  O   HOH    1      -10.904  -8.717   0.000  0.00  0.00    +0.000 OA
ENDROOT
TORSDOF 0
REMARK  Name = molecules/JWQZOTGHUDZFMU-WIDFLDSMSA-N.pdb
REMARK                            x       y       z     vdW  Elec       q    Type
REMARK                         _______ _______ _______ _____ _____    ______ ____
ROOT
ATOM      1  C   LIG    1       -7.392  -9.696   0.000  0.00  0.00    +0.009 C 
ATOM      2  C   LIG    1       -8.142  -8.397   0.000  0.00  0.00    -0.009 C 
ENDROOT
TORSDOF 0
REMARK  Name = molecules/JWQZOTGHUDZFMU-WIDFLDSMSA-N.pdb
REMARK                            x       y       z     vdW  Elec       q    Type
REMARK                         _______ _______ _______ _____ _____    ______ ____
ROOT
ATOM      1  C   LIG    1       -6.441 -11.745   0.000  0.00  0.00    +0.000 C 
ENDROOT
TORSDOF 0
REMARK  Name = molecules/JWQZOTGHUDZFMU-WIDFLDSMSA-N.pdb
REMARK                            x       y       z     vdW  Elec       q    Type
REMARK                         _______ _______ _______ _____ _____    ______ ____
ROOT
ATOM      1  C   LIG    1       -3.843 -10.245   0.000  0.00  0.00    +0.000 C 
ENDROOT
TORSDOF 0
REMARK  Name = molecules/JWQZOTGHUDZFMU-WIDFLDSMSA-N.pdb
REMARK                            x       y       z     vdW  Elec       q    Type
REMARK                         _______ _______ _______ _____ _____    ______ ____
ROOT
ATOM      1  C   LIG    1       -3.294  -8.196   0.000  0.00  0.00    -0.000 C 
ENDROOT
TORSDOF 0
REMARK  Name = molecules/JWQZOTGHUDZFMU-WIDFLDSMSA-N.pdb
REMARK                            x       y       z     vdW  Elec       q    Type
REMARK                         _______ _______ _______ _____ _____    ______ ____
ROOT
ATOM      1  O   HOH    1       -7.822 -11.159   0.000  0.00  0.00    +0.000 OA
ENDROOT
TORSDOF 0
REMARK  Name = molecules/JWQZOTGHUDZFMU-WIDFLDSMSA-N.pdb
REMARK                            x       y       z     vdW  Elec       q    Type
REMARK                         _______ _______ _______ _____ _____    ______ ____
ROOT
ATOM      1  C   LIG    1       -6.990 -15.294   0.000  0.00  0.00    +0.000 C 
ENDROOT
TORSDOF 0
REMARK  Name = molecules/JWQZOTGHUDZFMU-WIDFLDSMSA-N.pdb
REMARK                            x       y       z     vdW  Elec       q    Type
REMARK                         _______ _______ _______ _____ _____    ______ ____
ROOT
ATOM      1  H   UNK    1        7.252 -33.192   0.000  0.00  0.00    +0.000 HD
ENDROOT
TORSDOF 0
REMARK  Name = molecules/JWQZOTGHUDZFMU-WIDFLDSMSA-N.pdb
REMARK                            x       y       z     vdW  Elec       q    Type
REMARK                         _______ _______ _______ _____ _____    ______ ____
ROOT
ATOM      1  H   UNK    1       -4.102 -19.180   0.000  0.00  0.00    +0.000 HD
ENDROOT
TORSDOF 0
REMARK  Name = molecules/JWQZOTGHUDZFMU-WIDFLDSMSA-N.pdb
REMARK                            x       y       z     vdW  Elec       q    Type
REMARK                         _______ _______ _______ _____ _____    ______ ____
ROOT
ATOM      1  H   UNK    1       -1.359 -13.063   0.000  0.00  0.00    +0.000 HD
ENDROOT
TORSDOF 0
REMARK  Name = molecules/JWQZOTGHUDZFMU-WIDFLDSMSA-N.pdb
REMARK                            x       y       z     vdW  Elec       q    Type
REMARK                         _______ _______ _______ _____ _____    ______ ____
ROOT
ATOM      1  H   UNK    1        1.392 -17.299   0.000  0.00  0.00    +0.000 HD
ENDROOT
TORSDOF 0
REMARK  Name = molecules/JWQZOTGHUDZFMU-WIDFLDSMSA-N.pdb
REMARK                            x       y       z     vdW  Elec       q    Type
REMARK                         _______ _______ _______ _____ _____    ______ ____
ROOT
ATOM      1  H   UNK    1        0.054  -9.495   0.000  0.00  0.00    +0.000 HD
ENDROOT
TORSDOF 0
REMARK  Name = molecules/JWQZOTGHUDZFMU-WIDFLDSMSA-N.pdb
REMARK                            x       y       z     vdW  Elec       q    Type
REMARK                         _______ _______ _______ _____ _____    ______ ____
ROOT
ATOM      1  H   UNK    1       -0.348  -3.897   0.000  0.00  0.00    +0.000 HD
ENDROOT
TORSDOF 0
REMARK  Name = molecules/JWQZOTGHUDZFMU-WIDFLDSMSA-N.pdb
REMARK                            x       y       z     vdW  Elec       q    Type
REMARK                         _______ _______ _______ _____ _____    ______ ____
ROOT
ATOM      1  H   UNK    1        5.250  -3.897   0.000  0.00  0.00    +0.000 HD
ENDROOT
TORSDOF 0
REMARK  Name = molecules/JWQZOTGHUDZFMU-WIDFLDSMSA-N.pdb
REMARK                            x       y       z     vdW  Elec       q    Type
REMARK                         _______ _______ _______ _____ _____    ______ ____
ROOT
ATOM      1  H   UNK    1        5.393  -9.159   0.000  0.00  0.00    +0.000 HD
ENDROOT
TORSDOF 0
REMARK  Name = molecules/JWQZOTGHUDZFMU-WIDFLDSMSA-N.pdb
REMARK                            x       y       z     vdW  Elec       q    Type
REMARK                         _______ _______ _______ _____ _____    ______ ____
ROOT
ATOM      1  H   UNK    1       -0.696  -4.098   0.000  0.00  0.00    +0.000 HD
ENDROOT
TORSDOF 0
REMARK  Name = molecules/JWQZOTGHUDZFMU-WIDFLDSMSA-N.pdb
REMARK                            x       y       z     vdW  Elec       q    Type
REMARK                         _______ _______ _______ _____ _____    ______ ____
ROOT
ATOM      1  H   UNK    1      -13.404 -11.540   0.000  0.00  0.00    +0.000 HD
ENDROOT
TORSDOF 0
REMARK  Name = molecules/JWQZOTGHUDZFMU-WIDFLDSMSA-N.pdb
REMARK                            x       y       z     vdW  Elec       q    Type
REMARK                         _______ _______ _______ _____ _____    ______ ____
ROOT
ATOM      1  H   UNK    1      -13.822  -5.963   0.000  0.00  0.00    +0.000 HD
ENDROOT
TORSDOF 0
REMARK  Name = molecules/JWQZOTGHUDZFMU-WIDFLDSMSA-N.pdb
REMARK                            x       y       z     vdW  Elec       q    Type
REMARK                         _______ _______ _______ _____ _____    ______ ____
ROOT
ATOM      1  H   UNK    1       -8.306  -5.717   0.000  0.00  0.00    +0.000 HD
ENDROOT
TORSDOF 0
REMARK  Name = molecules/JWQZOTGHUDZFMU-WIDFLDSMSA-N.pdb
REMARK                            x       y       z     vdW  Elec       q    Type
REMARK                         _______ _______ _______ _____ _____    ______ ____
ROOT
ATOM      1  H   UNK    1       -5.142 -13.995   0.000  0.00  0.00    +0.000 HD
ENDROOT
TORSDOF 0
REMARK  Name = molecules/JWQZOTGHUDZFMU-WIDFLDSMSA-N.pdb
REMARK                            x       y       z     vdW  Elec       q    Type
REMARK                         _______ _______ _______ _____ _____    ______ ____
ROOT
ATOM      1  H   UNK    1       12.576 -29.158   0.000  0.00  0.00    +0.000 HD
ENDROOT
TORSDOF 0
REMARK  Name = molecules/JWQZOTGHUDZFMU-WIDFLDSMSA-N.pdb
REMARK                            x       y       z     vdW  Elec       q    Type
REMARK                         _______ _______ _______ _____ _____    ______ ____
ROOT
ATOM      1  H   UNK    1        1.005 -33.240   0.000  0.00  0.00    +0.000 HD
ENDROOT
TORSDOF 0
REMARK  Name = molecules/JWQZOTGHUDZFMU-WIDFLDSMSA-N.pdb
REMARK                            x       y       z     vdW  Elec       q    Type
REMARK                         _______ _______ _______ _____ _____    ______ ____
ROOT
ATOM      1  H   UNK    1        6.255 -24.441   0.000  0.00  0.00    +0.000 HD
ENDROOT
TORSDOF 0
REMARK  Name = molecules/JWQZOTGHUDZFMU-WIDFLDSMSA-N.pdb
REMARK                            x       y       z     vdW  Elec       q    Type
REMARK                         _______ _______ _______ _____ _____    ______ ____
ROOT
ATOM      1  H   UNK    1       -0.707 -21.111   0.000  0.00  0.00    +0.000 HD
ENDROOT
TORSDOF 0
REMARK  Name = molecules/JWQZOTGHUDZFMU-WIDFLDSMSA-N.pdb
REMARK                            x       y       z     vdW  Elec       q    Type
REMARK                         _______ _______ _______ _____ _____    ______ ____
ROOT
ATOM      1  H   UNK    1       -0.744 -22.145   0.000  0.00  0.00    +0.000 HD
ENDROOT
TORSDOF 0
REMARK  Name = molecules/JWQZOTGHUDZFMU-WIDFLDSMSA-N.pdb
REMARK                            x       y       z     vdW  Elec       q    Type
REMARK                         _______ _______ _______ _____ _____    ______ ____
ROOT
ATOM      1  H   UNK    1       -8.224 -18.257   0.000  0.00  0.00    +0.000 HD
ENDROOT
TORSDOF 0
REMARK  Name = molecules/JWQZOTGHUDZFMU-WIDFLDSMSA-N.pdb
REMARK                            x       y       z     vdW  Elec       q    Type
REMARK                         _______ _______ _______ _____ _____    ______ ____
ROOT
ATOM      1  H   UNK    1        0.054 -18.495   0.000  0.00  0.00    +0.000 HD
ENDROOT
TORSDOF 0
REMARK  Name = molecules/JWQZOTGHUDZFMU-WIDFLDSMSA-N.pdb
REMARK                            x       y       z     vdW  Elec       q    Type
REMARK                         _______ _______ _______ _____ _____    ______ ____
ROOT
ATOM      1  H   UNK    1        0.114 -17.111   0.000  0.00  0.00    +0.000 HD
ENDROOT
TORSDOF 0
REMARK  Name = molecules/JWQZOTGHUDZFMU-WIDFLDSMSA-N.pdb
REMARK                            x       y       z     vdW  Elec       q    Type
REMARK                         _______ _______ _______ _____ _____    ______ ____
ROOT
ATOM      1  H   UNK    1       -1.831 -19.126   0.000  0.00  0.00    +0.000 HD
ENDROOT
TORSDOF 0
REMARK  Name = molecules/JWQZOTGHUDZFMU-WIDFLDSMSA-N.pdb
REMARK                            x       y       z     vdW  Elec       q    Type
REMARK                         _______ _______ _______ _____ _____    ______ ____
ROOT
ATOM      1  H   UNK    1       -2.645 -12.342   0.000  0.00  0.00    +0.000 HD
ENDROOT
TORSDOF 0
REMARK  Name = molecules/JWQZOTGHUDZFMU-WIDFLDSMSA-N.pdb
REMARK                            x       y       z     vdW  Elec       q    Type
REMARK                         _______ _______ _______ _____ _____    ______ ____
ROOT
ATOM      1  H   UNK    1       -1.100 -17.672   0.000  0.00  0.00    +0.000 HD
ENDROOT
TORSDOF 0
REMARK  Name = molecules/JWQZOTGHUDZFMU-WIDFLDSMSA-N.pdb
REMARK                            x       y       z     vdW  Elec       q    Type
REMARK                         _______ _______ _______ _____ _____    ______ ____
ROOT
ATOM      1  H   UNK    1       -3.028 -18.785   0.000  0.00  0.00    +0.000 HD
ENDROOT
TORSDOF 0
REMARK  Name = molecules/JWQZOTGHUDZFMU-WIDFLDSMSA-N.pdb
REMARK                            x       y       z     vdW  Elec       q    Type
REMARK                         _______ _______ _______ _____ _____    ______ ____
ROOT
ATOM      1  H   UNK    1        2.725 -17.434   0.000  0.00  0.00    +0.000 HD
ENDROOT
TORSDOF 0
REMARK  Name = molecules/JWQZOTGHUDZFMU-WIDFLDSMSA-N.pdb
REMARK                            x       y       z     vdW  Elec       q    Type
REMARK                         _______ _______ _______ _____ _____    ______ ____
ROOT
ATOM      1  H   UNK    1        7.152 -16.191   0.000  0.00  0.00    +0.000 HD
ENDROOT
TORSDOF 0
REMARK  Name = molecules/JWQZOTGHUDZFMU-WIDFLDSMSA-N.pdb
REMARK                            x       y       z     vdW  Elec       q    Type
REMARK                         _______ _______ _______ _____ _____    ______ ____
ROOT
ATOM      1  H   UNK    1        4.950 -15.743   0.000  0.00  0.00    +0.000 HD
ENDROOT
TORSDOF 0
REMARK  Name = molecules/JWQZOTGHUDZFMU-WIDFLDSMSA-N.pdb
REMARK                            x       y       z     vdW  Elec       q    Type
REMARK                         _______ _______ _______ _____ _____    ______ ____
ROOT
ATOM      1  H   UNK    1        3.255 -18.441   0.000  0.00  0.00    +0.000 HD
ENDROOT
TORSDOF 0
REMARK  Name = molecules/JWQZOTGHUDZFMU-WIDFLDSMSA-N.pdb
REMARK                            x       y       z     vdW  Elec       q    Type
REMARK                         _______ _______ _______ _____ _____    ______ ____
ROOT
ATOM      1  H   UNK    1       -0.988 -11.416   0.000  0.00  0.00    +0.000 HD
ENDROOT
TORSDOF 0
REMARK  Name = molecules/JWQZOTGHUDZFMU-WIDFLDSMSA-N.pdb
REMARK                            x       y       z     vdW  Elec       q    Type
REMARK                         _______ _______ _______ _____ _____    ______ ____
ROOT
ATOM      1  H   UNK    1        4.701 -10.044   0.000  0.00  0.00    +0.000 HD
ENDROOT
TORSDOF 0
REMARK  Name = molecules/JWQZOTGHUDZFMU-WIDFLDSMSA-N.pdb
REMARK                            x       y       z     vdW  Elec       q    Type
REMARK                         _______ _______ _______ _____ _____    ______ ____
ROOT
ATOM      1  H   UNK    1        6.201 -12.642   0.000  0.00  0.00    +0.000 HD
ENDROOT
TORSDOF 0
REMARK  Name = molecules/JWQZOTGHUDZFMU-WIDFLDSMSA-N.pdb
REMARK                            x       y       z     vdW  Elec       q    Type
REMARK                         _______ _______ _______ _____ _____    ______ ____
ROOT
ATOM      1  H   UNK    1        7.152 -14.691   0.000  0.00  0.00    +0.000 HD
ENDROOT
TORSDOF 0
REMARK  Name = molecules/JWQZOTGHUDZFMU-WIDFLDSMSA-N.pdb
REMARK                            x       y       z     vdW  Elec       q    Type
REMARK                         _______ _______ _______ _____ _____    ______ ____
ROOT
ATOM      1  H   UNK    1        2.652 -17.289   0.000  0.00  0.00    +0.000 HD
ENDROOT
TORSDOF 0
REMARK  Name = molecules/JWQZOTGHUDZFMU-WIDFLDSMSA-N.pdb
REMARK                            x       y       z     vdW  Elec       q    Type
REMARK                         _______ _______ _______ _____ _____    ______ ____
ROOT
ATOM      1  H   UNK    1       -5.687  -9.560   0.000  0.00  0.00    +0.000 HD
ENDROOT
TORSDOF 0
REMARK  Name = molecules/JWQZOTGHUDZFMU-WIDFLDSMSA-N.pdb
REMARK                            x       y       z     vdW  Elec       q    Type
REMARK                         _______ _______ _______ _____ _____    ______ ____
ROOT
ATOM      1  H   UNK    1       -3.495 -10.446   0.000  0.00  0.00    +0.000 HD
ENDROOT
TORSDOF 0
REMARK  Name = molecules/JWQZOTGHUDZFMU-WIDFLDSMSA-N.pdb
REMARK                            x       y       z     vdW  Elec       q    Type
REMARK                         _______ _______ _______ _____ _____    ______ ____
ROOT
ATOM      1  H   UNK    1       -3.532  -7.016   0.000  0.00  0.00    +0.000 HD
ENDROOT
TORSDOF 0
REMARK  Name = molecules/JWQZOTGHUDZFMU-WIDFLDSMSA-N.pdb
REMARK                            x       y       z     vdW  Elec       q    Type
REMARK                         _______ _______ _______ _____ _____    ______ ____
ROOT
ATOM      1  H   UNK    1        2.250   3.897   0.000  0.00  0.00    +0.000 HD
ENDROOT
TORSDOF 0
REMARK  Name = molecules/JWQZOTGHUDZFMU-WIDFLDSMSA-N.pdb
REMARK                            x       y       z     vdW  Elec       q    Type
REMARK                         _______ _______ _______ _____ _____    ______ ____
ROOT
ATOM      1  H   UNK    1        2.250   1.299   0.000  0.00  0.00    +0.000 HD
ENDROOT
TORSDOF 0
REMARK  Name = molecules/JWQZOTGHUDZFMU-WIDFLDSMSA-N.pdb
REMARK                            x       y       z     vdW  Elec       q    Type
REMARK                         _______ _______ _______ _____ _____    ______ ____
ROOT
ATOM      1  H   UNK    1        0.000   5.196   0.000  0.00  0.00    +0.000 HD
ENDROOT
TORSDOF 0
REMARK  Name = molecules/JWQZOTGHUDZFMU-WIDFLDSMSA-N.pdb
REMARK                            x       y       z     vdW  Elec       q    Type
REMARK                         _______ _______ _______ _____ _____    ______ ____
ROOT
ATOM      1  H   UNK    1        3.549  -3.147   0.000  0.00  0.00    +0.000 HD
ENDROOT
TORSDOF 0
REMARK  Name = molecules/JWQZOTGHUDZFMU-WIDFLDSMSA-N.pdb
REMARK                            x       y       z     vdW  Elec       q    Type
REMARK                         _______ _______ _______ _____ _____    ______ ____
ROOT
ATOM      1  H   UNK    1        9.147  -2.745   0.000  0.00  0.00    +0.000 HD
ENDROOT
TORSDOF 0
REMARK  Name = molecules/JWQZOTGHUDZFMU-WIDFLDSMSA-N.pdb
REMARK                            x       y       z     vdW  Elec       q    Type
REMARK                         _______ _______ _______ _____ _____    ______ ____
ROOT
ATOM      1  H   UNK    1        6.000  -7.794   0.000  0.00  0.00    +0.000 HD
ENDROOT
TORSDOF 0
REMARK  Name = molecules/JWQZOTGHUDZFMU-WIDFLDSMSA-N.pdb
REMARK                            x       y       z     vdW  Elec       q    Type
REMARK                         _______ _______ _______ _____ _____    ______ ____
ROOT
ATOM      1  H   UNK    1        4.844 -10.381   0.000  0.00  0.00    +0.000 HD
ENDROOT
TORSDOF 0
REMARK  Name = molecules/JWQZOTGHUDZFMU-WIDFLDSMSA-N.pdb
REMARK                            x       y       z     vdW  Elec       q    Type
REMARK                         _______ _______ _______ _____ _____    ______ ____
ROOT
ATOM      1  H   UNK    1        0.860  -4.519   0.000  0.00  0.00    +0.000 HD
ENDROOT
TORSDOF 0
REMARK  Name = molecules/JWQZOTGHUDZFMU-WIDFLDSMSA-N.pdb
REMARK                            x       y       z     vdW  Elec       q    Type
REMARK                         _______ _______ _______ _____ _____    ______ ____
ROOT
ATOM      1  H   UNK    1       -6.495  -1.152   0.000  0.00  0.00    +0.000 HD
ENDROOT
TORSDOF 0
REMARK  Name = molecules/JWQZOTGHUDZFMU-WIDFLDSMSA-N.pdb
REMARK                            x       y       z     vdW  Elec       q    Type
REMARK                         _______ _______ _______ _____ _____    ______ ____
ROOT
ATOM      1  H   UNK    1       -1.995  -1.152   0.000  0.00  0.00    +0.000 HD
ENDROOT
TORSDOF 0
REMARK  Name = molecules/JWQZOTGHUDZFMU-WIDFLDSMSA-N.pdb
REMARK                            x       y       z     vdW  Elec       q    Type
REMARK                         _______ _______ _______ _____ _____    ______ ____
ROOT
ATOM      1  H   UNK    1       -4.245   2.745   0.000  0.00  0.00    +0.000 HD
ENDROOT
TORSDOF 0
REMARK  Name = molecules/JWQZOTGHUDZFMU-WIDFLDSMSA-N.pdb
REMARK                            x       y       z     vdW  Elec       q    Type
REMARK                         _______ _______ _______ _____ _____    ______ ____
ROOT
ATOM      1  H   UNK    1       -3.376  -6.934   0.000  0.00  0.00    +0.000 HD
ENDROOT
TORSDOF 0
REMARK  Name = molecules/JWQZOTGHUDZFMU-WIDFLDSMSA-N.pdb
REMARK                            x       y       z     vdW  Elec       q    Type
REMARK                         _______ _______ _______ _____ _____    ______ ____
ROOT
ATOM      1  H   UNK    1        3.850  -7.092   0.000  0.00  0.00    +0.000 HD
ENDROOT
TORSDOF 0
REMARK  Name = molecules/JWQZOTGHUDZFMU-WIDFLDSMSA-N.pdb
REMARK                            x       y       z     vdW  Elec       q    Type
REMARK                         _______ _______ _______ _____ _____    ______ ____
ROOT
ATOM      1  H   UNK    1        0.366  -8.028   0.000  0.00  0.00    +0.000 HD
ENDROOT
TORSDOF 0
REMARK  Name = molecules/JWQZOTGHUDZFMU-WIDFLDSMSA-N.pdb
REMARK                            x       y       z     vdW  Elec       q    Type
REMARK                         _______ _______ _______ _____ _____    ______ ____
ROOT
ATOM      1  H   UNK    1       -0.642 -16.191   0.000  0.00  0.00    +0.000 HD
ENDROOT
TORSDOF 0
REMARK  Name = molecules/JWQZOTGHUDZFMU-WIDFLDSMSA-N.pdb
REMARK                            x       y       z     vdW  Elec       q    Type
REMARK                         _______ _______ _______ _____ _____    ______ ____
ROOT
ATOM      1  H   UNK    1       -7.429  -6.266   0.000  0.00  0.00    +0.000 HD
ENDROOT
TORSDOF 0
REMARK  Name = molecules/JWQZOTGHUDZFMU-WIDFLDSMSA-N.pdb
REMARK                            x       y       z     vdW  Elec       q    Type
REMARK                         _______ _______ _______ _____ _____    ______ ____
ROOT
ATOM      1  H   UNK    1       -6.294  -5.598   0.000  0.00  0.00    +0.000 HD
ENDROOT
TORSDOF 0
REMARK  Name = molecules/JWQZOTGHUDZFMU-WIDFLDSMSA-N.pdb
REMARK                            x       y       z     vdW  Elec       q    Type
REMARK                         _______ _______ _______ _____ _____    ______ ____
ROOT
ATOM      1  H   UNK    1       -5.148  -4.949   0.000  0.00  0.00    +0.000 HD
ENDROOT
TORSDOF 0
REMARK  Name = molecules/JWQZOTGHUDZFMU-WIDFLDSMSA-N.pdb
REMARK                            x       y       z     vdW  Elec       q    Type
REMARK                         _______ _______ _______ _____ _____    ______ ____
ROOT
ATOM      1  H   UNK    1       -5.443  -4.050   0.000  0.00  0.00    +0.000 HD
ENDROOT
TORSDOF 0
REMARK  Name = molecules/JWQZOTGHUDZFMU-WIDFLDSMSA-N.pdb
REMARK                            x       y       z     vdW  Elec       q    Type
REMARK                         _______ _______ _______ _____ _____    ______ ____
ROOT
ATOM      1  H   UNK    1       -1.464  -1.658   0.000  0.00  0.00    +0.000 HD
ENDROOT
TORSDOF 0
REMARK  Name = molecules/JWQZOTGHUDZFMU-WIDFLDSMSA-N.pdb
REMARK                            x       y       z     vdW  Elec       q    Type
REMARK                         _______ _______ _______ _____ _____    ______ ____
ROOT
ATOM      1  H   UNK    1       -8.077 -16.736   0.000  0.00  0.00    +0.000 HD
ENDROOT
TORSDOF 0
REMARK  Name = molecules/JWQZOTGHUDZFMU-WIDFLDSMSA-N.pdb
REMARK                            x       y       z     vdW  Elec       q    Type
REMARK                         _______ _______ _______ _____ _____    ______ ____
ROOT
ATOM      1  H   UNK    1       -6.442 -13.193   0.000  0.00  0.00    +0.000 HD
ENDROOT
TORSDOF 0
REMARK  Name = molecules/JWQZOTGHUDZFMU-WIDFLDSMSA-N.pdb
REMARK                            x       y       z     vdW  Elec       q    Type
REMARK                         _______ _______ _______ _____ _____    ______ ____
ROOT
ATOM      1  H   UNK    1      -10.539 -14.745   0.000  0.00  0.00    +0.000 HD
ENDROOT
TORSDOF 0
REMARK  Name = molecules/JWQZOTGHUDZFMU-WIDFLDSMSA-N.pdb
REMARK                            x       y       z     vdW  Elec       q    Type
REMARK                         _______ _______ _______ _____ _____    ______ ____
ROOT
ATOM      1  H   UNK    1      -16.786 -12.501   0.000  0.00  0.00    +0.000 HD
ENDROOT
TORSDOF 0
REMARK  Name = molecules/JWQZOTGHUDZFMU-WIDFLDSMSA-N.pdb
REMARK                            x       y       z     vdW  Elec       q    Type
REMARK                         _______ _______ _______ _____ _____    ______ ____
ROOT
ATOM      1  H   UNK    1      -14.146 -11.185   0.000  0.00  0.00    +0.000 HD
ENDROOT
TORSDOF 0
REMARK  Name = molecules/JWQZOTGHUDZFMU-WIDFLDSMSA-N.pdb
REMARK                            x       y       z     vdW  Elec       q    Type
REMARK                         _______ _______ _______ _____ _____    ______ ____
ROOT
ATOM      1  H   UNK    1      -13.392   0.696   0.000  0.00  0.00    +0.000 HD
ENDROOT
TORSDOF 0
REMARK  Name = molecules/JWQZOTGHUDZFMU-WIDFLDSMSA-N.pdb
REMARK                            x       y       z     vdW  Elec       q    Type
REMARK                         _______ _______ _______ _____ _____    ______ ____
ROOT
ATOM      1  H   UNK    1      -11.142  -0.603   0.000  0.00  0.00    +0.000 HD
ENDROOT
TORSDOF 0
REMARK  Name = molecules/JWQZOTGHUDZFMU-WIDFLDSMSA-N.pdb
REMARK                            x       y       z     vdW  Elec       q    Type
REMARK                         _______ _______ _______ _____ _____    ______ ____
ROOT
ATOM      1  H   UNK    1        0.136  -8.159   0.000  0.00  0.00    +0.000 HD
ENDROOT
TORSDOF 0
REMARK  Name = molecules/JWQZOTGHUDZFMU-WIDFLDSMSA-N.pdb
REMARK                            x       y       z     vdW  Elec       q    Type
REMARK                         _______ _______ _______ _____ _____    ______ ____
ROOT
ATOM      1  H   UNK    1       -0.203  -9.824   0.000  0.00  0.00    +0.000 HD
ENDROOT
TORSDOF 0
REMARK  Name = molecules/JWQZOTGHUDZFMU-WIDFLDSMSA-N.pdb
REMARK                            x       y       z     vdW  Elec       q    Type
REMARK                         _______ _______ _______ _____ _____    ______ ____
ROOT
ATOM      1  H   UNK    1       -2.571 -11.040   0.000  0.00  0.00    +0.000 HD
ENDROOT
TORSDOF 0
REMARK  Name = molecules/JWQZOTGHUDZFMU-WIDFLDSMSA-N.pdb
REMARK                            x       y       z     vdW  Elec       q    Type
REMARK                         _______ _______ _______ _____ _____    ______ ____
ROOT
ATOM      1  H   UNK    1       -4.429  -8.864   0.000  0.00  0.00    +0.000 HD
ENDROOT
TORSDOF 0
REMARK  Name = molecules/JWQZOTGHUDZFMU-WIDFLDSMSA-N.pdb
REMARK                            x       y       z     vdW  Elec       q    Type
REMARK                         _______ _______ _______ _____ _____    ______ ____
ROOT
ATOM      1  H   UNK    1       -4.788  -8.065   0.000  0.00  0.00    +0.000 HD
ENDROOT
TORSDOF 0
REMARK  Name = molecules/JWQZOTGHUDZFMU-WIDFLDSMSA-N.pdb
REMARK                            x       y       z     vdW  Elec       q    Type
REMARK                         _______ _______ _______ _____ _____    ______ ____
ROOT
ATOM      1  H   UNK    1       -1.378 -10.439   0.000  0.00  0.00    +0.000 HD
ENDROOT
TORSDOF 0
REMARK  Name = molecules/JWQZOTGHUDZFMU-WIDFLDSMSA-N.pdb
REMARK                            x       y       z     vdW  Elec       q    Type
REMARK                         _______ _______ _______ _____ _____    ______ ____
ROOT
ATOM      1  H   UNK    1       -7.539 -17.343   0.000  0.00  0.00    +0.000 HD
ENDROOT
TORSDOF 0
REMARK  Name = molecules/JWQZOTGHUDZFMU-WIDFLDSMSA-N.pdb
REMARK                            x       y       z     vdW  Elec       q    Type
REMARK                         _______ _______ _______ _____ _____    ______ ____
ROOT
ATOM      1  H   UNK    1       -5.278 -15.986   0.000  0.00  0.00    +0.000 HD
ENDROOT
TORSDOF 0
REMARK  Name = molecules/JWQZOTGHUDZFMU-WIDFLDSMSA-N.pdb
REMARK                            x       y       z     vdW  Elec       q    Type
REMARK                         _______ _______ _______ _____ _____    ______ ____
ROOT
ATOM      1  H   UNK    1       -6.441 -13.245   0.000  0.00  0.00    +0.000 HD
ENDROOT
TORSDOF 0
