REMARK  Name = molecules/JWUBBDSIWDLEOM-DTOXIADCSA-N.pdb
REMARK                            x       y       z     vdW  Elec       q    Type
REMARK                         _______ _______ _______ _____ _____    ______ ____
ROOT
ATOM      1  C   LIG    1       -0.375   0.342   2.432  0.00  0.00    +0.012 C 
ATOM      2  C   LIG    1        0.278   0.904   1.191  0.00  0.00    -0.022 C 
ATOM      3  C   LIG    1        0.364   2.382   1.185  0.00  0.00    +0.008 C 
ATOM      4  C   LIG    1       -0.959   3.026   1.125  0.00  0.00    +0.005 C 
ATOM      5  C   LIG    1       -2.164   2.152   0.978  0.00  0.00    +0.031 C 
ATOM      6  C   LIG    1       -1.927   0.956   0.170  0.00  0.00    -0.066 C 
ATOM      7  C   LIG    1       -2.966   0.312  -0.341  0.00  0.00    -0.000 C 
ATOM      8  C   LIG    1        1.529   0.142   0.907  0.00  0.00    -0.002 C 
ATOM      9  C   LIG    1        0.948  -1.234   0.586  0.00  0.00    +0.005 C 
ATOM     10  C   LIG    1       -0.362  -0.950  -0.101  0.00  0.00    +0.009 C 
ATOM     11  C   LIG    1       -0.535   0.521  -0.059  0.00  0.00    +0.021 C 
ENDROOT
BRANCH   7  12
ATOM     12  C   LIG    1       -4.332   0.751  -0.104  0.00  0.00    +0.004 C 
ATOM     13  C   LIG    1       -5.342   0.139  -0.658  0.00  0.00    -0.042 C 
ATOM     14  C   LIG    1       -6.741   0.558  -0.332  0.00  0.00    +0.066 C 
ATOM     15  C   LIG    1       -7.671  -0.620  -0.654  0.00  0.00    +0.119 C 
ATOM     16  C   LIG    1       -6.939  -1.883  -0.275  0.00  0.00    +0.036 C 
ATOM     17  C   LIG    1       -5.943  -2.212  -1.393  0.00  0.00    +0.037 C 
ATOM     18  C   LIG    1       -5.108  -0.997  -1.546  0.00  0.00    -0.051 C 
ATOM     19  C   LIG    1       -4.223  -0.893  -2.485  0.00  0.00    +0.012 C 
BRANCH  15  20
ATOM     20  O   LIG    1       -8.020  -0.617  -1.997  0.00  0.00    -0.391 OA
ATOM     21  H   LIG    1       -8.287   0.269  -2.296  0.00  0.00    +0.210 HD
ENDBRANCH  15  20
ENDBRANCH   7  12
BRANCH   8  22
ATOM     22  C   LIG    1        2.599   0.106   1.903  0.00  0.00    -0.010 C 
ATOM     23  C   LIG    1        3.176   1.485   2.132  0.00  0.00    +0.008 C 
BRANCH  22  24
ATOM     24  C   LIG    1        3.793  -0.742   1.485  0.00  0.00    +0.003 C 
BRANCH  24  25
ATOM     25  C   LIG    1        4.437  -0.240   0.211  0.00  0.00    +0.003 C 
BRANCH  25  26
ATOM     26  C   LIG    1        5.600  -1.172  -0.075  0.00  0.00    +0.034 C 
BRANCH  26  27
ATOM     27  C   LIG    1        6.334  -0.777  -1.334  0.00  0.00    +0.061 C 
ATOM     28  C   LIG    1        6.908   0.599  -1.264  0.00  0.00    +0.041 C 
ATOM     29  C   LIG    1        7.468  -1.760  -1.531  0.00  0.00    +0.041 C 
BRANCH  27  30
ATOM     30  O   LIG    1        5.429  -0.899  -2.396  0.00  0.00    -0.389 OA
ATOM     31  H   LIG    1        6.002  -0.944  -3.226  0.00  0.00    +0.210 HD
ENDBRANCH  27  30
ENDBRANCH  26  27
ENDBRANCH  25  26
ENDBRANCH  24  25
ENDBRANCH  22  24
ENDBRANCH   8  22
TORSDOF 8
