REMARK  Name = molecules/JXDFEQONERDKSS-UHFFFAOYSA-N.pdb
REMARK                            x       y       z     vdW  Elec       q    Type
REMARK                         _______ _______ _______ _____ _____    ______ ____
ROOT
ATOM      1  C   LIG    1        0.592  -0.338   0.109  0.00  0.00    +0.064 A 
ATOM      2  C   LIG    1        1.608  -1.270   0.239  0.00  0.00    +0.044 A 
ATOM      3  C   LIG    1        2.808  -0.604   0.114  0.00  0.00    +0.105 A 
ATOM      4  N   LIG    1        2.523   0.696  -0.086  0.00  0.00    -0.284 N 
ATOM      5  H   LIG    1        3.247   1.463  -0.218  0.00  0.00    +0.188 HD
ATOM      6  N   LIG    1        1.207   0.836  -0.086  0.00  0.00    -0.179 NA
ENDROOT
BRANCH   1   7
ATOM      7  C   LIG    1       -0.882  -0.616   0.178  0.00  0.00    +0.072 C 
BRANCH   7   8
ATOM      8  C   LIG    1       -1.591   0.704  -0.019  0.00  0.00    +0.084 C 
BRANCH   8   9
ATOM      9  N   LIG    1       -3.015   0.598   0.022  0.00  0.00    -0.330 NA
ATOM     10  H   LIG    1       -3.413   0.312   0.923  0.00  0.00    +0.118 HD
ATOM     11  H   LIG    1       -3.488   1.361  -0.471  0.00  0.00    +0.118 HD
ENDBRANCH   8   9
ENDBRANCH   7   8
ENDBRANCH   1   7
TORSDOF 3
