REMARK  Name = molecules/JXLYSJRDGCGARV-CFWMRBGOSA-N.pdb
REMARK                            x       y       z     vdW  Elec       q    Type
REMARK                         _______ _______ _______ _____ _____    ______ ____
ROOT
ATOM      1  C   LIG    1       -3.592   0.301  -2.275  0.00  0.00    +0.045 C 
ATOM      2  C   LIG    1       -4.068   0.481  -0.862  0.00  0.00    +0.232 C 
ATOM      3  C   LIG    1       -4.162  -0.872  -0.178  0.00  0.00    +0.219 C 
ATOM      4  C   LIG    1       -3.098  -1.835  -0.552  0.00  0.00    +0.132 C 
ATOM      5  N   LIG    1       -2.477  -2.521   0.577  0.00  0.00    -0.325 N 
ATOM      6  C   LIG    1       -2.847  -3.758   1.230  0.00  0.00    +0.129 C 
ATOM      7  C   LIG    1       -1.346  -1.726   0.982  0.00  0.00    +0.037 A 
ATOM      8  C   LIG    1       -0.626  -1.619   2.159  0.00  0.00    +0.069 A 
ATOM      9  C   LIG    1        0.435  -0.731   2.274  0.00  0.00    +0.126 A 
ATOM     10  C   LIG    1        0.778   0.064   1.179  0.00  0.00    +0.017 A 
ATOM     11  C   LIG    1        0.067  -0.051   0.026  0.00  0.00    +0.014 A 
ATOM     12  C   LIG    1       -1.007  -0.943  -0.101  0.00  0.00    -0.016 A 
ATOM     13  C   LIG    1       -1.895  -1.249  -1.221  0.00  0.00    +0.037 C 
ATOM     14  C   LIG    1       -1.285  -2.348  -2.118  0.00  0.00    +0.030 C 
ATOM     15  C   LIG    1       -0.613  -1.565  -3.227  0.00  0.00    +0.086 C 
ATOM     16  N   LIG    1       -1.620  -0.542  -3.465  0.00  0.00    -0.294 NA
ATOM     17  C   LIG    1       -2.514  -0.990  -4.462  0.00  0.00    +0.111 C 
ATOM     18  C   LIG    1       -3.897  -1.246  -4.084  0.00  0.00    -0.015 C 
ATOM     19  C   LIG    1       -2.154  -0.177  -2.194  0.00  0.00    +0.083 C 
ATOM     20  C   LIG    1       -4.439  -0.640  -3.041  0.00  0.00    -0.018 C 
ENDROOT
BRANCH  10  21
ATOM     21  C   LIG    1        1.983   0.938   1.335  0.00  0.00    +0.136 C 
ATOM     22  C   LIG    1        3.127  -0.010   1.497  0.00  0.00    +0.034 C 
ATOM     23  C   LIG    1        2.917  -1.327   0.759  0.00  0.00    +0.008 C 
ATOM     24  C   LIG    1        3.689  -2.370   1.543  0.00  0.00    +0.041 C 
ATOM     25  C   LIG    1        5.150  -2.108   1.637  0.00  0.00    +0.079 C 
ATOM     26  C   LIG    1        5.739  -1.322   0.507  0.00  0.00    +0.119 C 
ATOM     27  N   LIG    1        4.836  -0.575  -0.242  0.00  0.00    -0.299 NA
ATOM     28  C   LIG    1        5.160   0.579  -0.895  0.00  0.00    +0.089 C 
ATOM     29  C   LIG    1        4.713   1.898  -0.347  0.00  0.00    +0.053 C 
ATOM     30  C   LIG    1        3.278   2.229  -0.506  0.00  0.00    -0.016 A 
ATOM     31  C   LIG    1        2.811   3.157  -1.485  0.00  0.00    +0.003 A 
ATOM     32  C   LIG    1        1.474   3.320  -1.352  0.00  0.00    +0.047 A 
ATOM     33  N   LIG    1        1.117   2.541  -0.348  0.00  0.00    -0.357 N 
ATOM     34  H   LIG    1        0.111   2.501  -0.002  0.00  0.00    +0.166 HD
ATOM     35  C   LIG    1        0.736   4.175  -2.187  0.00  0.00    +0.026 A 
ATOM     36  C   LIG    1        1.408   4.861  -3.167  0.00  0.00    +0.002 A 
ATOM     37  C   LIG    1        2.768   4.729  -3.343  0.00  0.00    +0.001 A 
ATOM     38  C   LIG    1        3.436   3.877  -2.494  0.00  0.00    +0.010 A 
ATOM     39  C   LIG    1        3.679  -1.300  -0.584  0.00  0.00    +0.088 C 
ATOM     40  C   LIG    1        2.208   1.854   0.191  0.00  0.00    +0.042 A 
BRANCH  21  41
ATOM     41  C   LIG    1        1.789   1.689   2.596  0.00  0.00    +0.323 C 
ATOM     42  O   LIG    1        2.586   1.617   3.567  0.00  0.00    -0.249 OA
BRANCH  41  43
ATOM     43  O   LIG    1        0.687   2.524   2.754  0.00  0.00    -0.467 OA
ATOM     44  C   LIG    1        0.442   3.265   3.926  0.00  0.00    +0.280 C 
ENDBRANCH  41  43
ENDBRANCH  21  41
BRANCH  25  45
ATOM     45  O   LIG    1        5.399  -1.404   2.823  0.00  0.00    -0.387 OA
ATOM     46  H   LIG    1        6.325  -1.017   2.711  0.00  0.00    +0.210 HD
ENDBRANCH  25  45
BRANCH  25  47
ATOM     47  C   LIG    1        5.838  -3.457   1.799  0.00  0.00    +0.032 C 
ATOM     48  C   LIG    1        7.324  -3.327   1.906  0.00  0.00    +0.007 C 
ENDBRANCH  25  47
ENDBRANCH  10  21
BRANCH   1  49
ATOM     49  C   LIG    1       -3.506   1.659  -2.987  0.00  0.00    +0.013 C 
ATOM     50  C   LIG    1       -4.825   2.314  -3.189  0.00  0.00    +0.005 C 
ENDBRANCH   1  49
BRANCH   3  51
ATOM     51  C   LIG    1       -4.252  -0.569   1.271  0.00  0.00    +0.345 C 
ATOM     52  O   LIG    1       -3.337   0.042   1.846  0.00  0.00    -0.247 OA
BRANCH  51  53
ATOM     53  O   LIG    1       -5.349  -0.959   1.998  0.00  0.00    -0.466 OA
ATOM     54  C   LIG    1       -5.506  -0.705   3.384  0.00  0.00    +0.280 C 
ENDBRANCH  51  53
ENDBRANCH   3  51
BRANCH   3  55
ATOM     55  O   LIG    1       -5.389  -1.496  -0.523  0.00  0.00    -0.373 OA
ATOM     56  H   LIG    1       -6.117  -1.156   0.083  0.00  0.00    +0.211 HD
ENDBRANCH   3  55
BRANCH   9  57
ATOM     57  O   LIG    1        1.160  -0.612   3.447  0.00  0.00    -0.495 OA
ATOM     58  C   LIG    1        0.932  -1.337   4.613  0.00  0.00    +0.277 C 
ENDBRANCH   9  57
BRANCH   2  59
ATOM     59  O   LIG    1       -5.342   1.054  -0.780  0.00  0.00    -0.457 OA
BRANCH  59  60
ATOM     60  C   LIG    1       -5.614   2.213  -0.052  0.00  0.00    +0.304 C 
ATOM     61  O   LIG    1       -4.689   2.797   0.571  0.00  0.00    -0.251 OA
ATOM     62  C   LIG    1       -7.008   2.701  -0.057  0.00  0.00    +0.136 C 
ENDBRANCH  59  60
ENDBRANCH   2  59
TORSDOF 12
