REMARK  Name = molecules/JXMIBUGMYLQZGO-UHFFFAOYSA-N.pdb
REMARK                            x       y       z     vdW  Elec       q    Type
REMARK                         _______ _______ _______ _____ _____    ______ ____
ROOT
ATOM      1  O   LIG    1       -0.748  -1.844  -0.701  0.00  0.00    -0.375 OA
ENDROOT
BRANCH   1   2
ATOM      2  C   LIG    1       -1.692  -1.958  -1.587  0.00  0.00    +0.188 C 
BRANCH   2   3
ATOM      3  C   LIG    1       -2.013  -0.768  -2.421  0.00  0.00    +0.188 C 
BRANCH   3   4
ATOM      4  O   LIG    1       -3.062  -0.999  -3.318  0.00  0.00    -0.368 OA
BRANCH   4   5
ATOM      5  C   LIG    1       -4.254  -1.350  -2.759  0.00  0.00    +0.255 C 
BRANCH   5   8
ATOM      6  N   LIG    1       -6.077  -0.660  -1.196  0.00  0.00    -0.282 N 
ATOM      7  H   LIG    1       -6.541  -1.575  -1.397  0.00  0.00    +0.155 HD
ATOM      8  C   LIG    1       -4.855  -0.378  -1.835  0.00  0.00    +0.243 C 
ATOM      9  O   LIG    1       -4.292   0.706  -1.606  0.00  0.00    -0.273 OA
BRANCH   6  10
ATOM     10  C   LIG    1       -6.712   0.240  -0.290  0.00  0.00    +0.061 A 
ATOM     11  C   LIG    1       -6.428   0.176   1.057  0.00  0.00    +0.051 A 
ATOM     12  C   LIG    1       -7.016   1.026   1.980  0.00  0.00    +0.087 A 
ATOM     13  C   LIG    1       -7.919   1.975   1.547  0.00  0.00    +0.029 A 
ATOM     14  I   LIG    1       -8.840   3.295   2.933  0.00  0.00    -0.043 I 
ATOM     15  C   LIG    1       -8.202   2.039   0.208  0.00  0.00    +0.031 A 
ATOM     16  I   LIG    1       -5.058  -1.253   1.755  0.00  0.00    -0.041 I 
ATOM     17  C   LIG    1       -7.611   1.188  -0.703  0.00  0.00    +0.037 A 
ATOM     18  I   LIG    1       -8.067   1.316  -2.740  0.00  0.00    -0.042 I 
BRANCH  12  19
ATOM     19  C   LIG    1       -6.727   0.971   3.403  0.00  0.00    +0.339 C 
ATOM     20  O   LIG    1       -5.805   1.636   3.923  0.00  0.00    -0.245 OA
BRANCH  19  21
ATOM     21  O   LIG    1       -7.497   0.156   4.209  0.00  0.00    -0.477 OA
ATOM     22  H   LIG    1       -8.459  -0.066   3.996  0.00  0.00    +0.295 HD
ENDBRANCH  19  21
ENDBRANCH  12  19
ENDBRANCH   6  10
ENDBRANCH   5   8
ENDBRANCH   4   5
ENDBRANCH   3   4
ENDBRANCH   2   3
ENDBRANCH   1   2
BRANCH   1  23
ATOM     23  C   LIG    1        0.537  -1.564  -0.731  0.00  0.00    +0.188 C 
BRANCH  23  24
ATOM     24  C   LIG    1        1.046  -0.239  -1.170  0.00  0.00    +0.188 C 
BRANCH  24  25
ATOM     25  O   LIG    1        2.426  -0.180  -1.119  0.00  0.00    -0.368 OA
BRANCH  25  26
ATOM     26  C   LIG    1        2.935  -0.360   0.131  0.00  0.00    +0.255 C 
BRANCH  26  27
ATOM     27  C   LIG    1        4.441  -0.198   0.051  0.00  0.00    +0.243 C 
ATOM     28  N   LIG    1        5.215  -0.340   1.228  0.00  0.00    -0.282 N 
ATOM     29  H   LIG    1        4.769  -0.552   2.142  0.00  0.00    +0.155 HD
ATOM     30  O   LIG    1        4.935   0.055  -1.056  0.00  0.00    -0.273 OA
BRANCH  28  31
ATOM     31  C   LIG    1        6.623  -0.186   1.147  0.00  0.00    +0.061 A 
ATOM     32  C   LIG    1        7.218   1.055   1.321  0.00  0.00    +0.051 A 
ATOM     33  I   LIG    1        5.952   2.696   1.709  0.00  0.00    -0.041 I 
ATOM     34  C   LIG    1        8.594   1.223   1.245  0.00  0.00    +0.087 A 
ATOM     35  C   LIG    1        9.391   0.124   0.989  0.00  0.00    +0.029 A 
ATOM     36  I   LIG    1       11.475   0.358   0.870  0.00  0.00    -0.043 I 
ATOM     37  C   LIG    1        8.837  -1.125   0.810  0.00  0.00    +0.031 A 
ATOM     38  C   LIG    1        7.465  -1.256   0.893  0.00  0.00    +0.037 A 
ATOM     39  I   LIG    1        6.607  -3.153   0.623  0.00  0.00    -0.042 I 
BRANCH  34  40
ATOM     40  C   LIG    1        9.131   2.554   1.440  0.00  0.00    +0.339 C 
ATOM     41  O   LIG    1        9.444   2.941   2.583  0.00  0.00    -0.245 OA
BRANCH  40  42
ATOM     42  O   LIG    1        9.292   3.385   0.359  0.00  0.00    -0.477 OA
ATOM     43  H   LIG    1        8.677   4.190   0.281  0.00  0.00    +0.295 HD
ENDBRANCH  40  42
ENDBRANCH  34  40
ENDBRANCH  28  31
ENDBRANCH  26  27
ENDBRANCH  25  26
ENDBRANCH  24  25
ENDBRANCH  23  24
ENDBRANCH   1  23
TORSDOF 16
