REMARK  Name = molecules/JXSJBGJIGXNWCI-MRVPVSSYSA-N.pdb
REMARK                            x       y       z     vdW  Elec       q    Type
REMARK                         _______ _______ _______ _____ _____    ______ ____
ROOT
ATOM      1  C   LIG    1       -0.326   1.368   1.100  0.00  0.00    +0.174 C 
ENDROOT
BRANCH   1   2
ATOM      2  C   LIG    1       -0.724   2.166  -0.114  0.00  0.00    +0.321 C 
ATOM      3  O   LIG    1       -0.007   2.200  -1.136  0.00  0.00    -0.250 OA
BRANCH   2   4
ATOM      4  O   LIG    1       -1.915   2.857  -0.052  0.00  0.00    -0.464 OA
BRANCH   4   5
ATOM      5  C   LIG    1       -2.410   3.647  -1.122  0.00  0.00    +0.229 C 
ATOM      6  C   LIG    1       -1.404   4.724  -1.412  0.00  0.00    +0.048 C 
ENDBRANCH   4   5
ENDBRANCH   2   4
ENDBRANCH   1   2
BRANCH   1   7
ATOM      7  C   LIG    1       -1.336   0.329   1.430  0.00  0.00    +0.146 C 
BRANCH   7   8
ATOM      8  C   LIG    1       -1.437  -0.824   0.546  0.00  0.00    +0.309 C 
ATOM      9  O   LIG    1       -2.071  -0.732  -0.527  0.00  0.00    -0.251 OA
BRANCH   8  10
ATOM     10  O   LIG    1       -0.848  -2.025   0.864  0.00  0.00    -0.465 OA
BRANCH  10  12
ATOM     11  C   LIG    1       -2.370  -3.567  -0.150  0.00  0.00    +0.048 C 
ATOM     12  C   LIG    1       -0.920  -3.175   0.036  0.00  0.00    +0.229 C 
ENDBRANCH  10  12
ENDBRANCH   8  10
ENDBRANCH   7   8
ENDBRANCH   1   7
BRANCH   1  13
ATOM     13  S   LIG    1        1.373   0.869   1.059  0.00  0.00    -0.059 S 
BRANCH  13  14
ATOM     14  P   LIG    1        1.959  -0.399  -0.464  0.00  0.00    +0.229 P 
ATOM     15  S   LIG    1        0.937  -0.402  -1.841  0.00  0.00    +0.003 S 
BRANCH  14  16
ATOM     16  O   LIG    1        2.132  -1.978   0.161  0.00  0.00    -0.327 OA
ATOM     17  C   LIG    1        2.350  -1.963   1.526  0.00  0.00    +0.203 C 
ENDBRANCH  14  16
BRANCH  14  18
ATOM     18  O   LIG    1        3.521   0.000  -1.064  0.00  0.00    -0.327 OA
ATOM     19  C   LIG    1        4.484  -0.883  -0.646  0.00  0.00    +0.203 C 
ENDBRANCH  14  18
ENDBRANCH  13  14
ENDBRANCH   1  13
TORSDOF 11
