REMARK  Name = molecules/JXTHNDFMNIQAHM-UHFFFAOYSA-N.pdb
REMARK                            x       y       z     vdW  Elec       q    Type
REMARK                         _______ _______ _______ _____ _____    ______ ____
ROOT
ATOM      1  C   LIG    1       -0.603  -0.213   0.287  0.00  0.00    +0.338 C 
ATOM      2  O   LIG    1       -1.019  -1.094   1.055  0.00  0.00    -0.248 OA
ENDROOT
BRANCH   1   3
ATOM      3  C   LIG    1        0.851  -0.002  -0.023  0.00  0.00    +0.279 C 
ATOM      4 CL   LIG    1        1.844  -1.178   0.857  0.00  0.00    -0.092 Cl
ATOM      5 CL   LIG    1        1.350   1.614   0.485  0.00  0.00    -0.092 Cl
ENDBRANCH   1   3
BRANCH   1   6
ATOM      6  O   LIG    1       -1.543   0.618  -0.312  0.00  0.00    -0.479 OA
ATOM      7  H   LIG    1       -1.866   0.331  -1.233  0.00  0.00    +0.295 HD
ENDBRANCH   1   6
TORSDOF 2
