REMARK  Name = molecules/JYGXADMDTFJGBT-VWUMJDOOSA-N.pdb
REMARK                            x       y       z     vdW  Elec       q    Type
REMARK                         _______ _______ _______ _____ _____    ______ ____
ROOT
ATOM      1  C   LIG    1       -3.006   0.924   1.456  0.00  0.00    +0.019 C 
ATOM      2  C   LIG    1       -4.488   0.650   1.534  0.00  0.00    +0.080 C 
ATOM      3  C   LIG    1       -5.036   1.078   0.231  0.00  0.00    +0.156 C 
ATOM      4  O   LIG    1       -5.963   1.893   0.179  0.00  0.00    -0.293 OA
ATOM      5  C   LIG    1       -4.428   0.493  -0.941  0.00  0.00    +0.046 C 
ATOM      6  C   LIG    1       -3.185   0.060  -0.892  0.00  0.00    -0.060 C 
ATOM      7  C   LIG    1       -2.632  -0.527  -2.121  0.00  0.00    +0.032 C 
ATOM      8  C   LIG    1       -1.185  -0.221  -2.349  0.00  0.00    +0.008 C 
ATOM      9  C   LIG    1       -0.463  -0.338  -1.025  0.00  0.00    -0.001 C 
ATOM     10  C   LIG    1       -1.063   0.729  -0.105  0.00  0.00    +0.031 C 
ATOM     11  C   LIG    1       -0.127   1.222   0.903  0.00  0.00    +0.119 C 
ATOM     12  C   LIG    1        0.965   0.266   1.346  0.00  0.00    +0.041 C 
ATOM     13  C   LIG    1        1.598  -0.482   0.237  0.00  0.00    +0.009 C 
ATOM     14  C   LIG    1        1.613  -1.944   0.499  0.00  0.00    +0.015 C 
ATOM     15  C   LIG    1        3.031  -0.066  -0.058  0.00  0.00    +0.131 C 
ATOM     16  C   LIG    1        3.232  -0.701  -1.433  0.00  0.00    +0.043 C 
ATOM     17  C   LIG    1        1.818  -0.863  -2.028  0.00  0.00    +0.008 C 
ATOM     18  C   LIG    1        0.975  -0.070  -1.083  0.00  0.00    +0.002 C 
ATOM     19  C   LIG    1       -2.385   0.160   0.348  0.00  0.00    -0.005 C 
ATOM     20  C   LIG    1       -2.248  -1.275   0.858  0.00  0.00    +0.016 C 
ENDROOT
BRANCH  11  21
ATOM     21  O   LIG    1       -0.690   1.763   2.026  0.00  0.00    -0.391 OA
ATOM     22  H   LIG    1       -0.180   2.506   2.394  0.00  0.00    +0.210 HD
ENDBRANCH  11  21
BRANCH  15  23
ATOM     23  C   LIG    1        4.003  -0.550   0.935  0.00  0.00    +0.190 C 
ATOM     24  O   LIG    1        4.128  -1.729   1.194  0.00  0.00    -0.292 OA
BRANCH  23  25
ATOM     25  C   LIG    1        4.908   0.380   1.699  0.00  0.00    +0.233 C 
BRANCH  25  26
ATOM     26  O   LIG    1        4.689   1.691   1.335  0.00  0.00    -0.387 OA
ATOM     27  H   LIG    1        5.511   2.246   1.450  0.00  0.00    +0.210 HD
ENDBRANCH  25  26
ENDBRANCH  23  25
ENDBRANCH  15  23
BRANCH  15  28
ATOM     28  O   LIG    1        3.140   1.323  -0.137  0.00  0.00    -0.380 OA
ATOM     29  H   LIG    1        3.705   1.534  -0.924  0.00  0.00    +0.211 HD
ENDBRANCH  15  28
TORSDOF 5
