REMARK  Name = molecules/JYTNQNCOQXFQPK-MRXNPFEDSA-N.pdb
REMARK                            x       y       z     vdW  Elec       q    Type
REMARK                         _______ _______ _______ _____ _____    ______ ____
ROOT
ATOM      1  N   LIG    1        1.688   0.002   1.054  0.00  0.00    -0.283 N 
ATOM      2  C   LIG    1        1.436  -1.199   1.805  0.00  0.00    +0.128 C 
ATOM      3  C   LIG    1       -0.009  -1.481   2.016  0.00  0.00    +0.127 C 
ATOM      4  N   LIG    1       -0.854  -1.117   0.898  0.00  0.00    -0.293 N 
ATOM      5  C   LIG    1       -2.233  -1.086   1.237  0.00  0.00    +0.249 C 
ATOM      6  O   LIG    1       -2.634  -1.354   2.398  0.00  0.00    -0.270 OA
ATOM      7  C   LIG    1       -0.556  -0.785  -0.475  0.00  0.00    +0.075 C 
ATOM      8  C   LIG    1        0.097   0.551  -0.641  0.00  0.00    +0.041 C 
ATOM      9  C   LIG    1        0.358  -1.822  -1.113  0.00  0.00    +0.028 C 
ATOM     10  C   LIG    1        0.750   1.010   0.641  0.00  0.00    +0.111 C 
ENDROOT
BRANCH   1  14
ATOM     11  C   LIG    1        6.497  -0.424   0.394  0.00  0.00    +0.050 A 
ATOM     12  C   LIG    1        5.179  -0.036   0.415  0.00  0.00    +0.157 A 
ATOM     13  O   LIG    1        4.082  -0.564   0.932  0.00  0.00    -0.424 OA
ATOM     14  C   LIG    1        3.041   0.199   0.682  0.00  0.00    +0.291 A 
ATOM     15  N   LIG    1        3.495   1.270  -0.032  0.00  0.00    -0.195 NA
ATOM     16  C   LIG    1        4.816   1.132  -0.201  0.00  0.00    +0.113 A 
ATOM     17  C   LIG    1        5.765   1.901  -0.831  0.00  0.00    +0.051 A 
ATOM     18  C   LIG    1        7.088   1.539  -0.870  0.00  0.00    +0.043 A 
ATOM     19 CL   LIG    1        8.316   2.501  -1.666  0.00  0.00    -0.083 Cl
ATOM     20  C   LIG    1        7.426   0.364  -0.245  0.00  0.00    +0.024 A 
ENDBRANCH   1  14
BRANCH   5  21
ATOM     21  C   LIG    1       -3.268  -0.745   0.269  0.00  0.00    +0.064 A 
ATOM     22  C   LIG    1       -3.641   0.571   0.130  0.00  0.00    +0.098 A 
ATOM     23  C   LIG    1       -4.627   0.925  -0.788  0.00  0.00    +0.030 A 
ATOM     24  C   LIG    1       -5.224  -0.037  -1.551  0.00  0.00    +0.005 A 
ATOM     25  C   LIG    1       -4.860  -1.375  -1.425  0.00  0.00    -0.050 A 
ATOM     26  C   LIG    1       -5.527  -2.397  -2.269  0.00  0.00    +0.044 C 
ATOM     27  C   LIG    1       -3.890  -1.686  -0.515  0.00  0.00    +0.018 A 
BRANCH  22  28
ATOM     28  N   LIG    1       -3.070   1.621   0.884  0.00  0.00    -0.150 N 
ATOM     29  N   LIG    1       -2.707   1.553   2.146  0.00  0.00    -0.156 NA
ATOM     30  C   LIG    1       -2.202   2.739   2.538  0.00  0.00    +0.156 A 
ATOM     31  C   LIG    1       -2.282   3.542   1.422  0.00  0.00    +0.156 A 
ATOM     32  N   LIG    1       -2.819   2.824   0.427  0.00  0.00    -0.156 NA
ENDBRANCH  22  28
ENDBRANCH   5  21
TORSDOF 3
