REMARK  Name = molecules/JZCPYUJPEARBJL-UHFFFAOYSA-N.pdb
REMARK                            x       y       z     vdW  Elec       q    Type
REMARK                         _______ _______ _______ _____ _____    ______ ____
ROOT
ATOM      1  C   LIG    1        0.428   2.580  -0.730  0.00  0.00    +0.048 C 
ATOM      2  C   LIG    1        0.717   1.143  -0.494  0.00  0.00    +0.008 A 
ATOM      3  C   LIG    1        1.937   0.522  -0.304  0.00  0.00    +0.078 A 
ATOM      4  N   LIG    1        1.625  -0.760  -0.050  0.00  0.00    -0.230 N 
ATOM      5  N   LIG    1        0.294  -0.940  -0.078  0.00  0.00    -0.161 NA
ATOM      6  C   LIG    1       -0.326   0.211  -0.351  0.00  0.00    +0.152 A 
ENDROOT
BRANCH   4   7
ATOM      7  C   LIG    1        2.527  -1.821   0.191  0.00  0.00    +0.084 A 
ATOM      8  C   LIG    1        2.646  -2.432   1.420  0.00  0.00    +0.031 A 
ATOM      9  C   LIG    1        3.523  -3.473   1.637  0.00  0.00    +0.022 A 
ATOM     10  C   LIG    1        4.311  -3.926   0.599  0.00  0.00    +0.042 A 
ATOM     11 CL   LIG    1        5.435  -5.241   0.841  0.00  0.00    -0.083 Cl
ATOM     12  C   LIG    1        4.208  -3.328  -0.647  0.00  0.00    +0.042 A 
ATOM     13  C   LIG    1        3.318  -2.284  -0.837  0.00  0.00    +0.068 A 
ATOM     14 CL   LIG    1        3.248  -1.577  -2.455  0.00  0.00    -0.081 Cl
ENDBRANCH   4   7
BRANCH   3  15
ATOM     15  C   LIG    1        3.265   1.132  -0.460  0.00  0.00    +0.001 A 
ATOM     16  C   LIG    1        4.374   0.613   0.178  0.00  0.00    +0.011 A 
ATOM     17  C   LIG    1        5.606   1.225   0.102  0.00  0.00    +0.020 A 
ATOM     18  C   LIG    1        5.781   2.391  -0.618  0.00  0.00    +0.041 A 
ATOM     19 CL   LIG    1        7.321   3.213  -0.747  0.00  0.00    -0.084 Cl
ATOM     20  C   LIG    1        4.701   2.941  -1.268  0.00  0.00    +0.020 A 
ATOM     21  C   LIG    1        3.487   2.295  -1.168  0.00  0.00    +0.011 A 
ENDBRANCH   3  15
BRANCH   6  22
ATOM     22  C   LIG    1       -1.750   0.477  -0.511  0.00  0.00    +0.278 C 
ATOM     23  N   LIG    1       -2.742  -0.469  -0.095  0.00  0.00    -0.243 N 
ATOM     24  H   LIG    1       -2.425  -1.347   0.313  0.00  0.00    +0.170 HD
ATOM     25  O   LIG    1       -2.127   1.576  -1.027  0.00  0.00    -0.267 OA
BRANCH  23  26
ATOM     26  N   LIG    1       -4.077  -0.190  -0.245  0.00  0.00    -0.227 NA
ATOM     27  C   LIG    1       -4.490   1.108   0.091  0.00  0.00    +0.105 C 
ATOM     28  C   LIG    1       -5.734   1.286   0.883  0.00  0.00    +0.017 C 
ATOM     29  C   LIG    1       -6.760   0.223   0.685  0.00  0.00    +0.003 C 
ATOM     30  C   LIG    1       -6.088  -1.123   0.860  0.00  0.00    +0.017 C 
ATOM     31  C   LIG    1       -4.956  -1.278  -0.098  0.00  0.00    +0.105 C 
ENDBRANCH  23  26
ENDBRANCH   6  22
TORSDOF 4
