REMARK  Name = molecules/JZQKKSLKJUAGIC-NSHDSACASA-N.pdb
REMARK                            x       y       z     vdW  Elec       q    Type
REMARK                         _______ _______ _______ _____ _____    ______ ____
ROOT
ATOM      1  O   LIG    1        1.382  -0.011   0.372  0.00  0.00    -0.489 OA
ENDROOT
BRANCH   1   2
ATOM      2  C   LIG    1        2.631  -0.365  -0.030  0.00  0.00    +0.130 A 
ATOM      3  C   LIG    1        3.727   0.209   0.572  0.00  0.00    +0.041 A 
ATOM      4  C   LIG    1        3.848   1.160   1.596  0.00  0.00    +0.031 A 
ATOM      5  C   LIG    1        5.185   1.347   1.776  0.00  0.00    +0.084 A 
ATOM      6  N   LIG    1        5.899   0.583   0.941  0.00  0.00    -0.361 N 
ATOM      7  H   LIG    1        6.952   0.518   0.853  0.00  0.00    +0.165 HD
ATOM      8  C   LIG    1        5.000  -0.118   0.200  0.00  0.00    +0.050 A 
ATOM      9  C   LIG    1        5.191  -1.046  -0.806  0.00  0.00    +0.026 A 
ATOM     10  C   LIG    1        4.102  -1.626  -1.414  0.00  0.00    +0.006 A 
ATOM     11  C   LIG    1        2.819  -1.285  -1.026  0.00  0.00    +0.046 A 
ENDBRANCH   1   2
BRANCH   1  12
ATOM     12  C   LIG    1        0.167  -0.512  -0.151  0.00  0.00    +0.261 C 
BRANCH  12  13
ATOM     13  C   LIG    1       -0.941   0.164   0.596  0.00  0.00    +0.166 C 
BRANCH  13  14
ATOM     14  O   LIG    1       -0.787   1.551   0.359  0.00  0.00    -0.387 OA
ATOM     15  H   LIG    1       -1.071   1.785  -0.560  0.00  0.00    +0.210 HD
ENDBRANCH  13  14
BRANCH  13  16
ATOM     16  C   LIG    1       -2.325  -0.200   0.069  0.00  0.00    +0.115 C 
BRANCH  16  17
ATOM     17  N   LIG    1       -3.259   0.587   0.806  0.00  0.00    -0.311 NA
ATOM     18  H   LIG    1       -3.026   1.595   0.661  0.00  0.00    +0.122 HD
BRANCH  17  19
ATOM     19  C   LIG    1       -4.631   0.401   0.466  0.00  0.00    +0.048 C 
ATOM     20  C   LIG    1       -5.167  -0.967   0.705  0.00  0.00    +0.023 C 
ATOM     21  C   LIG    1       -4.949   0.900  -0.953  0.00  0.00    +0.023 C 
ENDBRANCH  17  19
ENDBRANCH  16  17
ENDBRANCH  13  16
ENDBRANCH  12  13
ENDBRANCH   1  12
TORSDOF 7
