REMARK  Name = molecules/JZRWCGZRTZMZEH-UHFFFAOYSA-N.pdb
REMARK                            x       y       z     vdW  Elec       q    Type
REMARK                         _______ _______ _______ _____ _____    ______ ____
ROOT
ATOM      1  C   LIG    1        0.487  -0.476   1.438  0.00  0.00    +0.162 C 
ENDROOT
BRANCH   1   2
ATOM      2  C   LIG    1        1.660  -0.189   0.621  0.00  0.00    +0.030 A 
ATOM      3  C   LIG    1        2.861  -0.748   0.992  0.00  0.00    +0.125 A 
ATOM      4  N   LIG    1        3.958  -0.494   0.248  0.00  0.00    -0.218 NA
ATOM      5  C   LIG    1        3.942   0.285  -0.847  0.00  0.00    +0.128 A 
ATOM      6  N   LIG    1        2.764   0.830  -1.205  0.00  0.00    -0.240 NA
ATOM      7  C   LIG    1        5.201   0.512  -1.608  0.00  0.00    +0.088 C 
ATOM      8  C   LIG    1        1.643   0.614  -0.507  0.00  0.00    +0.121 A 
BRANCH   3   9
ATOM      9  N   LIG    1        2.937  -1.593   2.158  0.00  0.00    -0.343 N 
ATOM     10  H   LIG    1        2.439  -1.361   3.043  0.00  0.00    +0.144 HD
ATOM     11  H   LIG    1        3.524  -2.450   2.056  0.00  0.00    +0.144 HD
ENDBRANCH   3   9
ENDBRANCH   1   2
BRANCH   1  14
ATOM     12  C   LIG    1       -1.314  -1.736  -0.523  0.00  0.00    +0.064 C 
ATOM     13  C   LIG    1       -1.537  -0.341   0.044  0.00  0.00    +0.026 A 
ATOM     14  N   LIG    1       -0.726   0.197   0.912  0.00  0.00    -0.340 N 
ATOM     15  C   LIG    1       -1.010   1.431   1.351  0.00  0.00    +0.132 A 
ATOM     16  S   LIG    1       -2.448   1.829   0.519  0.00  0.00    -0.082 S 
ATOM     17  C   LIG    1       -2.623   0.381  -0.364  0.00  0.00    +0.012 A 
BRANCH  17  18
ATOM     18  C   LIG    1       -3.693  -0.027  -1.350  0.00  0.00    +0.072 C 
BRANCH  18  19
ATOM     19  C   LIG    1       -4.647   1.167  -1.418  0.00  0.00    +0.161 C 
BRANCH  19  20
ATOM     20  O   LIG    1       -5.164   1.387  -0.145  0.00  0.00    -0.395 OA
ATOM     21  H   LIG    1       -4.992   2.292   0.194  0.00  0.00    +0.209 HD
ENDBRANCH  19  20
ENDBRANCH  18  19
ENDBRANCH  17  18
ENDBRANCH   1  14
TORSDOF 6
