REMARK  Name = molecules/JZWFDVDETGFGFC-UHFFFAOYSA-N.pdb
REMARK                            x       y       z     vdW  Elec       q    Type
REMARK                         _______ _______ _______ _____ _____    ______ ____
ROOT
ATOM      1  C   LIG    1       -0.733   0.016   0.100  0.00  0.00    +0.078 A 
ATOM      2  C   LIG    1       -1.292  -1.231   0.201  0.00  0.00    +0.017 A 
ATOM      3  C   LIG    1       -2.684  -1.396   0.287  0.00  0.00    +0.001 A 
ATOM      4  C   LIG    1       -3.494  -0.289   0.271  0.00  0.00    +0.004 A 
ATOM      5  C   LIG    1       -2.952   0.961   0.171  0.00  0.00    +0.046 A 
ATOM      6  C   LIG    1       -1.556   1.147   0.083  0.00  0.00    +0.129 A 
ENDROOT
BRANCH   1  11
ATOM      7  C   LIG    1        3.591   0.463  -0.167  0.00  0.00    +0.109 C 
ATOM      8  C   LIG    1        2.960  -0.863  -0.058  0.00  0.00    +0.216 C 
ATOM      9  N   LIG    1        1.546  -0.964   0.027  0.00  0.00    -0.252 N 
ATOM     10  H   LIG    1        1.143  -1.941   0.104  0.00  0.00    +0.158 HD
ATOM     11  C   LIG    1        0.699   0.170   0.011  0.00  0.00    +0.254 C 
ATOM     12  O   LIG    1        1.209   1.332  -0.082  0.00  0.00    -0.270 OA
ATOM     13  O   LIG    1        3.650  -1.920  -0.037  0.00  0.00    -0.276 OA
ENDBRANCH   1  11
BRANCH   6  14
ATOM     14  O   LIG    1       -1.111   2.428  -0.014  0.00  0.00    -0.506 OA
ATOM     15  H   LIG    1       -0.286   2.900  -0.086  0.00  0.00    +0.292 HD
ENDBRANCH   6  14
TORSDOF 2
