REMARK  Name = molecules/KAATUXNTWXVJKI-NLWGTHIKSA-N.pdb
REMARK                            x       y       z     vdW  Elec       q    Type
REMARK                         _______ _______ _______ _____ _____    ______ ____
ROOT
ATOM      1  C   LIG    1        0.071  -0.551   1.224  0.00  0.00    +0.308 C 
ENDROOT
BRANCH   1   2
ATOM      2  C   LIG    1       -0.788   0.155   0.226  0.00  0.00    +0.010 A 
ATOM      3  C   LIG    1       -0.566   1.473  -0.088  0.00  0.00    +0.008 A 
ATOM      4  C   LIG    1       -1.370   2.130  -1.022  0.00  0.00    +0.004 A 
ATOM      5  C   LIG    1       -2.395   1.398  -1.613  0.00  0.00    +0.046 A 
ATOM      6  C   LIG    1       -2.623   0.074  -1.302  0.00  0.00    +0.129 A 
ATOM      7  C   LIG    1       -1.806  -0.521  -0.381  0.00  0.00    +0.054 A 
BRANCH   6   8
ATOM      8  O   LIG    1       -3.638  -0.678  -1.878  0.00  0.00    -0.456 OA
BRANCH   8   9
ATOM      9  C   LIG    1       -4.883  -0.686  -1.242  0.00  0.00    +0.128 A 
ATOM     10  C   LIG    1       -5.112   0.029  -0.075  0.00  0.00    +0.046 A 
ATOM     11  C   LIG    1       -6.343   0.015   0.544  0.00  0.00    +0.004 A 
ATOM     12  C   LIG    1       -7.397  -0.710   0.030  0.00  0.00    +0.000 A 
ATOM     13  C   LIG    1       -7.168  -1.421  -1.133  0.00  0.00    +0.004 A 
ATOM     14  C   LIG    1       -5.936  -1.408  -1.754  0.00  0.00    +0.046 A 
ENDBRANCH   8   9
ENDBRANCH   6   8
ENDBRANCH   1   2
BRANCH   1  15
ATOM     15  C   LIG    1       -0.101  -2.007   1.125  0.00  0.00    +0.112 C 
ATOM     16  N   LIG    1       -0.238  -3.158   1.027  0.00  0.00    -0.192 NA
ENDBRANCH   1  15
BRANCH   1  17
ATOM     17  O   LIG    1        1.395  -0.222   0.942  0.00  0.00    -0.441 OA
BRANCH  17  18
ATOM     18  C   LIG    1        2.197   0.406   1.886  0.00  0.00    +0.313 C 
ATOM     19  O   LIG    1        1.751   0.698   3.026  0.00  0.00    -0.250 OA
BRANCH  18  20
ATOM     20  C   LIG    1        3.591   0.706   1.469  0.00  0.00    +0.111 C 
ATOM     21  C   LIG    1        4.278  -0.478   0.759  0.00  0.00    +0.035 C 
ATOM     22  C   LIG    1        3.977   0.798   0.062  0.00  0.00    -0.014 C 
ATOM     23  C   LIG    1        5.198   1.671  -0.236  0.00  0.00    +0.012 C 
ATOM     24  C   LIG    1        2.985   0.758  -1.067  0.00  0.00    +0.012 C 
BRANCH  21  25
ATOM     25  C   LIG    1        5.662  -0.775   1.234  0.00  0.00    +0.010 C 
ATOM     26  C   LIG    1        6.258  -1.853   0.742  0.00  0.00    +0.103 C 
ATOM     27 CL   LIG    1        7.881  -2.224   1.282  0.00  0.00    -0.071 Cl
ATOM     28 CL   LIG    1        5.506  -2.918  -0.414  0.00  0.00    -0.071 Cl
ENDBRANCH  21  25
ENDBRANCH  18  20
ENDBRANCH  17  18
ENDBRANCH   1  17
TORSDOF 8
