REMARK  Name = molecules/KAAZGXDPUNNEFN-UHFFFAOYSA-N.pdb
REMARK                            x       y       z     vdW  Elec       q    Type
REMARK                         _______ _______ _______ _____ _____    ______ ____
ROOT
ATOM      1  C   LIG    1       -0.326  -0.066  -0.161  0.00  0.00    +0.322 C 
ATOM      2  C   LIG    1       -1.051  -1.323  -0.121  0.00  0.00    +0.081 A 
ATOM      3  C   LIG    1       -0.347  -2.329   0.507  0.00  0.00    +0.037 A 
ATOM      4  C   LIG    1       -0.897  -3.599   0.632  0.00  0.00    +0.042 A 
ATOM      5 CL   LIG    1       -0.018  -4.881   1.423  0.00  0.00    -0.084 Cl
ATOM      6  C   LIG    1       -2.157  -3.905   0.138  0.00  0.00    +0.021 A 
ATOM      7  C   LIG    1       -2.855  -2.890  -0.489  0.00  0.00    +0.017 A 
ATOM      8  C   LIG    1       -2.313  -1.630  -0.615  0.00  0.00    +0.028 A 
ATOM      9  S   LIG    1       -3.454  -0.555  -1.466  0.00  0.00    -0.084 S 
ATOM     10  C   LIG    1       -3.229   1.084  -0.788  0.00  0.00    +0.063 A 
ATOM     11  C   LIG    1       -2.080   1.638  -0.332  0.00  0.00    +0.190 A 
ATOM     12  C   LIG    1       -2.158   2.951   0.154  0.00  0.00    +0.056 A 
ATOM     13  C   LIG    1       -3.345   3.649   0.170  0.00  0.00    +0.004 A 
ATOM     14  C   LIG    1       -4.508   3.055  -0.304  0.00  0.00    +0.001 A 
ATOM     15  C   LIG    1       -4.441   1.769  -0.783  0.00  0.00    +0.019 A 
ATOM     16  N   LIG    1       -0.776   1.134  -0.248  0.00  0.00    -0.040 NA
ENDROOT
BRANCH   1  21
ATOM     17  C   LIG    1        4.966   0.896  -0.570  0.00  0.00    +0.105 C 
ATOM     18  N   LIG    1        3.564   0.579  -0.594  0.00  0.00    -0.298 NA
ATOM     19  C   LIG    1        2.862   1.192   0.514  0.00  0.00    +0.128 C 
ATOM     20  C   LIG    1        1.796   0.240   1.051  0.00  0.00    +0.241 C 
ATOM     21  N   LIG    1        1.075  -0.255  -0.090  0.00  0.00    -0.218 N 
ATOM     22  C   LIG    1        1.802  -0.929  -1.132  0.00  0.00    +0.241 C 
ATOM     23  C   LIG    1        3.286  -0.816  -0.758  0.00  0.00    +0.128 C 
ENDBRANCH   1  21
TORSDOF 1
