REMARK  Name = molecules/KAVGMUDTWQVPDF-UHFFFAOYSA-N.pdb
REMARK                            x       y       z     vdW  Elec       q    Type
REMARK                         _______ _______ _______ _____ _____    ______ ____
ROOT
ATOM      1  C   LIG    1       -0.771  -0.507   0.232  0.00  0.00    +0.411 C 
ATOM      2  F   LIG    1       -1.606  -0.617   1.361  0.00  0.00    -0.189 F 
ATOM      3  F   LIG    1       -0.818  -1.784  -0.323  0.00  0.00    -0.189 F 
ENDROOT
BRANCH   1   4
ATOM      4  C   LIG    1       -1.466   0.411  -0.699  0.00  0.00    +0.460 C 
ATOM      5  F   LIG    1       -1.765   1.645  -0.127  0.00  0.00    -0.165 F 
ATOM      6  F   LIG    1       -2.712  -0.094  -1.100  0.00  0.00    -0.165 F 
ATOM      7  F   LIG    1       -0.778   0.631  -1.872  0.00  0.00    -0.165 F 
ENDBRANCH   1   4
BRANCH   1   8
ATOM      8  C   LIG    1        0.558  -0.134   0.733  0.00  0.00    +0.411 C 
ATOM      9  F   LIG    1        0.973  -1.169   1.589  0.00  0.00    -0.189 F 
ATOM     10  F   LIG    1        0.426   0.975   1.544  0.00  0.00    -0.189 F 
BRANCH   8  11
ATOM     11  C   LIG    1        1.661   0.074  -0.229  0.00  0.00    +0.460 C 
ATOM     12  F   LIG    1        2.794   0.404   0.548  0.00  0.00    -0.165 F 
ATOM     13  F   LIG    1        2.000  -1.013  -0.976  0.00  0.00    -0.165 F 
ATOM     14  F   LIG    1        1.504   1.177  -1.060  0.00  0.00    -0.165 F 
ENDBRANCH   8  11
ENDBRANCH   1   8
TORSDOF 3
