REMARK  Name = molecules/KBAFPSLPKGSANY-VXKWHMMOSA-N.pdb
REMARK                            x       y       z     vdW  Elec       q    Type
REMARK                         _______ _______ _______ _____ _____    ______ ____
ROOT
ATOM      1  C   LIG    1       -1.048   0.080  -0.635  0.00  0.00    +0.104 C 
ENDROOT
BRANCH   1   2
ATOM      2  C   LIG    1        0.420   0.428  -0.579  0.00  0.00    +0.311 C 
ATOM      3  O   LIG    1        1.085   0.620  -1.614  0.00  0.00    -0.251 OA
BRANCH   2   4
ATOM      4  O   LIG    1        1.058   0.542   0.643  0.00  0.00    -0.463 OA
BRANCH   4   5
ATOM      5  C   LIG    1        2.436   0.867   0.791  0.00  0.00    +0.247 C 
BRANCH   5   6
ATOM      6  C   LIG    1        3.325  -0.136   0.132  0.00  0.00    +0.125 C 
BRANCH   6   7
ATOM      7  N   LIG    1        4.706   0.218   0.288  0.00  0.00    -0.300 NA
BRANCH   7   8
ATOM      8  C   LIG    1        5.156   0.382   1.642  0.00  0.00    +0.081 C 
ATOM      9  C   LIG    1        5.171  -0.899   2.422  0.00  0.00    +0.020 C 
ENDBRANCH   7   8
BRANCH   7  10
ATOM     10  C   LIG    1        5.565  -0.721  -0.439  0.00  0.00    +0.081 C 
ATOM     11  C   LIG    1        6.996  -0.280  -0.263  0.00  0.00    +0.020 C 
ENDBRANCH   7  10
ENDBRANCH   6   7
ENDBRANCH   5   6
ENDBRANCH   4   5
ENDBRANCH   2   4
ENDBRANCH   1   2
BRANCH   1  12
ATOM     12  C   LIG    1       -1.178  -1.244   0.088  0.00  0.00    +0.050 C 
BRANCH  12  13
ATOM     13  C   LIG    1       -2.559  -1.672   0.302  0.00  0.00    -0.039 A 
ATOM     14  C   LIG    1       -3.154  -1.440   1.525  0.00  0.00    +0.004 A 
ATOM     15  C   LIG    1       -4.459  -1.820   1.686  0.00  0.00    +0.001 A 
ATOM     16  C   LIG    1       -5.196  -2.420   0.688  0.00  0.00    +0.008 A 
ATOM     17  C   LIG    1       -4.599  -2.652  -0.533  0.00  0.00    -0.018 A 
ATOM     18  C   LIG    1       -5.309  -3.253  -1.532  0.00  0.00    +0.008 A 
ATOM     19  C   LIG    1       -4.707  -3.495  -2.752  0.00  0.00    +0.001 A 
ATOM     20  C   LIG    1       -3.385  -3.117  -2.931  0.00  0.00    +0.001 A 
ATOM     21  C   LIG    1       -2.647  -2.510  -1.944  0.00  0.00    +0.009 A 
ATOM     22  C   LIG    1       -3.261  -2.274  -0.732  0.00  0.00    -0.015 A 
ENDBRANCH  12  13
ENDBRANCH   1  12
BRANCH   1  23
ATOM     23  C   LIG    1       -1.730   1.193   0.159  0.00  0.00    +0.046 C 
BRANCH  23  24
ATOM     24  C   LIG    1       -1.610   2.516  -0.547  0.00  0.00    +0.119 C 
ATOM     25  C   LIG    1       -2.303   3.577   0.285  0.00  0.00    +0.034 C 
ATOM     26  C   LIG    1       -2.657   4.594  -0.781  0.00  0.00    +0.031 C 
ATOM     27  C   LIG    1       -2.302   3.897  -2.065  0.00  0.00    +0.160 C 
ATOM     28  O   LIG    1       -2.229   2.524  -1.781  0.00  0.00    -0.377 OA
ENDBRANCH  23  24
ENDBRANCH   1  23
TORSDOF 11
