REMARK  Name = molecules/KBEZZLAAKIIPFK-NJAFHUGGSA-N.pdb
REMARK                            x       y       z     vdW  Elec       q    Type
REMARK                         _______ _______ _______ _____ _____    ______ ____
ROOT
ATOM      1  C   LIG    1       -2.332   2.750   1.320  0.00  0.00    +0.105 C 
ATOM      2  N   LIG    1       -1.328   1.776   1.011  0.00  0.00    -0.302 NA
ATOM      3  C   LIG    1       -1.340   0.762   2.014  0.00  0.00    +0.085 C 
ATOM      4  C   LIG    1       -0.375  -0.368   1.813  0.00  0.00    +0.027 C 
ATOM      5  C   LIG    1       -0.234  -0.719   0.321  0.00  0.00    +0.001 C 
ATOM      6  C   LIG    1       -0.034  -2.171   0.131  0.00  0.00    +0.012 C 
ATOM      7  C   LIG    1       -1.083  -2.972  -0.516  0.00  0.00    +0.001 C 
ATOM      8  C   LIG    1       -2.221  -2.291  -1.162  0.00  0.00    +0.000 C 
ATOM      9  C   LIG    1       -1.789  -0.896  -1.584  0.00  0.00    +0.006 C 
ATOM     10  C   LIG    1        0.973   0.007  -0.128  0.00  0.00    -0.037 A 
ATOM     11  C   LIG    1        2.198  -0.542   0.156  0.00  0.00    +0.007 A 
ATOM     12  C   LIG    1        3.384   0.090  -0.240  0.00  0.00    -0.050 A 
ATOM     13  C   LIG    1        4.706  -0.513   0.072  0.00  0.00    +0.044 C 
ATOM     14  C   LIG    1        3.326   1.280  -0.925  0.00  0.00    +0.003 A 
ATOM     15  C   LIG    1        2.079   1.836  -1.212  0.00  0.00    +0.004 A 
ATOM     16  C   LIG    1        0.916   1.195  -0.811  0.00  0.00    -0.042 A 
ATOM     17  C   LIG    1       -0.369   1.863  -1.158  0.00  0.00    +0.054 C 
ATOM     18  C   LIG    1       -1.507  -0.188  -0.295  0.00  0.00    +0.017 C 
ATOM     19  C   LIG    1       -1.511   1.291  -0.341  0.00  0.00    +0.065 C 
ENDROOT
TORSDOF 0
