REMARK  Name = molecules/KCLANYCVBBTKTO-UHFFFAOYSA-N.pdb
REMARK                            x       y       z     vdW  Elec       q    Type
REMARK                         _______ _______ _______ _____ _____    ______ ____
ROOT
ATOM      1  C   LIG    1        1.235   0.654   0.433  0.00  0.00    +0.061 A 
ATOM      2  C   LIG    1        2.045   1.675   0.878  0.00  0.00    +0.041 A 
ATOM      3  C   LIG    1        3.366   1.528   1.179  0.00  0.00    +0.068 A 
ATOM      4  C   LIG    1        3.967   0.266   1.035  0.00  0.00    +0.141 A 
ATOM      5  C   LIG    1        3.170  -0.751   0.595  0.00  0.00    +0.048 A 
ATOM      6  C   LIG    1        1.819  -0.579   0.293  0.00  0.00    +0.018 A 
ENDROOT
BRANCH   3   7
ATOM      7  N   LIG    1        4.123   2.641   1.627  0.00  0.00    -0.355 N 
ATOM      8  H   LIG    1        4.211   2.813   2.644  0.00  0.00    +0.142 HD
ATOM      9  H   LIG    1        4.576   3.258   0.936  0.00  0.00    +0.142 HD
ENDBRANCH   3   7
BRANCH   1  10
ATOM     10  C   LIG    1       -0.148   0.892   0.109  0.00  0.00    +0.339 C 
ATOM     11  O   LIG    1       -0.589   2.065   0.145  0.00  0.00    -0.245 OA
BRANCH  10  12
ATOM     12  O   LIG    1       -1.065  -0.111  -0.250  0.00  0.00    -0.460 OA
BRANCH  12  13
ATOM     13  C   LIG    1       -2.413   0.271  -0.560  0.00  0.00    +0.248 C 
BRANCH  13  14
ATOM     14  C   LIG    1       -3.311  -0.894  -0.777  0.00  0.00    +0.125 C 
BRANCH  14  15
ATOM     15  N   LIG    1       -4.647  -0.525  -1.085  0.00  0.00    -0.300 NA
BRANCH  15  16
ATOM     16  C   LIG    1       -5.097   0.751  -0.715  0.00  0.00    +0.081 C 
ATOM     17  C   LIG    1       -5.272   0.986   0.769  0.00  0.00    +0.020 C 
ENDBRANCH  15  16
BRANCH  15  18
ATOM     18  C   LIG    1       -5.548  -1.604  -1.161  0.00  0.00    +0.081 C 
ATOM     19  C   LIG    1       -6.981  -1.208  -1.394  0.00  0.00    +0.020 C 
ENDBRANCH  15  18
ENDBRANCH  14  15
ENDBRANCH  13  14
ENDBRANCH  12  13
ENDBRANCH  10  12
ENDBRANCH   1  10
BRANCH   4  20
ATOM     20  O   LIG    1        5.266   0.091   1.334  0.00  0.00    -0.490 OA
BRANCH  20  21
ATOM     21  C   LIG    1        6.109  -1.002   1.213  0.00  0.00    +0.229 C 
BRANCH  21  22
ATOM     22  C   LIG    1        6.295  -1.294  -0.278  0.00  0.00    +0.038 C 
ATOM     23  C   LIG    1        6.923  -0.058  -0.913  0.00  0.00    +0.007 C 
ENDBRANCH  21  22
ENDBRANCH  20  21
ENDBRANCH   4  20
TORSDOF 11
