REMARK  Name = molecules/KCXVZYZYPLLWCC-UHFFFAOYSA-N.pdb
REMARK                            x       y       z     vdW  Elec       q    Type
REMARK                         _______ _______ _______ _____ _____    ______ ____
ROOT
ATOM      1  C   LIG    1       -0.388   0.289   0.569  0.00  0.00    +0.101 C 
ENDROOT
BRANCH   1   2
ATOM      2  N   LIG    1       -1.746  -0.251   0.659  0.00  0.00    -0.281 NA
BRANCH   2   3
ATOM      3  C   LIG    1       -2.667   0.760   1.098  0.00  0.00    +0.206 C 
BRANCH   3   4
ATOM      4  C   LIG    1       -2.953   1.829   0.150  0.00  0.00    +0.319 C 
ATOM      5  O   LIG    1       -2.477   1.838  -0.997  0.00  0.00    -0.250 OA
BRANCH   4   6
ATOM      6  O   LIG    1       -3.779   2.876   0.525  0.00  0.00    -0.480 OA
ATOM      7  H   LIG    1       -3.523   3.846   0.517  0.00  0.00    +0.295 HD
ENDBRANCH   4   6
ENDBRANCH   3   4
ENDBRANCH   2   3
BRANCH   2   8
ATOM      8  C   LIG    1       -2.110  -1.031  -0.448  0.00  0.00    +0.206 C 
BRANCH   8   9
ATOM      9  C   LIG    1       -3.420  -1.675  -0.280  0.00  0.00    +0.319 C 
ATOM     10  O   LIG    1       -4.102  -1.616   0.763  0.00  0.00    -0.250 OA
BRANCH   9  11
ATOM     11  O   LIG    1       -4.000  -2.422  -1.318  0.00  0.00    -0.480 OA
ATOM     12  H   LIG    1       -4.927  -2.779  -1.299  0.00  0.00    +0.295 HD
ENDBRANCH   9  11
ENDBRANCH   8   9
ENDBRANCH   2   8
ENDBRANCH   1   2
BRANCH   1  13
ATOM     13  C   LIG    1        0.604  -0.673   0.091  0.00  0.00    +0.101 C 
BRANCH  13  14
ATOM     14  N   LIG    1        1.972  -0.261   0.019  0.00  0.00    -0.281 NA
BRANCH  14  15
ATOM     15  C   LIG    1        2.825  -1.391   0.150  0.00  0.00    +0.206 C 
BRANCH  15  16
ATOM     16  C   LIG    1        4.256  -1.165   0.203  0.00  0.00    +0.319 C 
ATOM     17  O   LIG    1        4.820  -0.054   0.215  0.00  0.00    -0.250 OA
BRANCH  16  18
ATOM     18  O   LIG    1        5.098  -2.288   0.245  0.00  0.00    -0.480 OA
ATOM     19  H   LIG    1        5.214  -2.880  -0.586  0.00  0.00    +0.295 HD
ENDBRANCH  16  18
ENDBRANCH  15  16
ENDBRANCH  14  15
BRANCH  14  20
ATOM     20  C   LIG    1        2.318   0.731  -0.916  0.00  0.00    +0.206 C 
BRANCH  20  21
ATOM     21  C   LIG    1        1.948   2.118  -0.595  0.00  0.00    +0.319 C 
ATOM     22  O   LIG    1        1.899   3.039  -1.452  0.00  0.00    -0.250 OA
BRANCH  21  23
ATOM     23  O   LIG    1        1.633   2.470   0.722  0.00  0.00    -0.480 OA
ATOM     24  H   LIG    1        2.368   2.908   1.300  0.00  0.00    +0.295 HD
ENDBRANCH  21  23
ENDBRANCH  20  21
ENDBRANCH  14  20
ENDBRANCH  13  14
ENDBRANCH   1  13
TORSDOF 15
