REMARK  Name = molecules/KDLRVYVGXIQJDK-AWPVFWJPSA-N.pdb
REMARK                            x       y       z     vdW  Elec       q    Type
REMARK                         _______ _______ _______ _____ _____    ______ ____
ROOT
ATOM      1  C   LIG    1       -1.935   0.081   0.360  0.00  0.00    +0.122 C 
ENDROOT
BRANCH   1   2
ATOM      2  C   LIG    1       -2.907  -0.998   0.014  0.00  0.00    +0.172 C 
ATOM      3  O   LIG    1       -4.195  -0.482   0.122  0.00  0.00    -0.356 OA
ATOM      4  C   LIG    1       -4.652   0.094  -1.042  0.00  0.00    +0.207 C 
ATOM      5  C   LIG    1       -4.727  -0.940  -2.129  0.00  0.00    +0.184 C 
ATOM      6  C   LIG    1       -3.274  -1.277  -2.472  0.00  0.00    +0.177 C 
ATOM      7  C   LIG    1       -2.627  -1.771  -1.217  0.00  0.00    +0.176 C 
BRANCH   4   8
ATOM      8  S   LIG    1       -6.267   0.857  -0.708  0.00  0.00    -0.131 S 
ATOM      9  C   LIG    1       -6.082   2.255   0.431  0.00  0.00    +0.087 C 
ENDBRANCH   4   8
BRANCH   5  10
ATOM     10  O   LIG    1       -5.408  -2.078  -1.762  0.00  0.00    -0.386 OA
ATOM     11  H   LIG    1       -5.176  -2.801  -2.382  0.00  0.00    +0.210 HD
ENDBRANCH   5  10
BRANCH   6  12
ATOM     12  O   LIG    1       -2.630  -0.198  -3.026  0.00  0.00    -0.386 OA
ATOM     13  H   LIG    1       -3.217   0.550  -3.278  0.00  0.00    +0.210 HD
ENDBRANCH   6  12
BRANCH   7  14
ATOM     14  O   LIG    1       -1.247  -1.831  -1.413  0.00  0.00    -0.387 OA
ATOM     15  H   LIG    1       -0.938  -2.768  -1.229  0.00  0.00    +0.210 HD
ENDBRANCH   7  14
ENDBRANCH   1   2
BRANCH   1  16
ATOM     16  N   LIG    1       -0.562  -0.305   0.274  0.00  0.00    -0.307 N 
ATOM     17  H   LIG    1       -0.267  -1.157   0.801  0.00  0.00    +0.149 HD
ATOM     18  C   LIG    1        0.440   0.371  -0.467  0.00  0.00    +0.231 C 
ATOM     19  O   LIG    1        0.133   1.419  -1.126  0.00  0.00    -0.274 OA
BRANCH  18  20
ATOM     20  C   LIG    1        1.827  -0.059  -0.526  0.00  0.00    +0.143 C 
ATOM     21  C   LIG    1        2.530  -0.259   0.768  0.00  0.00    +0.033 C 
ATOM     22  C   LIG    1        4.002  -0.021   0.454  0.00  0.00    +0.005 C 
ATOM     23  C   LIG    1        3.987   0.204  -1.030  0.00  0.00    +0.088 C 
ATOM     24  N   LIG    1        2.698   0.834  -1.246  0.00  0.00    -0.294 NA
ATOM     25  C   LIG    1        2.765   2.149  -0.635  0.00  0.00    +0.105 C 
BRANCH  22  26
ATOM     26  C   LIG    1        4.750  -1.276   0.837  0.00  0.00    +0.004 C 
BRANCH  26  27
ATOM     27  C   LIG    1        6.217  -1.227   0.603  0.00  0.00    -0.003 C 
ATOM     28  C   LIG    1        6.918  -0.137   1.373  0.00  0.00    +0.004 C 
ENDBRANCH  26  27
ENDBRANCH  22  26
ENDBRANCH  18  20
ENDBRANCH   1  16
BRANCH   1  29
ATOM     29  C   LIG    1       -2.301   0.556   1.764  0.00  0.00    +0.100 C 
ATOM     30 CL   LIG    1       -2.169  -0.771   2.934  0.00  0.00    -0.120 Cl
ATOM     31  C   LIG    1       -1.456   1.753   2.158  0.00  0.00    +0.026 C 
ENDBRANCH   1  29
TORSDOF 10
