REMARK  Name = molecules/KDULJHFMZBRAHO-WMHQRMGPSA-N.pdb
REMARK                            x       y       z     vdW  Elec       q    Type
REMARK                         _______ _______ _______ _____ _____    ______ ____
ROOT
ATOM      1  C   LIG    1        0.510   0.905   0.220  0.00  0.00    +0.004 C 
ENDROOT
BRANCH   1   2
ATOM      2  C   LIG    1        2.002   0.900   0.124  0.00  0.00    -0.007 C 
ATOM      3  C   LIG    1        2.608   1.237   1.509  0.00  0.00    +0.004 C 
ATOM      4  C   LIG    1        3.872   0.410   1.627  0.00  0.00    +0.004 C 
ATOM      5  C   LIG    1        4.120   0.041   0.233  0.00  0.00    -0.000 C 
ATOM      6  C   LIG    1        4.782  -1.268  -0.042  0.00  0.00    +0.078 C 
ATOM      7  C   LIG    1        4.218  -1.542  -1.396  0.00  0.00    +0.134 C 
ATOM      8  C   LIG    1        3.008  -0.688  -1.612  0.00  0.00    +0.078 C 
ATOM      9  O   LIG    1        4.687  -2.334  -2.174  0.00  0.00    -0.297 OA
ATOM     10  C   LIG    1        2.676  -0.349  -0.191  0.00  0.00    +0.003 C 
ENDBRANCH   1   2
BRANCH   1  11
ATOM     11  C   LIG    1       -0.075   0.471  -1.088  0.00  0.00    +0.000 C 
BRANCH  11  12
ATOM     12  C   LIG    1       -1.598   0.490  -1.063  0.00  0.00    +0.003 C 
BRANCH  12  13
ATOM     13  C   LIG    1       -2.143  -0.432  -0.005  0.00  0.00    +0.031 C 
BRANCH  13  14
ATOM     14  C   LIG    1       -3.650  -0.360  -0.044  0.00  0.00    +0.118 C 
BRANCH  14  15
ATOM     15  C   LIG    1       -4.270  -1.271   1.005  0.00  0.00    +0.028 C 
ATOM     16  C   LIG    1       -3.834  -0.892   2.386  0.00  0.00    +0.006 C 
ENDBRANCH  14  15
BRANCH  14  17
ATOM     17  O   LIG    1       -4.047   0.924   0.249  0.00  0.00    -0.380 OA
ATOM     18  C   LIG    1       -4.786   1.538  -0.733  0.00  0.00    +0.194 C 
ENDBRANCH  14  17
ENDBRANCH  13  14
ENDBRANCH  12  13
ENDBRANCH  11  12
ENDBRANCH   1  11
TORSDOF 7
