REMARK  Name = molecules/KDZPIXVLPYVHDO-UHFFFAOYSA-N.pdb
REMARK                            x       y       z     vdW  Elec       q    Type
REMARK                         _______ _______ _______ _____ _____    ______ ____
ROOT
ATOM      1  C   LIG    1        2.424   4.582   0.621  0.00  0.00    +0.045 C 
ATOM      2  C   LIG    1        0.963   4.429   0.732  0.00  0.00    -0.033 A 
ATOM      3  C   LIG    1        0.130   5.382   1.268  0.00  0.00    +0.096 A 
ATOM      4  C   LIG    1       -1.236   5.197   1.347  0.00  0.00    +0.337 A 
ATOM      5  O   LIG    1       -1.987   6.089   1.844  0.00  0.00    -0.245 OA
ATOM      6  O   LIG    1       -1.729   4.076   0.894  0.00  0.00    -0.422 OA
ATOM      7  C   LIG    1       -0.983   3.132   0.372  0.00  0.00    +0.143 A 
ATOM      8  C   LIG    1       -1.551   1.963  -0.093  0.00  0.00    +0.096 A 
ATOM      9  C   LIG    1       -0.851   0.929  -0.649  0.00  0.00    +0.165 A 
ATOM     10  C   LIG    1        0.574   1.062  -0.760  0.00  0.00    +0.163 A 
ATOM     11  C   LIG    1        1.117   2.245  -0.285  0.00  0.00    +0.061 A 
ATOM     12  C   LIG    1        0.388   3.265   0.269  0.00  0.00    +0.024 A 
ENDROOT
BRANCH  10  13
ATOM     13  O   LIG    1        1.241   0.093  -1.278  0.00  0.00    -0.487 OA
BRANCH  13  14
ATOM     14  C   LIG    1        1.994  -0.821  -1.779  0.00  0.00    +0.244 C 
BRANCH  14  15
ATOM     15  C   LIG    1        3.034  -1.524  -0.926  0.00  0.00    +0.125 C 
BRANCH  15  16
ATOM     16  N   LIG    1        4.020  -0.684  -0.332  0.00  0.00    -0.300 NA
BRANCH  16  17
ATOM     17  C   LIG    1        3.527  -0.333   1.010  0.00  0.00    +0.081 C 
ATOM     18  C   LIG    1        3.538  -1.494   1.964  0.00  0.00    +0.020 C 
ENDBRANCH  16  17
BRANCH  16  19
ATOM     19  C   LIG    1        5.235  -1.472  -0.005  0.00  0.00    +0.081 C 
ATOM     20  C   LIG    1        5.919  -1.896  -1.286  0.00  0.00    +0.020 C 
ENDBRANCH  16  19
ENDBRANCH  15  16
ENDBRANCH  14  15
ENDBRANCH  13  14
ENDBRANCH  10  13
BRANCH   9  21
ATOM     21  O   LIG    1       -1.419  -0.188  -1.085  0.00  0.00    -0.487 OA
BRANCH  21  22
ATOM     22  C   LIG    1       -2.568  -0.868  -1.228  0.00  0.00    +0.244 C 
BRANCH  22  23
ATOM     23  C   LIG    1       -3.182  -1.154   0.119  0.00  0.00    +0.125 C 
BRANCH  23  24
ATOM     24  N   LIG    1       -4.402  -1.909   0.046  0.00  0.00    -0.300 NA
BRANCH  24  25
ATOM     25  C   LIG    1       -4.221  -3.246  -0.450  0.00  0.00    +0.081 C 
ATOM     26  C   LIG    1       -3.419  -3.992   0.623  0.00  0.00    +0.020 C 
ENDBRANCH  24  25
BRANCH  24  27
ATOM     27  C   LIG    1       -5.502  -1.207  -0.550  0.00  0.00    +0.081 C 
ATOM     28  C   LIG    1       -5.916  -0.082   0.372  0.00  0.00    +0.020 C 
ENDBRANCH  24  27
ENDBRANCH  23  24
ENDBRANCH  22  23
ENDBRANCH  21  22
ENDBRANCH   9  21
TORSDOF 12
