REMARK  Name = molecules/KEJXLQUPYHWCNM-UHFFFAOYSA-N.pdb
REMARK                            x       y       z     vdW  Elec       q    Type
REMARK                         _______ _______ _______ _____ _____    ______ ____
ROOT
ATOM      1  C   LIG    1       -0.775  -0.868  -0.994  0.00  0.00    +0.163 A 
ATOM      2  C   LIG    1       -0.355  -0.333   0.196  0.00  0.00    +0.050 A 
ATOM      3  C   LIG    1        0.922  -0.589   0.707  0.00  0.00    +0.008 A 
ATOM      4  C   LIG    1        1.804  -1.396   0.017  0.00  0.00    -0.033 A 
ATOM      5  C   LIG    1        1.364  -1.928  -1.183  0.00  0.00    +0.053 A 
ATOM      6  C   LIG    1        0.104  -1.675  -1.685  0.00  0.00    +0.162 A 
ENDROOT
BRANCH   6   7
ATOM      7  O   LIG    1       -0.310  -2.222  -2.890  0.00  0.00    -0.491 OA
ATOM      8  C   LIG    1        0.591  -3.050  -3.600  0.00  0.00    +0.277 C 
ENDBRANCH   6   7
BRANCH   1   9
ATOM      9  O   LIG    1       -2.012  -0.612  -1.470  0.00  0.00    -0.479 OA
BRANCH   9  10
ATOM     10  C   LIG    1       -3.046   0.140  -0.954  0.00  0.00    +0.324 C 
BRANCH  10  11
ATOM     11  C   LIG    1       -3.595  -0.284   0.334  0.00  0.00    +0.253 C 
ATOM     12  O   LIG    1       -3.169  -1.310   0.925  0.00  0.00    -0.272 OA
ATOM     13  N   LIG    1       -4.642   0.503   0.918  0.00  0.00    -0.299 N 
BRANCH  13  14
ATOM     14  C   LIG    1       -5.231   0.133   2.202  0.00  0.00    +0.104 C 
ATOM     15  C   LIG    1       -4.482   0.787   3.342  0.00  0.00    +0.024 C 
ENDBRANCH  13  14
BRANCH  13  16
ATOM     16  C   LIG    1       -5.143   1.675   0.263  0.00  0.00    +0.104 C 
ATOM     17  C   LIG    1       -6.301   1.359  -0.663  0.00  0.00    +0.024 C 
ENDBRANCH  13  16
ENDBRANCH  10  11
ENDBRANCH   9  10
ENDBRANCH   1   9
BRANCH   4  18
ATOM     18  C   LIG    1        3.165  -1.680   0.542  0.00  0.00    +0.155 C 
BRANCH  18  19
ATOM     19  C   LIG    1        4.151  -0.677   0.065  0.00  0.00    +0.311 C 
ATOM     20  O   LIG    1        3.745   0.244  -0.686  0.00  0.00    -0.250 OA
BRANCH  19  21
ATOM     21  O   LIG    1        5.484  -0.707   0.404  0.00  0.00    -0.464 OA
BRANCH  21  22
ATOM     22  C   LIG    1        6.469   0.211  -0.011  0.00  0.00    +0.232 C 
BRANCH  22  23
ATOM     23  C   LIG    1        6.074   1.580   0.497  0.00  0.00    +0.038 C 
ATOM     24  C   LIG    1        7.088   2.634   0.097  0.00  0.00    +0.007 C 
ENDBRANCH  22  23
ENDBRANCH  21  22
ENDBRANCH  19  21
ENDBRANCH  18  19
ENDBRANCH   4  18
TORSDOF 11
