REMARK  Name = molecules/KEMXXQOFIRIICG-LLVKDONJSA-N.pdb
REMARK                            x       y       z     vdW  Elec       q    Type
REMARK                         _______ _______ _______ _____ _____    ______ ____
ROOT
ATOM      1  C   LIG    1        0.781  -0.610  -1.035  0.00  0.00    -0.016 A 
ATOM      2  C   LIG    1        1.788  -0.303  -0.145  0.00  0.00    +0.033 A 
ATOM      3  C   LIG    1        3.085  -0.032  -0.545  0.00  0.00    +0.077 A 
ATOM      4  C   LIG    1        3.316  -0.086  -1.918  0.00  0.00    +0.138 A 
ATOM      5  C   LIG    1        2.294  -0.398  -2.825  0.00  0.00    +0.047 A 
ATOM      6  C   LIG    1        1.035  -0.657  -2.377  0.00  0.00    +0.010 A 
ENDROOT
BRANCH   3   7
ATOM      7  N   LIG    1        4.109   0.266   0.394  0.00  0.00    -0.267 N 
ATOM      8  C   LIG    1        4.023   0.388   1.768  0.00  0.00    +0.301 C 
ATOM      9  N   LIG    1        5.202   0.693   2.541  0.00  0.00    -0.313 N 
ATOM     10  H   LIG    1        5.349   1.593   3.032  0.00  0.00    +0.146 HD
ATOM     11  H   LIG    1        5.981  -0.027   2.632  0.00  0.00    +0.146 HD
ATOM     12  O   LIG    1        2.987   0.254   2.423  0.00  0.00    -0.253 OA
ATOM     13  H   LIG    1        5.090   0.413  -0.032  0.00  0.00    +0.156 HD
ENDBRANCH   3   7
BRANCH   4  14
ATOM     14  O   LIG    1        4.574   0.171  -2.401  0.00  0.00    -0.505 OA
ATOM     15  H   LIG    1        5.372   0.402  -1.883  0.00  0.00    +0.292 HD
ENDBRANCH   4  14
BRANCH   1  16
ATOM     16  C   LIG    1       -0.627  -0.906  -0.583  0.00  0.00    +0.158 C 
BRANCH  16  17
ATOM     17  O   LIG    1       -0.992  -2.057  -1.295  0.00  0.00    -0.386 OA
ATOM     18  H   LIG    1       -0.208  -2.561  -1.573  0.00  0.00    +0.210 HD
ENDBRANCH  16  17
BRANCH  16  19
ATOM     19  C   LIG    1       -1.466   0.279  -0.959  0.00  0.00    +0.117 C 
BRANCH  19  20
ATOM     20  N   LIG    1       -2.844   0.211  -0.734  0.00  0.00    -0.309 NA
ATOM     21  H   LIG    1       -3.479   0.016  -1.498  0.00  0.00    +0.123 HD
BRANCH  20  22
ATOM     22  C   LIG    1       -3.342   0.252   0.587  0.00  0.00    +0.011 C 
ATOM     23  C   LIG    1       -2.645   1.340   1.382  0.00  0.00    +0.027 C 
ATOM     24  C   LIG    1       -3.224  -1.093   1.259  0.00  0.00    +0.027 C 
ATOM     25  C   LIG    1       -4.840   0.644   0.600  0.00  0.00    +0.027 C 
ENDBRANCH  20  22
ENDBRANCH  19  20
ENDBRANCH  16  19
ENDBRANCH   1  16
TORSDOF 7
