REMARK  Name = molecules/KFZMXOLSYABOSE-UHFFFAOYSA-O.pdb
REMARK                            x       y       z     vdW  Elec       q    Type
REMARK                         _______ _______ _______ _____ _____    ______ ____
ROOT
ATOM      1  C   LIG    1       -1.060   0.019   0.369  0.00  0.00    +0.095 C 
ENDROOT
BRANCH   1   2
ATOM      2  C   LIG    1       -1.986  -1.169   0.294  0.00  0.00    -0.028 A 
ATOM      3  C   LIG    1       -1.805  -2.134   1.265  0.00  0.00    +0.005 A 
ATOM      4  C   LIG    1       -2.588  -3.269   1.312  0.00  0.00    +0.000 A 
ATOM      5  C   LIG    1       -3.566  -3.412   0.353  0.00  0.00    +0.000 A 
ATOM      6  C   LIG    1       -3.741  -2.444  -0.613  0.00  0.00    +0.000 A 
ATOM      7  C   LIG    1       -2.951  -1.314  -0.649  0.00  0.00    +0.005 A 
ENDBRANCH   1   2
BRANCH   1   8
ATOM      8  C   LIG    1       -1.489   1.095  -0.533  0.00  0.00    -0.028 A 
ATOM      9  C   LIG    1       -2.449   2.023  -0.157  0.00  0.00    +0.005 A 
ATOM     10  C   LIG    1       -2.859   3.036  -0.997  0.00  0.00    +0.000 A 
ATOM     11  C   LIG    1       -2.325   3.168  -2.261  0.00  0.00    +0.000 A 
ATOM     12  C   LIG    1       -1.374   2.263  -2.661  0.00  0.00    +0.000 A 
ATOM     13  C   LIG    1       -0.975   1.254  -1.802  0.00  0.00    +0.005 A 
ENDBRANCH   1   8
BRANCH   1  14
ATOM     14  C   LIG    1       -1.164   0.542   1.756  0.00  0.00    +0.225 C 
ATOM     15  O   LIG    1       -1.908   0.020   2.626  0.00  0.00    -0.275 OA
ATOM     16  N   LIG    1       -0.415   1.674   2.169  0.00  0.00    -0.328 N 
ATOM     17  H   LIG    1        0.158   1.609   3.031  0.00  0.00    +0.145 HD
ATOM     18  H   LIG    1       -0.412   2.570   1.647  0.00  0.00    +0.145 HD
ENDBRANCH   1  14
BRANCH   1  19
ATOM     19  C   LIG    1        0.298  -0.516   0.045  0.00  0.00    +0.007 C 
BRANCH  19  20
ATOM     20  C   LIG    1        1.422   0.460   0.153  0.00  0.00    -0.074 C 
BRANCH  20  21
ATOM     21  N   LIG    1        2.645  -0.273  -0.206  0.00  0.00    +0.376 N 
ATOM     22  C   LIG    1        2.739  -1.534   0.459  0.00  0.00    -0.092 C 
ATOM     23  C   LIG    1        2.681  -0.529  -1.632  0.00  0.00    -0.092 C 
BRANCH  21  24
ATOM     24  C   LIG    1        3.768   0.560   0.107  0.00  0.00    -0.079 C 
ATOM     25  C   LIG    1        4.031   0.762   1.562  0.00  0.00    -0.016 C 
ENDBRANCH  21  24
ENDBRANCH  20  21
ENDBRANCH  19  20
ENDBRANCH   1  19
TORSDOF 7
