REMARK  Name = molecules/KGBXLFKZBHKPEV-UHFFFAOYSA-N.pdb
REMARK                            x       y       z     vdW  Elec       q    Type
REMARK                         _______ _______ _______ _____ _____    ______ ____
ROOT
ATOM      1  B   LIG    1       -0.062  -0.004   0.046  0.00  0.00    +0.000 B 
ENDROOT
BRANCH   1   2
ATOM      2  O   LIG    1       -0.675   1.331   0.231  0.00  0.00    +0.000 OA
ATOM      3  H   LIG    1       -0.276   1.957  -0.423  0.00  0.00    +0.000 HD
ENDBRANCH   1   2
BRANCH   1   4
ATOM      4  O   LIG    1        1.193  -0.321   0.739  0.00  0.00    +0.000 OA
ATOM      5  H   LIG    1        1.974  -0.292   0.139  0.00  0.00    +0.000 HD
ENDBRANCH   1   4
BRANCH   1   6
ATOM      6  O   LIG    1       -1.064  -1.089   0.051  0.00  0.00    +0.000 OA
ATOM      7  H   LIG    1       -1.091  -1.582  -0.782  0.00  0.00    +0.000 HD
ENDBRANCH   1   6
TORSDOF 3
