REMARK  Name = molecules/KGFYHTZWPPHNLQ-AWEZNQCLSA-N.pdb
REMARK                            x       y       z     vdW  Elec       q    Type
REMARK                         _______ _______ _______ _____ _____    ______ ____
ROOT
ATOM      1  N   LIG    1        0.113  -0.182  -1.266  0.00  0.00    -0.234 N 
ATOM      2  C   LIG    1        1.481  -0.102  -0.820  0.00  0.00    +0.163 C 
ATOM      3  C   LIG    1        2.129  -1.266  -1.496  0.00  0.00    +0.213 C 
ATOM      4  O   LIG    1        1.359  -1.415  -2.704  0.00  0.00    -0.444 OA
ATOM      5  C   LIG    1        0.215  -0.672  -2.627  0.00  0.00    +0.408 C 
ATOM      6  O   LIG    1       -0.584  -0.464  -3.566  0.00  0.00    -0.226 OA
ENDROOT
BRANCH   1  10
ATOM      7  C   LIG    1       -3.624   0.677   0.605  0.00  0.00    +0.037 A 
ATOM      8  C   LIG    1       -2.591   1.585   0.639  0.00  0.00    +0.025 A 
ATOM      9  C   LIG    1       -1.366   1.307   0.032  0.00  0.00    +0.025 A 
ATOM     10  C   LIG    1       -1.121   0.122  -0.628  0.00  0.00    +0.040 A 
ATOM     11  C   LIG    1       -2.176  -0.792  -0.656  0.00  0.00    +0.025 A 
ATOM     12  C   LIG    1       -3.384  -0.523  -0.061  0.00  0.00    +0.025 A 
BRANCH   7  17
ATOM     13  C   LIG    1       -7.018  -0.111   1.497  0.00  0.00    +0.180 C 
ATOM     14  O   LIG    1       -7.541   1.071   1.994  0.00  0.00    -0.369 OA
ATOM     15  C   LIG    1       -7.117   2.154   1.234  0.00  0.00    +0.256 C 
ATOM     16  C   LIG    1       -5.621   2.120   1.076  0.00  0.00    +0.246 C 
ATOM     17  N   LIG    1       -4.902   0.894   1.189  0.00  0.00    -0.267 N 
ATOM     18  O   LIG    1       -4.979   3.158   0.844  0.00  0.00    -0.273 OA
ATOM     19  C   LIG    1       -5.546  -0.170   1.935  0.00  0.00    +0.142 C 
ENDBRANCH   7  17
ENDBRANCH   1  10
BRANCH   3  20
ATOM     20  C   LIG    1        3.531  -1.054  -1.946  0.00  0.00    +0.150 C 
BRANCH  20  21
ATOM     21  N   LIG    1        4.518  -0.893  -0.927  0.00  0.00    -0.307 N 
ATOM     22  H   LIG    1        4.257  -0.925   0.077  0.00  0.00    +0.149 HD
ATOM     23  C   LIG    1        5.851  -0.688  -1.358  0.00  0.00    +0.251 C 
ATOM     24  O   LIG    1        6.153  -0.643  -2.597  0.00  0.00    -0.270 OA
BRANCH  23  25
ATOM     25  C   LIG    1        6.953  -0.514  -0.419  0.00  0.00    +0.075 A 
ATOM     26  C   LIG    1        6.951  -0.541   0.944  0.00  0.00    +0.022 A 
ATOM     27  C   LIG    1        8.116  -0.361   1.577  0.00  0.00    +0.028 A 
ATOM     28  C   LIG    1        9.229  -0.161   0.807  0.00  0.00    +0.079 A 
ATOM     29 CL   LIG    1       10.894   0.104   1.361  0.00  0.00    -0.076 Cl
ATOM     30  S   LIG    1        8.615  -0.231  -0.782  0.00  0.00    -0.072 S 
ENDBRANCH  23  25
ENDBRANCH  20  21
ENDBRANCH   3  20
TORSDOF 5
