REMARK  Name = molecules/KGKJZEKQJQQOTD-ZETCQYMHSA-N.pdb
REMARK                            x       y       z     vdW  Elec       q    Type
REMARK                         _______ _______ _______ _____ _____    ______ ____
ROOT
ATOM      1  C   LIG    1       -0.947  -0.571  -0.085  0.00  0.00    +0.144 C 
ATOM      2  C   LIG    1       -1.419   0.634   0.640  0.00  0.00    +0.240 C 
ATOM      3  O   LIG    1       -1.280   0.682   1.894  0.00  0.00    -0.274 OA
ATOM      4  N   LIG    1       -2.020   1.743   0.012  0.00  0.00    -0.239 N 
ATOM      5  H   LIG    1       -2.125   2.622   0.548  0.00  0.00    +0.159 HD
ATOM      6  C   LIG    1       -2.457   1.605  -1.335  0.00  0.00    +0.312 C 
ATOM      7  O   LIG    1       -2.996   2.610  -1.884  0.00  0.00    -0.252 OA
ATOM      8  N   LIG    1       -2.283   0.375  -2.012  0.00  0.00    -0.239 N 
ATOM      9  H   LIG    1       -2.626   0.323  -3.014  0.00  0.00    +0.159 HD
ATOM     10  C   LIG    1       -1.675  -0.734  -1.373  0.00  0.00    +0.240 C 
ATOM     11  O   LIG    1       -1.751  -1.855  -1.894  0.00  0.00    -0.274 OA
ENDROOT
BRANCH   1  12
ATOM     12  C   LIG    1        0.555  -0.506  -0.388  0.00  0.00    +0.014 C 
ATOM     13  C   LIG    1        0.771   0.580  -1.411  0.00  0.00    +0.009 C 
BRANCH  12  14
ATOM     14  C   LIG    1        1.303  -0.351   0.877  0.00  0.00    +0.005 C 
BRANCH  14  15
ATOM     15  C   LIG    1        2.783  -0.321   0.817  0.00  0.00    -0.003 C 
ATOM     16  C   LIG    1        3.426   0.755   0.033  0.00  0.00    +0.004 C 
ENDBRANCH  14  15
ENDBRANCH  12  14
ENDBRANCH   1  12
BRANCH   1  17
ATOM     17  C   LIG    1       -1.255  -1.716   0.798  0.00  0.00    -0.009 C 
ATOM     18  C   LIG    1       -2.370  -1.749   1.480  0.00  0.00    +0.005 C 
ENDBRANCH   1  17
TORSDOF 4
