REMARK  Name = molecules/KGPGQDLTDHGEGT-SZUNQUCBSA-N.pdb
REMARK                            x       y       z     vdW  Elec       q    Type
REMARK                         _______ _______ _______ _____ _____    ______ ____
ROOT
ATOM      1  C   LIG    1        0.750  -1.299   0.000  0.00  0.00    +0.177 A 
ATOM      2  C   LIG    1        1.500   0.000   0.000  0.00  0.00    +0.100 A 
ATOM      3  C   LIG    1        0.750   1.299   0.000  0.00  0.00    +0.183 A 
ATOM      4  O   LIG    1        1.500   2.598   0.000  0.00  0.00    -0.288 OA
ATOM      5  C   LIG    1       -0.750   1.299   0.000  0.00  0.00    +0.057 A 
ATOM      6  C   LIG    1       -1.500   0.000   0.000  0.00  0.00    -0.004 A 
ATOM      7  C   LIG    1       -2.799   0.750   0.000  0.00  0.00    +0.161 C 
ATOM      8  N   LIG    1       -4.299   0.750   0.000  0.00  0.00    -0.234 N 
ATOM      9  C   LIG    1       -5.598   0.000   0.000  0.00  0.00    +0.249 C 
ATOM     10  C   LIG    1       -6.348  -1.299   0.000  0.00  0.00    +0.099 C 
ATOM     11  N   LIG    1       -6.348  -2.799   0.000  0.00  0.00    -0.179 NA
ATOM     12  C   LIG    1       -5.598  -4.098   0.000  0.00  0.00    +0.245 C 
ATOM     13  O   LIG    1       -6.659  -5.159   0.000  0.00  0.00    -0.273 OA
ATOM     14  C   LIG    1       -4.299  -4.848   0.000  0.00  0.00    +0.120 C 
ATOM     15  C   LIG    1       -2.799  -4.848   0.000  0.00  0.00    -0.043 C 
ATOM     16  C   LIG    1       -1.500  -4.098   0.000  0.00  0.00    -0.030 C 
ATOM     17  C   LIG    1       -0.750  -2.799   0.000  0.00  0.00    +0.046 C 
ATOM     18  C   LIG    1        0.311  -3.860   0.000  0.00  0.00    +0.009 C 
ATOM     19  C   LIG    1       -1.526  -5.697   0.000  0.00  0.00    +0.026 C 
ATOM     20  C   LIG    1       -7.797  -0.911   0.000  0.00  0.00    +0.059 C 
ATOM     21  C   LIG    1       -3.312   2.159   0.000  0.00  0.00    +0.257 C 
ATOM     22  O   LIG    1       -4.747   2.598   0.000  0.00  0.00    -0.185 OA
ATOM     23  C   LIG    1       -0.750  -1.299   0.000  0.00  0.00    +0.016 A 
ENDROOT
BRANCH   1  24
ATOM     24  O   LIG    1        1.500  -2.598   0.000  0.00  0.00    -0.304 OA
ATOM     25  O   LIG    1        1.760  -3.471   0.000  0.00  0.00    +0.028 OA
ENDBRANCH   1  24
BRANCH  21  26
ATOM     26  N   LIG    1       -2.348   3.309   0.000  0.00  0.00    -0.269 NA
ATOM     27  H   LIG    1       -1.163   2.741   0.000  0.00  0.00    +0.126 HD
BRANCH  26  28
ATOM     28  C   LIG    1       -2.861   4.718   0.000  0.00  0.00    +0.086 C 
BRANCH  28  29
ATOM     29  C   LIG    1       -3.374   6.128   0.000  0.00  0.00    +0.030 C 
BRANCH  29  30
ATOM     30  C   LIG    1       -3.887   7.537   0.000  0.00  0.00    +0.085 C 
BRANCH  30  31
ATOM     31  N   LIG    1       -4.400   8.947   0.000  0.00  0.00    -0.308 NA
ATOM     32  C   LIG    1       -3.436  10.096   0.000  0.00  0.00    +0.104 C 
ATOM     33  C   LIG    1       -5.877   9.207   0.000  0.00  0.00    +0.104 C 
ENDBRANCH  30  31
ENDBRANCH  29  30
ENDBRANCH  28  29
ENDBRANCH  26  28
ENDBRANCH  21  26
BRANCH   9  34
ATOM     34  O   LIG    1       -6.884   0.279   0.000  0.00  0.00    -0.320 OA
BRANCH  34  35
ATOM     35  O   LIG    1       -6.371   1.286   0.000  0.00  0.00    -0.200 OA
ATOM     36  H   LIG    1       -7.458   1.665   0.000  0.00  0.00    +0.267 HD
ENDBRANCH  34  35
ENDBRANCH   9  34
TORSDOF 8
REMARK  Name = molecules/KGPGQDLTDHGEGT-SZUNQUCBSA-N.pdb
REMARK                            x       y       z     vdW  Elec       q    Type
REMARK                         _______ _______ _______ _____ _____    ______ ____
ROOT
ATOM      1  C   LIG    1        3.000  -2.598   0.000  0.00  0.00    +0.232 C 
ATOM      2  C   LIG    1        4.410  -3.111   0.000  0.00  0.00    +0.051 C 
ATOM      3  O   LIG    1        2.740  -1.121   0.000  0.00  0.00    -0.283 OA
ENDROOT
BRANCH   2   4
ATOM      4  C   LIG    1        5.559  -2.147   0.000  0.00  0.00    +0.167 C 
BRANCH   4   5
ATOM      5  O   LIG    1        6.309  -3.446   0.000  0.00  0.00    -0.377 OA
ATOM      6  H   LIG    1        5.559  -4.075   0.000  0.00  0.00    +0.211 HD
ENDBRANCH   4   5
ENDBRANCH   2   4
TORSDOF 2
REMARK  Name = molecules/KGPGQDLTDHGEGT-SZUNQUCBSA-N.pdb
REMARK                            x       y       z     vdW  Elec       q    Type
REMARK                         _______ _______ _______ _____ _____    ______ ____
ROOT
ATOM      1  C   LIG    1        3.889  -0.157   0.000  0.00  0.00    +0.000 C 
ENDROOT
TORSDOF 0
REMARK  Name = molecules/KGPGQDLTDHGEGT-SZUNQUCBSA-N.pdb
REMARK                            x       y       z     vdW  Elec       q    Type
REMARK                         _______ _______ _______ _____ _____    ______ ____
ROOT
ATOM      1  O   HOH    1        3.659  -4.410   0.000  0.00  0.00    -0.410 OA
ATOM      2  H   HOH    0        2.936  -3.811   0.000  0.00  0.00    +0.205 HD
ATOM      3  H   HOH    0        2.369  -4.842   0.000  0.00  0.00    +0.205 HD
ENDROOT
TORSDOF 0
REMARK  Name = molecules/KGPGQDLTDHGEGT-SZUNQUCBSA-N.pdb
REMARK                            x       y       z     vdW  Elec       q    Type
REMARK                         _______ _______ _______ _____ _____    ______ ____
ROOT
ATOM      1  C   LIG    1        4.639   1.142   0.000  0.00  0.00    +0.000 C 
ENDROOT
TORSDOF 0
REMARK  Name = molecules/KGPGQDLTDHGEGT-SZUNQUCBSA-N.pdb
REMARK                            x       y       z     vdW  Elec       q    Type
REMARK                         _______ _______ _______ _____ _____    ______ ____
ROOT
ATOM      1  C   LIG    1        5.298  -0.670   0.000  0.00  0.00    +0.000 C 
ENDROOT
TORSDOF 0
REMARK  Name = molecules/KGPGQDLTDHGEGT-SZUNQUCBSA-N.pdb
REMARK                            x       y       z     vdW  Elec       q    Type
REMARK                         _______ _______ _______ _____ _____    ______ ____
ROOT
ATOM      1  C   LIG    1       -0.078  -5.309   0.000  0.00  0.00    +0.000 C 
ENDROOT
TORSDOF 0
REMARK  Name = molecules/KGPGQDLTDHGEGT-SZUNQUCBSA-N.pdb
REMARK                            x       y       z     vdW  Elec       q    Type
REMARK                         _______ _______ _______ _____ _____    ______ ____
ROOT
ATOM      1  O   HOH    1        5.389   2.441   0.000  0.00  0.00    +0.000 OA
ENDROOT
TORSDOF 0
REMARK  Name = molecules/KGPGQDLTDHGEGT-SZUNQUCBSA-N.pdb
REMARK                            x       y       z     vdW  Elec       q    Type
REMARK                         _______ _______ _______ _____ _____    ______ ____
ROOT
ATOM      1  O   HOH    1        6.798  -0.670   0.000  0.00  0.00    -0.253 OA
ATOM      2  H   HOH    0        6.968  -1.634   0.000  0.00  0.00    +0.253 HD
ENDROOT
TORSDOF 0
REMARK  Name = molecules/KGPGQDLTDHGEGT-SZUNQUCBSA-N.pdb
REMARK                            x       y       z     vdW  Elec       q    Type
REMARK                         _______ _______ _______ _____ _____    ______ ____
ROOT
ATOM      1  N   LIG    1       -4.601  -6.447   0.000  0.00  0.00    +0.000 NA
ENDROOT
TORSDOF 0
REMARK  Name = molecules/KGPGQDLTDHGEGT-SZUNQUCBSA-N.pdb
REMARK                            x       y       z     vdW  Elec       q    Type
REMARK                         _______ _______ _______ _____ _____    ______ ____
ROOT
ATOM      1  C   LIG    1       -5.514  -7.637   0.000  0.00  0.00    +0.153 C 
ATOM      2  N   LIG    1       -5.364  -8.775   0.000  0.00  0.00    -0.051 NA
ENDROOT
BRANCH   2   3
ATOM      3  O   LIG    1       -4.281  -8.492   0.000  0.00  0.00    -0.088 OA
ATOM      4  O   LIG    1       -3.175  -8.570   0.000  0.00  0.00    -0.014 OA
ENDBRANCH   2   3
TORSDOF 1
REMARK  Name = molecules/KGPGQDLTDHGEGT-SZUNQUCBSA-N.pdb
REMARK                            x       y       z     vdW  Elec       q    Type
REMARK                         _______ _______ _______ _____ _____    ______ ____
ROOT
ATOM      1  C   LIG    1       -9.284  -1.107   0.000  0.00  0.00    +0.000 C 
ATOM      2  C   LIG    1       -9.672  -2.555   0.000  0.00  0.00    +0.001 C 
ATOM      3  C   LIG    1      -10.585  -3.745   0.000  0.00  0.00    +0.004 C 
ATOM      4  C   LIG    1      -11.496  -3.047   0.000  0.00  0.00    -0.008 C 
ATOM      5  C   LIG    1      -11.884  -4.495   0.000  0.00  0.00    -0.001 C 
ATOM      6  C   LIG    1      -10.583  -1.857   0.000  0.00  0.00    +0.004 C 
ENDROOT
TORSDOF 0
REMARK  Name = molecules/KGPGQDLTDHGEGT-SZUNQUCBSA-N.pdb
REMARK                            x       y       z     vdW  Elec       q    Type
REMARK                         _______ _______ _______ _____ _____    ______ ____
ROOT
ATOM      1  C   LIG    1       -6.813  -8.387   0.000  0.00  0.00    +0.005 C 
ATOM      2  C   LIG    1       -8.300  -8.583   0.000  0.00  0.00    -0.005 C 
ENDROOT
TORSDOF 0
REMARK  Name = molecules/KGPGQDLTDHGEGT-SZUNQUCBSA-N.pdb
REMARK                            x       y       z     vdW  Elec       q    Type
REMARK                         _______ _______ _______ _____ _____    ______ ____
ROOT
ATOM      1  C   LIG    1       -9.749  -8.195   0.000  0.00  0.00    +0.000 C 
ATOM      2  C   LIG    1       -9.599  -9.333   0.000  0.00  0.00    +0.000 C 
ENDROOT
TORSDOF 0
REMARK  Name = molecules/KGPGQDLTDHGEGT-SZUNQUCBSA-N.pdb
REMARK                            x       y       z     vdW  Elec       q    Type
REMARK                         _______ _______ _______ _____ _____    ______ ____
ROOT
ATOM      1  C   LIG    1       -0.550 -10.444   0.000  0.00  0.00    +0.034 C 
ATOM      2  C   LIG    1        0.776 -11.145   0.000  0.00  0.00    +0.118 C 
ATOM      3  C   LIG    1        0.849  -9.611   0.000  0.00  0.00    +0.078 C 
ENDROOT
BRANCH   1   6
ATOM      4  C   LIG    1       -4.174  -9.689   0.000  0.00  0.00    +0.049 C 
ATOM      5  C   LIG    1       -3.424 -10.988   0.000  0.00  0.00    +0.046 C 
ATOM      6  C   LIG    1       -2.049 -10.388   0.000  0.00  0.00    +0.015 C 
BRANCH   5   7
ATOM      7  N   LIG    1       -3.228 -12.475   0.000  0.00  0.00    -0.209 NA
BRANCH   7   8
ATOM      8  C   LIG    1       -3.616 -13.924   0.000  0.00  0.00    +0.295 C 
ATOM      9  O   LIG    1       -2.271 -14.587   0.000  0.00  0.00    -0.194 OA
ENDBRANCH   7   8
ENDBRANCH   5   7
ENDBRANCH   1   6
BRANCH   2  10
ATOM     10  O   LIG    1        1.667 -12.352   0.000  0.00  0.00    -0.460 OA
BRANCH  10  11
ATOM     11  C   LIG    1        1.946 -13.826   0.000  0.00  0.00    +0.153 C 
ATOM     12  C   LIG    1        1.558 -15.274   0.000  0.00  0.00    +0.027 C 
BRANCH  12  13
ATOM     13  C   LIG    1        0.579 -16.412   0.000  0.00  0.00    +0.098 C 
ATOM     14  C   LIG    1       -0.796 -17.011   0.000  0.00  0.00    +0.093 C 
ATOM     15  N   LIG    1        0.265 -18.072   0.000  0.00  0.00    -0.277 NA
ATOM     16  C   LIG    1       -0.123 -19.521   0.000  0.00  0.00    +0.101 C 
ENDBRANCH  12  13
BRANCH  11  17
ATOM     17  C   LIG    1        3.272 -14.527   0.000  0.00  0.00    +0.245 C 
ATOM     18  O   LIG    1        4.542 -13.729   0.000  0.00  0.00    -0.212 OA
ENDBRANCH  11  17
ENDBRANCH  10  11
ENDBRANCH   2  10
TORSDOF 7
REMARK  Name = molecules/KGPGQDLTDHGEGT-SZUNQUCBSA-N.pdb
REMARK                            x       y       z     vdW  Elec       q    Type
REMARK                         _______ _______ _______ _____ _____    ______ ____
ROOT
ATOM      1 CL   LIG    1      -12.842  -2.383   0.000  0.00  0.00    -0.145 Cl
ATOM      2  H   LIG    1      -13.106  -3.616   0.000  0.00  0.00    +0.145 HD
ENDROOT
TORSDOF 0
REMARK  Name = molecules/KGPGQDLTDHGEGT-SZUNQUCBSA-N.pdb
REMARK                            x       y       z     vdW  Elec       q    Type
REMARK                         _______ _______ _______ _____ _____    ______ ____
ROOT
ATOM      1  C   LIG    1      -10.939  -7.282   0.000  0.00  0.00    +0.217 C 
ATOM      2  O   LIG    1      -11.689  -5.983   0.000  0.00  0.00    -0.217 OA
ENDROOT
TORSDOF 0
REMARK  Name = molecules/KGPGQDLTDHGEGT-SZUNQUCBSA-N.pdb
REMARK                            x       y       z     vdW  Elec       q    Type
REMARK                         _______ _______ _______ _____ _____    ______ ____
ROOT
ATOM      1  C   LIG    1      -10.512 -10.523   0.000  0.00  0.00    +0.000 C 
ENDROOT
TORSDOF 0
REMARK  Name = molecules/KGPGQDLTDHGEGT-SZUNQUCBSA-N.pdb
REMARK                            x       y       z     vdW  Elec       q    Type
REMARK                         _______ _______ _______ _____ _____    ______ ____
ROOT
ATOM      1  C   LIG    1      -11.425  -9.333   0.000  0.00  0.00    +0.169 C 
ATOM      2  O   LIG    1      -12.912  -9.529   0.000  0.00  0.00    -0.379 OA
ATOM      3  H   LIG    1      -13.574 -10.251   0.000  0.00  0.00    +0.211 HD
ENDROOT
TORSDOF 0
REMARK  Name = molecules/KGPGQDLTDHGEGT-SZUNQUCBSA-N.pdb
REMARK                            x       y       z     vdW  Elec       q    Type
REMARK                         _______ _______ _______ _____ _____    ______ ____
ROOT
ATOM      1  C   LIG    1       -9.256 -13.847   0.000  0.00  0.00    +0.038 C 
ATOM      2  C   LIG    1       -9.954 -14.758   0.000  0.00  0.00    +0.003 C 
ATOM      3  C   LIG    1       -8.764 -15.671   0.000  0.00  0.00    +0.004 C 
ATOM      4  C   LIG    1       -7.316 -16.060   0.000  0.00  0.00    -0.005 C 
ATOM      5  C   LIG    1       -8.066 -14.761   0.000  0.00  0.00    +0.003 C 
ENDROOT
BRANCH   1   7
ATOM      6  O   LIG    1      -10.900 -11.972   0.000  0.00  0.00    -0.221 OA
ATOM      7  C   LIG    1      -10.704 -13.459   0.000  0.00  0.00    +0.177 C 
ENDBRANCH   1   7
TORSDOF 1
REMARK  Name = molecules/KGPGQDLTDHGEGT-SZUNQUCBSA-N.pdb
REMARK                            x       y       z     vdW  Elec       q    Type
REMARK                         _______ _______ _______ _____ _____    ______ ____
ROOT
ATOM      1  C   LIG    1       -1.661  -8.939   0.000  0.00  0.00    +0.000 C 
ENDROOT
TORSDOF 0
REMARK  Name = molecules/KGPGQDLTDHGEGT-SZUNQUCBSA-N.pdb
REMARK                            x       y       z     vdW  Elec       q    Type
REMARK                         _______ _______ _______ _____ _____    ______ ____
ROOT
ATOM      1  C   LIG    1      -13.825  -8.339   0.000  0.00  0.00    +0.250 C 
ATOM      2  C   LIG    1      -14.839  -9.445   0.000  0.00  0.00    +0.016 C 
ATOM      3  C   LIG    1      -16.303  -9.120   0.000  0.00  0.00    +0.039 C 
ATOM      4  C   LIG    1      -16.754  -7.689   0.000  0.00  0.00    +0.174 C 
ATOM      5  C   LIG    1      -15.741  -6.584   0.000  0.00  0.00    +0.252 C 
ATOM      6  O   LIG    1      -14.277  -6.908   0.000  0.00  0.00    -0.471 OA
ENDROOT
BRANCH   5   7
ATOM      7  C   LIG    1      -15.167  -5.198   0.000  0.00  0.00    +0.424 C 
ATOM      8  O   LIG    1      -16.080  -4.008   0.000  0.00  0.00    -0.237 OA
ATOM      9  O   LIG    1      -13.680  -5.002   0.000  0.00  0.00    -0.237 OA
ENDBRANCH   5   7
BRANCH   4  10
ATOM     10  O   LIG    1      -17.668  -6.500   0.000  0.00  0.00    -0.503 OA
ATOM     11  H   LIG    1      -17.006  -5.778   0.000  0.00  0.00    +0.292 HD
ENDBRANCH   4  10
TORSDOF 2
REMARK  Name = molecules/KGPGQDLTDHGEGT-SZUNQUCBSA-N.pdb
REMARK                            x       y       z     vdW  Elec       q    Type
REMARK                         _______ _______ _______ _____ _____    ______ ____
ROOT
ATOM      1 CL   LIG    1       -2.584  -7.757   0.000  0.00  0.00    -0.145 Cl
ATOM      2  H   LIG    1       -1.915  -7.146   0.000  0.00  0.00    +0.145 HD
ENDROOT
TORSDOF 0
REMARK  Name = molecules/KGPGQDLTDHGEGT-SZUNQUCBSA-N.pdb
REMARK                            x       y       z     vdW  Elec       q    Type
REMARK                         _______ _______ _______ _____ _____    ______ ____
ROOT
ATOM      1  C   LIG    1       -0.212  -8.551   0.000  0.00  0.00    +0.000 C 
ENDROOT
TORSDOF 0
REMARK  Name = molecules/KGPGQDLTDHGEGT-SZUNQUCBSA-N.pdb
REMARK                            x       y       z     vdW  Elec       q    Type
REMARK                         _______ _______ _______ _____ _____    ______ ____
ROOT
ATOM      1  C   LIG    1       -4.529 -15.114   0.000  0.00  0.00    +0.103 C 
ATOM      2  N   LIG    1       -3.621 -16.254   0.000  0.00  0.00    -0.244 NA
ATOM      3  H   LIG    1       -4.758 -16.915   0.000  0.00  0.00    +0.141 HD
ENDROOT
TORSDOF 0
REMARK  Name = molecules/KGPGQDLTDHGEGT-SZUNQUCBSA-N.pdb
REMARK                            x       y       z     vdW  Elec       q    Type
REMARK                         _______ _______ _______ _____ _____    ______ ____
ROOT
ATOM      1  O   HOH    1        0.176  -7.102   0.000  0.00  0.00    -0.253 OA
ATOM      2  H   HOH    0        1.105  -6.232   0.000  0.00  0.00    +0.253 HD
ENDROOT
TORSDOF 0
REMARK  Name = molecules/KGPGQDLTDHGEGT-SZUNQUCBSA-N.pdb
REMARK                            x       y       z     vdW  Elec       q    Type
REMARK                         _______ _______ _______ _____ _____    ______ ____
ROOT
ATOM      1  C   LIG    1       -5.828 -15.864   0.000  0.00  0.00    +0.000 C 
ENDROOT
TORSDOF 0
REMARK  Name = molecules/KGPGQDLTDHGEGT-SZUNQUCBSA-N.pdb
REMARK                            x       y       z     vdW  Elec       q    Type
REMARK                         _______ _______ _______ _____ _____    ______ ____
ROOT
ATOM      1  N   LIG    1      -15.413 -10.831   0.000  0.00  0.00    +0.000 NA
ENDROOT
TORSDOF 0
REMARK  Name = molecules/KGPGQDLTDHGEGT-SZUNQUCBSA-N.pdb
REMARK                            x       y       z     vdW  Elec       q    Type
REMARK                         _______ _______ _______ _____ _____    ______ ____
ROOT
ATOM      1  C   LIG    1       -2.295 -16.955   0.000  0.00  0.00    +0.000 C 
ENDROOT
TORSDOF 0
REMARK  Name = molecules/KGPGQDLTDHGEGT-SZUNQUCBSA-N.pdb
REMARK                            x       y       z     vdW  Elec       q    Type
REMARK                         _______ _______ _______ _____ _____    ______ ____
ROOT
ATOM      1  C   LIG    1      -19.770 -17.956   0.000  0.00  0.00    +0.000 C 
ENDROOT
BRANCH   1   2
ATOM      2  C   LIG    1      -19.196 -16.570   0.000  0.00  0.00    +0.000 C 
BRANCH   2   3
ATOM      3  C   LIG    1      -18.622 -15.184   0.000  0.00  0.00    +0.000 C 
BRANCH   3   4
ATOM      4  C   LIG    1      -18.048 -13.798   0.000  0.00  0.00    +0.001 C 
BRANCH   4   6
ATOM      5  C   LIG    1      -16.900 -11.026   0.000  0.00  0.00    -0.009 C 
ATOM      6  C   LIG    1      -17.474 -12.412   0.000  0.00  0.00    +0.008 C 
ENDBRANCH   4   6
ENDBRANCH   3   4
ENDBRANCH   2   3
ENDBRANCH   1   2
BRANCH   1   7
ATOM      7  C   LIG    1      -20.344 -19.341   0.000  0.00  0.00    +0.000 C 
BRANCH   7   8
ATOM      8  C   LIG    1      -20.918 -20.727   0.000  0.00  0.00    +0.000 C 
BRANCH   8   9
ATOM      9  C   LIG    1      -21.492 -22.113   0.000  0.00  0.00    +0.003 C 
BRANCH   9  10
ATOM     10  C   LIG    1      -22.066 -23.499   0.000  0.00  0.00    -0.017 C 
ATOM     11  C   LIG    1      -23.452 -22.925   0.000  0.00  0.00    +0.007 C 
ATOM     12  C   LIG    1      -22.640 -24.885   0.000  0.00  0.00    +0.007 C 
ENDBRANCH   9  10
ENDBRANCH   8   9
ENDBRANCH   7   8
ENDBRANCH   1   7
TORSDOF 8
REMARK  Name = molecules/KGPGQDLTDHGEGT-SZUNQUCBSA-N.pdb
REMARK                            x       y       z     vdW  Elec       q    Type
REMARK                         _______ _______ _______ _____ _____    ______ ____
ROOT
ATOM      1  O   LIG    1      -17.791  -9.316   0.000  0.00  0.00    -0.253 OA
ATOM      2  H   LIG    1      -18.159  -8.215   0.000  0.00  0.00    +0.253 HD
ENDROOT
BRANCH   1   3
ATOM      3  O   LIG    1      -17.851 -10.270   0.000  0.00  0.00    -0.253 OA
ATOM      4  H   LIG    1      -16.729 -10.558   0.000  0.00  0.00    +0.253 HD
ENDBRANCH   1   3
TORSDOF 1
REMARK  Name = molecules/KGPGQDLTDHGEGT-SZUNQUCBSA-N.pdb
REMARK                            x       y       z     vdW  Elec       q    Type
REMARK                         _______ _______ _______ _____ _____    ______ ____
ROOT
ATOM      1  O   HOH    1       -2.683 -18.404   0.000  0.00  0.00    -0.410 OA
ATOM      2  H   HOH    0       -1.559 -18.303   0.000  0.00  0.00    +0.205 HD
ATOM      3  H   HOH    0       -1.609 -19.312   0.000  0.00  0.00    +0.205 HD
ENDROOT
TORSDOF 0
REMARK  Name = molecules/KGPGQDLTDHGEGT-SZUNQUCBSA-N.pdb
REMARK                            x       y       z     vdW  Elec       q    Type
REMARK                         _______ _______ _______ _____ _____    ______ ____
ROOT
ATOM      1  C   LIG    1        3.328 -16.026   0.000  0.00  0.00    +0.000 C 
ENDROOT
TORSDOF 0
REMARK  Name = molecules/KGPGQDLTDHGEGT-SZUNQUCBSA-N.pdb
REMARK                            x       y       z     vdW  Elec       q    Type
REMARK                         _______ _______ _______ _____ _____    ______ ____
ROOT
ATOM      1  C   LIG    1        2.058 -16.823   0.000  0.00  0.00    +0.000 C 
ENDROOT
TORSDOF 0
REMARK  Name = molecules/KGPGQDLTDHGEGT-SZUNQUCBSA-N.pdb
REMARK                            x       y       z     vdW  Elec       q    Type
REMARK                         _______ _______ _______ _____ _____    ______ ____
ROOT
ATOM      1  H   UNK    1        4.410  -5.709   0.000  0.00  0.00    +0.000 HD
ENDROOT
TORSDOF 0
REMARK  Name = molecules/KGPGQDLTDHGEGT-SZUNQUCBSA-N.pdb
REMARK                            x       y       z     vdW  Elec       q    Type
REMARK                         _______ _______ _______ _____ _____    ______ ____
ROOT
ATOM      1  H   UNK    1        0.750   3.897   0.000  0.00  0.00    +0.000 HD
ENDROOT
TORSDOF 0
REMARK  Name = molecules/KGPGQDLTDHGEGT-SZUNQUCBSA-N.pdb
REMARK                            x       y       z     vdW  Elec       q    Type
REMARK                         _______ _______ _______ _____ _____    ______ ____
ROOT
ATOM      1  H   UNK    1        3.340   1.892   0.000  0.00  0.00    +0.000 HD
ENDROOT
TORSDOF 0
REMARK  Name = molecules/KGPGQDLTDHGEGT-SZUNQUCBSA-N.pdb
REMARK                            x       y       z     vdW  Elec       q    Type
REMARK                         _______ _______ _______ _____ _____    ______ ____
ROOT
ATOM      1  H   UNK    1        7.809  -3.446   0.000  0.00  0.00    +0.000 HD
ENDROOT
TORSDOF 0
REMARK  Name = molecules/KGPGQDLTDHGEGT-SZUNQUCBSA-N.pdb
REMARK                            x       y       z     vdW  Elec       q    Type
REMARK                         _______ _______ _______ _____ _____    ______ ____
ROOT
ATOM      1  H   UNK    1       -4.861   2.141   0.000  0.00  0.00    +0.000 HD
ENDROOT
TORSDOF 0
REMARK  Name = molecules/KGPGQDLTDHGEGT-SZUNQUCBSA-N.pdb
REMARK                            x       y       z     vdW  Elec       q    Type
REMARK                         _______ _______ _______ _____ _____    ______ ____
ROOT
ATOM      1  H   UNK    1        4.639   3.740   0.000  0.00  0.00    +0.000 HD
ENDROOT
TORSDOF 0
REMARK  Name = molecules/KGPGQDLTDHGEGT-SZUNQUCBSA-N.pdb
REMARK                            x       y       z     vdW  Elec       q    Type
REMARK                         _______ _______ _______ _____ _____    ______ ____
ROOT
ATOM      1  H   UNK    1        7.548   0.629   0.000  0.00  0.00    +0.000 HD
ENDROOT
TORSDOF 0
REMARK  Name = molecules/KGPGQDLTDHGEGT-SZUNQUCBSA-N.pdb
REMARK                            x       y       z     vdW  Elec       q    Type
REMARK                         _______ _______ _______ _____ _____    ______ ____
ROOT
ATOM      1  H   UNK    1       -0.850   3.230   0.000  0.00  0.00    +0.000 HD
ENDROOT
TORSDOF 0
REMARK  Name = molecules/KGPGQDLTDHGEGT-SZUNQUCBSA-N.pdb
REMARK                            x       y       z     vdW  Elec       q    Type
REMARK                         _______ _______ _______ _____ _____    ______ ____
ROOT
ATOM      1  H   UNK    1       -3.255  -7.111   0.000  0.00  0.00    +0.000 HD
ENDROOT
TORSDOF 0
REMARK  Name = molecules/KGPGQDLTDHGEGT-SZUNQUCBSA-N.pdb
REMARK                            x       y       z     vdW  Elec       q    Type
REMARK                         _______ _______ _______ _____ _____    ______ ____
ROOT
ATOM      1  H   UNK    1       -7.739  -3.361   0.000  0.00  0.00    +0.000 HD
ENDROOT
TORSDOF 0
REMARK  Name = molecules/KGPGQDLTDHGEGT-SZUNQUCBSA-N.pdb
REMARK                            x       y       z     vdW  Elec       q    Type
REMARK                         _______ _______ _______ _____ _____    ______ ____
ROOT
ATOM      1  H   UNK    1       -1.731 -12.573   0.000  0.00  0.00    +0.000 HD
ENDROOT
TORSDOF 0
REMARK  Name = molecules/KGPGQDLTDHGEGT-SZUNQUCBSA-N.pdb
REMARK                            x       y       z     vdW  Elec       q    Type
REMARK                         _______ _______ _______ _____ _____    ______ ____
ROOT
ATOM      1  H   UNK    1        1.662  -6.893   0.000  0.00  0.00    +0.000 HD
ENDROOT
TORSDOF 0
REMARK  Name = molecules/KGPGQDLTDHGEGT-SZUNQUCBSA-N.pdb
REMARK                            x       y       z     vdW  Elec       q    Type
REMARK                         _______ _______ _______ _____ _____    ______ ____
ROOT
ATOM      1  H   UNK    1       -4.453 -17.502   0.000  0.00  0.00    +0.000 HD
ENDROOT
TORSDOF 0
REMARK  Name = molecules/KGPGQDLTDHGEGT-SZUNQUCBSA-N.pdb
REMARK                            x       y       z     vdW  Elec       q    Type
REMARK                         _______ _______ _______ _____ _____    ______ ____
ROOT
ATOM      1  H   UNK    1      -14.500 -12.021   0.000  0.00  0.00    +0.000 HD
ENDROOT
TORSDOF 0
REMARK  Name = molecules/KGPGQDLTDHGEGT-SZUNQUCBSA-N.pdb
REMARK                            x       y       z     vdW  Elec       q    Type
REMARK                         _______ _______ _______ _____ _____    ______ ____
ROOT
ATOM      1  H   UNK    1      -18.842  -8.246   0.000  0.00  0.00    +0.000 HD
ENDROOT
TORSDOF 0
REMARK  Name = molecules/KGPGQDLTDHGEGT-SZUNQUCBSA-N.pdb
REMARK                            x       y       z     vdW  Elec       q    Type
REMARK                         _______ _______ _______ _____ _____    ______ ____
ROOT
ATOM      1  H   UNK    1      -19.155  -6.695   0.000  0.00  0.00    +0.000 HD
ENDROOT
TORSDOF 0
REMARK  Name = molecules/KGPGQDLTDHGEGT-SZUNQUCBSA-N.pdb
REMARK                            x       y       z     vdW  Elec       q    Type
REMARK                         _______ _______ _______ _____ _____    ______ ____
ROOT
ATOM      1  H   UNK    1        5.868 -14.429   0.000  0.00  0.00    +0.000 HD
ENDROOT
TORSDOF 0
REMARK  Name = molecules/KGPGQDLTDHGEGT-SZUNQUCBSA-N.pdb
REMARK                            x       y       z     vdW  Elec       q    Type
REMARK                         _______ _______ _______ _____ _____    ______ ____
ROOT
ATOM      1  H   UNK    1        4.654 -16.726   0.000  0.00  0.00    +0.000 HD
ENDROOT
TORSDOF 0
REMARK  Name = molecules/KGPGQDLTDHGEGT-SZUNQUCBSA-N.pdb
REMARK                            x       y       z     vdW  Elec       q    Type
REMARK                         _______ _______ _______ _____ _____    ______ ____
ROOT
ATOM      1  H   UNK    1        2.296 -18.304   0.000  0.00  0.00    +0.000 HD
ENDROOT
TORSDOF 0
