REMARK  Name = molecules/KHFUQWURHSKTPO-UHFFFAOYSA-N.pdb
REMARK                            x       y       z     vdW  Elec       q    Type
REMARK                         _______ _______ _______ _____ _____    ______ ____
ROOT
ATOM      1  S   LIG    1       -0.884   0.186  -0.070  0.00  0.00    +0.025 S 
ATOM      2  O   LIG    1       -1.334  -0.052   1.419  0.00  0.00    -0.164 OA
ATOM      3  O   LIG    1       -1.242  -1.248  -0.634  0.00  0.00    -0.164 OA
ENDROOT
BRANCH   1   7
ATOM      4  C   LIG    1       -4.386   2.589  -1.472  0.00  0.00    +0.072 A 
ATOM      5  C   LIG    1       -3.689   3.015  -0.413  0.00  0.00    +0.028 A 
ATOM      6  C   LIG    1       -2.468   2.382  -0.029  0.00  0.00    +0.029 A 
ATOM      7  C   LIG    1       -1.998   1.314  -0.765  0.00  0.00    +0.094 A 
ATOM      8  C   LIG    1       -2.747   0.900  -1.899  0.00  0.00    +0.029 A 
ATOM      9  C   LIG    1       -3.910   1.528  -2.236  0.00  0.00    +0.028 A 
BRANCH   4  10
ATOM     10  N   LIG    1       -5.852   2.900  -1.523  0.00  0.00    -0.129 NA
BRANCH  10  11
ATOM     11  N   LIG    1       -6.459   2.053  -0.883  0.00  0.00    -0.129 NA
BRANCH  11  17
ATOM     12  C   LIG    1       -9.046  -0.311   0.084  0.00  0.00    -0.002 A 
ATOM     13  C   LIG    1       -8.439  -0.902   1.205  0.00  0.00    +0.121 A 
ATOM     14  C   LIG    1       -7.215  -0.469   1.602  0.00  0.00    +0.051 A 
ATOM     15  C   LIG    1       -6.543   0.542   0.922  0.00  0.00    -0.023 A 
ATOM     16  C   LIG    1       -5.198   0.885   1.451  0.00  0.00    +0.046 C 
ATOM     17  C   LIG    1       -7.102   1.175  -0.218  0.00  0.00    +0.076 A 
ATOM     18  C   LIG    1       -8.390   0.665  -0.563  0.00  0.00    +0.034 A 
BRANCH  12  20
ATOM     19  C   LIG    1      -11.434  -0.231  -0.813  0.00  0.00    +0.012 C 
ATOM     20  C   LIG    1      -10.255  -1.020  -0.394  0.00  0.00    +0.016 C 
ATOM     21  C   LIG    1      -10.397  -2.420   0.012  0.00  0.00    +0.012 C 
ENDBRANCH  12  20
BRANCH  13  22
ATOM     22  O   LIG    1       -9.063  -1.895   1.916  0.00  0.00    -0.506 OA
ATOM     23  H   LIG    1       -8.611  -2.347   2.746  0.00  0.00    +0.292 HD
ENDBRANCH  13  22
ENDBRANCH  11  17
ENDBRANCH  10  11
ENDBRANCH   4  10
ENDBRANCH   1   7
BRANCH   1  24
ATOM     24  C   LIG    1        0.777   0.341  -0.069  0.00  0.00    +0.094 A 
ATOM     25  C   LIG    1        1.493   0.232   1.156  0.00  0.00    +0.029 A 
ATOM     26  C   LIG    1        2.843   0.187   1.207  0.00  0.00    +0.028 A 
ATOM     27  C   LIG    1        3.640   0.245   0.065  0.00  0.00    +0.072 A 
ATOM     28  C   LIG    1        2.978   0.355  -1.118  0.00  0.00    +0.028 A 
ATOM     29  C   LIG    1        1.588   0.403  -1.182  0.00  0.00    +0.029 A 
BRANCH  27  30
ATOM     30  N   LIG    1        5.016   0.115   0.285  0.00  0.00    -0.129 NA
BRANCH  30  31
ATOM     31  N   LIG    1        5.732  -0.977   0.100  0.00  0.00    -0.129 NA
BRANCH  31  32
ATOM     32  C   LIG    1        7.116  -0.740   0.440  0.00  0.00    +0.076 A 
ATOM     33  C   LIG    1        7.305  -0.277   1.745  0.00  0.00    -0.023 A 
ATOM     34  C   LIG    1        6.174  -0.374   2.664  0.00  0.00    +0.046 C 
ATOM     35  C   LIG    1        8.565   0.152   2.101  0.00  0.00    +0.051 A 
ATOM     36  C   LIG    1        9.611   0.115   1.162  0.00  0.00    +0.121 A 
ATOM     37  C   LIG    1        9.370  -0.365  -0.120  0.00  0.00    -0.002 A 
ATOM     38  C   LIG    1        8.086  -0.806  -0.499  0.00  0.00    +0.034 A 
BRANCH  37  39
ATOM     39  C   LIG    1       10.518  -0.367  -1.050  0.00  0.00    +0.016 C 
ATOM     40  C   LIG    1       11.767  -0.859  -0.301  0.00  0.00    +0.012 C 
ATOM     41  C   LIG    1       10.298  -1.272  -2.223  0.00  0.00    +0.012 C 
ENDBRANCH  37  39
BRANCH  36  42
ATOM     42  O   LIG    1       10.853   0.569   1.572  0.00  0.00    -0.506 OA
ATOM     43  H   LIG    1       11.022   0.918   2.505  0.00  0.00    +0.292 HD
ENDBRANCH  36  42
ENDBRANCH  31  32
ENDBRANCH  30  31
ENDBRANCH  27  30
ENDBRANCH   1  24
TORSDOF 12
