REMARK  Name = molecules/KHLJKRBMZVNZOC-MRXNPFEDSA-N.pdb
REMARK                            x       y       z     vdW  Elec       q    Type
REMARK                         _______ _______ _______ _____ _____    ______ ____
ROOT
ATOM      1  C   LIG    1       -0.340  -0.157  -0.129  0.00  0.00    -0.043 A 
ATOM      2  C   LIG    1        0.070   0.944   0.587  0.00  0.00    +0.004 A 
ATOM      3  C   LIG    1        1.384   1.313   0.746  0.00  0.00    +0.009 A 
ATOM      4  C   LIG    1        2.384   0.542   0.157  0.00  0.00    -0.014 A 
ATOM      5  C   LIG    1        3.717   0.872   0.288  0.00  0.00    +0.054 A 
ATOM      6  C   LIG    1        4.712   0.107  -0.297  0.00  0.00    +0.121 A 
ATOM      7  C   LIG    1        4.366  -1.019  -1.034  0.00  0.00    +0.046 A 
ATOM      8  C   LIG    1        3.034  -1.312  -1.141  0.00  0.00    +0.012 A 
ATOM      9  C   LIG    1        2.028  -0.557  -0.561  0.00  0.00    -0.017 A 
ATOM     10  C   LIG    1        0.684  -0.886  -0.691  0.00  0.00    +0.012 A 
ENDROOT
BRANCH   6  11
ATOM     11  O   LIG    1        6.044   0.433  -0.168  0.00  0.00    -0.495 OA
ATOM     12  C   LIG    1        6.384   1.581   0.584  0.00  0.00    +0.277 C 
ENDBRANCH   6  11
BRANCH   1  13
ATOM     13  C   LIG    1       -1.709  -0.596  -0.331  0.00  0.00    +0.035 C 
BRANCH  13  14
ATOM     14  C   LIG    1       -2.683   0.162  -1.045  0.00  0.00    +0.069 C 
ATOM     15  C   LIG    1       -3.224   1.398  -0.273  0.00  0.00    +0.023 C 
ATOM     16  C   LIG    1       -2.310   0.787  -2.379  0.00  0.00    +0.023 C 
BRANCH  14  17
ATOM     17  C   LIG    1       -3.936  -0.561  -1.339  0.00  0.00    +0.311 C 
ATOM     18  O   LIG    1       -4.071  -1.366  -2.306  0.00  0.00    -0.250 OA
BRANCH  17  19
ATOM     19  O   LIG    1       -5.117  -0.437  -0.584  0.00  0.00    -0.480 OA
ATOM     20  H   LIG    1       -5.689  -1.246  -0.386  0.00  0.00    +0.295 HD
ENDBRANCH  17  19
ENDBRANCH  14  17
ENDBRANCH  13  14
BRANCH  13  21
ATOM     21  C   LIG    1       -2.159  -1.083   1.025  0.00  0.00    +0.006 C 
ATOM     22  C   LIG    1       -3.313  -2.008   1.078  0.00  0.00    +0.004 C 
ENDBRANCH  13  21
ENDBRANCH   1  13
TORSDOF 6
