REMARK  Name = molecules/KHOITXIGCFIULA-UHFFFAOYSA-N.pdb
REMARK                            x       y       z     vdW  Elec       q    Type
REMARK                         _______ _______ _______ _____ _____    ______ ____
ROOT
ATOM      1  C   LIG    1       -0.090  -0.811  -1.212  0.00  0.00    +0.097 C 
ENDROOT
BRANCH   1   2
ATOM      2  C   LIG    1       -1.391  -0.459  -0.627  0.00  0.00    -0.034 A 
ATOM      3  C   LIG    1       -1.737  -0.827   0.652  0.00  0.00    +0.008 A 
ATOM      4  C   LIG    1       -2.964  -0.490   1.219  0.00  0.00    +0.046 A 
ATOM      5  C   LIG    1       -3.858   0.232   0.481  0.00  0.00    +0.132 A 
ATOM      6  C   LIG    1       -3.510   0.599  -0.799  0.00  0.00    +0.046 A 
ATOM      7  C   LIG    1       -2.299   0.268  -1.360  0.00  0.00    +0.008 A 
BRANCH   5   8
ATOM      8  O   LIG    1       -5.093   0.592   1.000  0.00  0.00    -0.426 OA
BRANCH   8   9
ATOM      9  C   LIG    1       -5.272   1.773   1.680  0.00  0.00    +0.309 C 
ATOM     10  C   LIG    1       -6.573   2.208   2.256  0.00  0.00    +0.136 C 
ATOM     11  O   LIG    1       -4.259   2.520   1.812  0.00  0.00    -0.251 OA
ENDBRANCH   8   9
ENDBRANCH   5   8
ENDBRANCH   1   2
BRANCH   1  12
ATOM     12  C   LIG    1        1.012   0.040  -0.699  0.00  0.00    -0.034 A 
ATOM     13  C   LIG    1        1.710  -0.360   0.405  0.00  0.00    +0.008 A 
ATOM     14  C   LIG    1        2.758   0.399   0.935  0.00  0.00    +0.046 A 
ATOM     15  C   LIG    1        3.067   1.582   0.298  0.00  0.00    +0.132 A 
ATOM     16  C   LIG    1        2.372   2.011  -0.825  0.00  0.00    +0.046 A 
ATOM     17  C   LIG    1        1.328   1.221  -1.326  0.00  0.00    +0.008 A 
BRANCH  15  18
ATOM     18  O   LIG    1        4.089   2.416   0.739  0.00  0.00    -0.426 OA
BRANCH  18  19
ATOM     19  C   LIG    1        5.387   2.320   0.317  0.00  0.00    +0.309 C 
ATOM     20  C   LIG    1        6.423   3.245   0.832  0.00  0.00    +0.136 C 
ATOM     21  O   LIG    1        5.660   1.412  -0.526  0.00  0.00    -0.251 OA
ENDBRANCH  18  19
ENDBRANCH  15  18
ENDBRANCH   1  12
BRANCH   1  22
ATOM     22  C   LIG    1        0.181  -2.252  -1.110  0.00  0.00    +0.053 A 
ATOM     23  N   LIG    1       -0.163  -3.037  -0.089  0.00  0.00    -0.259 NA
ATOM     24  C   LIG    1        0.091  -4.346  -0.013  0.00  0.00    +0.111 A 
ATOM     25  C   LIG    1        0.753  -4.974  -1.035  0.00  0.00    +0.020 A 
ATOM     26  C   LIG    1        1.145  -4.237  -2.128  0.00  0.00    +0.003 A 
ATOM     27  C   LIG    1        0.858  -2.888  -2.158  0.00  0.00    +0.024 A 
ENDBRANCH   1  22
TORSDOF 7
