REMARK  Name = molecules/KHPKQFYUPIUARC-UHFFFAOYSA-N.pdb
REMARK                            x       y       z     vdW  Elec       q    Type
REMARK                         _______ _______ _______ _____ _____    ______ ____
ROOT
ATOM      1  C   LIG    1       -0.237  -0.026  -0.295  0.00  0.00    +0.035 A 
ATOM      2  C   LIG    1        0.132  -1.347  -0.166  0.00  0.00    +0.024 A 
ATOM      3  C   LIG    1       -0.707  -2.354  -0.599  0.00  0.00    +0.005 A 
ATOM      4  C   LIG    1       -1.938  -2.084  -1.175  0.00  0.00    -0.050 A 
ATOM      5  C   LIG    1       -2.277  -0.758  -1.291  0.00  0.00    +0.009 A 
ATOM      6  C   LIG    1       -2.821  -3.199  -1.634  0.00  0.00    +0.044 C 
ATOM      7  C   LIG    1       -1.453   0.278  -0.863  0.00  0.00    -0.015 A 
ENDROOT
BRANCH   1   8
ATOM      8  N   LIG    1        0.623   1.023   0.150  0.00  0.00    -0.311 N 
ATOM      9  H   LIG    1        0.337   2.005   0.048  0.00  0.00    +0.152 HD
BRANCH   8  10
ATOM     10  C   LIG    1        1.889   0.764   0.743  0.00  0.00    +0.086 A 
ATOM     11  C   LIG    1        1.971   0.603   2.103  0.00  0.00    +0.065 A 
ATOM     12 CL   LIG    1        0.529   0.712   3.125  0.00  0.00    -0.082 Cl
ATOM     13  C   LIG    1        3.204   0.353   2.664  0.00  0.00    +0.022 A 
ATOM     14  C   LIG    1        4.316   0.268   1.883  0.00  0.00    +0.004 A 
ATOM     15  C   LIG    1        4.273   0.425   0.500  0.00  0.00    +0.040 A 
ATOM     16  C   LIG    1        3.024   0.675  -0.029  0.00  0.00    +0.146 A 
ATOM     17  F   LIG    1        2.975   0.831  -1.393  0.00  0.00    -0.203 F 
ENDBRANCH   8  10
ENDBRANCH   1   8
BRANCH   7  18
ATOM     18  C   LIG    1       -1.916   1.678  -1.034  0.00  0.00    +0.157 C 
BRANCH  18  19
ATOM     19  C   LIG    1       -2.379   2.261   0.244  0.00  0.00    +0.309 C 
ATOM     20  O   LIG    1       -2.343   1.570   1.290  0.00  0.00    -0.251 OA
BRANCH  19  21
ATOM     21  O   LIG    1       -2.859   3.552   0.343  0.00  0.00    -0.480 OA
ATOM     22  H   LIG    1       -2.664   4.075   1.186  0.00  0.00    +0.295 HD
ENDBRANCH  19  21
ENDBRANCH  18  19
ENDBRANCH   7  18
TORSDOF 5
