REMARK  Name = molecules/KIQQMECNKUGGKA-NMYWJIRASA-N.pdb
REMARK                            x       y       z     vdW  Elec       q    Type
REMARK                         _______ _______ _______ _____ _____    ______ ____
ROOT
ATOM      1  C   LIG    1        3.572  -1.483   0.408  0.00  0.00    +0.014 C 
ATOM      2  C   LIG    1        4.956  -1.086   0.915  0.00  0.00    +0.059 C 
ATOM      3  C   LIG    1        5.421   0.168   0.290  0.00  0.00    +0.080 C 
ATOM      4  N   LIG    1        6.469   0.742   0.711  0.00  0.00    -0.092 NA
ATOM      5  C   LIG    1        4.658   0.722  -0.816  0.00  0.00    +0.026 C 
ATOM      6  C   LIG    1        3.348   0.555  -0.847  0.00  0.00    -0.064 C 
ATOM      7  C   LIG    1        2.578   1.125  -1.981  0.00  0.00    +0.031 C 
ATOM      8  C   LIG    1        1.333   0.263  -2.232  0.00  0.00    +0.008 C 
ATOM      9  C   LIG    1        0.564   0.281  -0.924  0.00  0.00    -0.003 C 
ATOM     10  C   LIG    1        1.305  -0.486   0.168  0.00  0.00    -0.000 C 
ATOM     11  C   LIG    1        0.591  -0.203   1.462  0.00  0.00    +0.005 C 
ATOM     12  C   LIG    1       -0.872  -0.428   1.441  0.00  0.00    +0.012 C 
ATOM     13  C   LIG    1       -1.588   0.029   0.220  0.00  0.00    +0.025 C 
ATOM     14  C   LIG    1       -2.823  -0.778  -0.117  0.00  0.00    +0.179 C 
ATOM     15  C   LIG    1       -2.980  -0.580  -1.628  0.00  0.00    +0.062 C 
ATOM     16  C   LIG    1       -1.645  -0.050  -2.115  0.00  0.00    +0.009 C 
ATOM     17  C   LIG    1       -0.754  -0.360  -0.998  0.00  0.00    +0.004 C 
ATOM     18  C   LIG    1        2.744  -0.198   0.268  0.00  0.00    +0.019 C 
ENDROOT
BRANCH   4  19
ATOM     19  O   LIG    1        7.241   0.277   1.744  0.00  0.00    -0.409 OA
ATOM     20  H   LIG    1        8.091  -0.254   1.601  0.00  0.00    +0.328 HD
ENDBRANCH   4  19
BRANCH  13  21
ATOM     21  C   LIG    1       -1.951   1.474   0.214  0.00  0.00    +0.009 C 
ATOM     22  C   LIG    1       -2.853   1.902   1.343  0.00  0.00    +0.004 C 
ENDBRANCH  13  21
BRANCH  14  23
ATOM     23  C   LIG    1       -2.654  -2.190   0.209  0.00  0.00    -0.058 C 
ATOM     24  C   LIG    1       -2.531  -3.355   0.469  0.00  0.00    +0.008 C 
ENDBRANCH  14  23
BRANCH  14  25
ATOM     25  O   LIG    1       -3.929  -0.197   0.488  0.00  0.00    -0.445 OA
BRANCH  25  26
ATOM     26  C   LIG    1       -5.228  -0.646   0.411  0.00  0.00    +0.305 C 
ATOM     27  C   LIG    1       -6.276   0.104   1.123  0.00  0.00    +0.136 C 
ATOM     28  O   LIG    1       -5.445  -1.680  -0.269  0.00  0.00    -0.251 OA
ENDBRANCH  25  26
ENDBRANCH  14  25
TORSDOF 5
