REMARK  Name = molecules/KJEBULYHNRNJTE-HGJFNOKFSA-N.pdb
REMARK                            x       y       z     vdW  Elec       q    Type
REMARK                         _______ _______ _______ _____ _____    ______ ____
ROOT
ATOM      1  C   LIG    1        0.202   1.433   0.067  0.00  0.00    +0.065 C 
ATOM      2  C   LIG    1        0.029   2.495   0.823  0.00  0.00    +0.016 C 
ATOM      3  N   LIG    1       -1.228   2.779   1.427  0.00  0.00    -0.321 N 
ATOM      4  H   LIG    1       -1.335   3.634   2.024  0.00  0.00    +0.152 HD
ATOM      5  C   LIG    1       -2.291   1.869   1.184  0.00  0.00    +0.016 C 
ATOM      6  C   LIG    1       -3.637   2.138   1.808  0.00  0.00    +0.061 C 
ATOM      7  C   LIG    1       -2.163   0.794   0.435  0.00  0.00    +0.065 C 
ATOM      8  C   LIG    1        1.200   3.400   1.027  0.00  0.00    +0.061 C 
ATOM      9  C   LIG    1       -0.882   0.481  -0.197  0.00  0.00    +0.096 C 
ENDROOT
BRANCH   9  10
ATOM     10  C   LIG    1       -1.054   0.223  -1.658  0.00  0.00    -0.033 A 
ATOM     11  C   LIG    1       -0.779  -1.031  -2.141  0.00  0.00    +0.005 A 
ATOM     12  C   LIG    1       -0.906  -1.375  -3.484  0.00  0.00    +0.003 A 
ATOM     13  C   LIG    1       -1.331  -0.380  -4.337  0.00  0.00    +0.033 A 
ATOM     14  C   LIG    1       -1.612   0.888  -3.869  0.00  0.00    +0.126 A 
ATOM     15  C   LIG    1       -1.475   1.193  -2.532  0.00  0.00    +0.037 A 
BRANCH  14  16
ATOM     16  N   LIG    1       -2.043   1.859  -4.803  0.00  0.00    +0.056 N 
ATOM     17  O   LIG    1       -2.327   3.124  -4.356  0.00  0.00    -0.126 OA
ATOM     18  O   LIG    1       -2.176   1.610  -6.016  0.00  0.00    -0.126 OA
ENDBRANCH  14  16
ENDBRANCH   9  10
BRANCH   1  19
ATOM     19  C   LIG    1        1.505   1.125  -0.568  0.00  0.00    +0.338 C 
ATOM     20  O   LIG    1        1.663   0.106  -1.290  0.00  0.00    -0.245 OA
BRANCH  19  21
ATOM     21  O   LIG    1        2.618   1.929  -0.411  0.00  0.00    -0.457 OA
BRANCH  21  22
ATOM     22  C   LIG    1        3.881   1.683  -0.991  0.00  0.00    +0.260 C 
BRANCH  22  23
ATOM     23  C   LIG    1        4.372   0.355  -0.476  0.00  0.00    +0.014 C 
ATOM     24  C   LIG    1        5.498   0.261   0.203  0.00  0.00    +0.007 C 
BRANCH  24  25
ATOM     25  C   LIG    1        6.048  -0.984   0.739  0.00  0.00    -0.025 A 
ATOM     26  C   LIG    1        7.254  -0.907   1.437  0.00  0.00    +0.008 A 
ATOM     27  C   LIG    1        7.841  -2.029   1.973  0.00  0.00    +0.001 A 
ATOM     28  C   LIG    1        7.242  -3.244   1.827  0.00  0.00    +0.000 A 
ATOM     29  C   LIG    1        6.050  -3.312   1.136  0.00  0.00    +0.001 A 
ATOM     30  C   LIG    1        5.449  -2.195   0.592  0.00  0.00    +0.008 A 
ENDBRANCH  24  25
ENDBRANCH  22  23
ENDBRANCH  21  22
ENDBRANCH  19  21
ENDBRANCH   1  19
BRANCH   7  31
ATOM     31  C   LIG    1       -3.291  -0.135   0.202  0.00  0.00    +0.338 C 
ATOM     32  O   LIG    1       -3.120  -1.147  -0.520  0.00  0.00    -0.245 OA
BRANCH  31  33
ATOM     33  O   LIG    1       -4.544   0.052   0.742  0.00  0.00    -0.459 OA
BRANCH  33  34
ATOM     34  C   LIG    1       -5.641  -0.814   0.539  0.00  0.00    +0.260 C 
BRANCH  34  35
ATOM     35  C   LIG    1       -5.403  -2.218   1.023  0.00  0.00    +0.200 C 
BRANCH  35  36
ATOM     36  O   LIG    1       -5.134  -2.273   2.368  0.00  0.00    -0.380 OA
ATOM     37  C   LIG    1       -6.152  -1.775   3.164  0.00  0.00    +0.194 C 
ENDBRANCH  35  36
ENDBRANCH  34  35
ENDBRANCH  33  34
ENDBRANCH  31  33
ENDBRANCH   7  31
TORSDOF 12
