REMARK  Name = molecules/KJFMBFZCATUALV-UHFFFAOYSA-N.pdb
REMARK                            x       y       z     vdW  Elec       q    Type
REMARK                         _______ _______ _______ _____ _____    ______ ____
ROOT
ATOM      1  O   LIG    1       -0.011   1.926   3.575  0.00  0.00    -0.245 OA
ATOM      2  C   LIG    1       -0.102   1.479   2.382  0.00  0.00    +0.341 C 
ATOM      3  O   LIG    1        0.077   0.206   1.947  0.00  0.00    -0.440 OA
ATOM      4  C   LIG    1       -0.014   0.157   0.541  0.00  0.00    +0.190 C 
ATOM      5  C   LIG    1       -0.439   1.502   0.107  0.00  0.00    +0.019 A 
ATOM      6  C   LIG    1       -0.782   2.080  -1.101  0.00  0.00    +0.009 A 
ATOM      7  C   LIG    1       -1.115   3.435  -1.220  0.00  0.00    +0.000 A 
ATOM      8  C   LIG    1       -1.105   4.236  -0.101  0.00  0.00    +0.001 A 
ATOM      9  C   LIG    1       -0.764   3.647   1.088  0.00  0.00    +0.015 A 
ATOM     10  C   LIG    1       -0.432   2.304   1.224  0.00  0.00    +0.067 A 
ENDROOT
BRANCH   4  11
ATOM     11  C   LIG    1       -1.027  -0.898   0.234  0.00  0.00    +0.005 A 
ATOM     12  C   LIG    1       -1.735  -1.550   1.242  0.00  0.00    +0.012 A 
ATOM     13  C   LIG    1       -2.666  -2.514   0.995  0.00  0.00    +0.046 A 
ATOM     14  C   LIG    1       -2.954  -2.895  -0.282  0.00  0.00    +0.117 A 
ATOM     15  C   LIG    1       -2.282  -2.281  -1.317  0.00  0.00    +0.046 A 
ATOM     16  C   LIG    1       -1.338  -1.301  -1.046  0.00  0.00    +0.012 A 
BRANCH  14  17
ATOM     17  O   LIG    1       -3.907  -3.882  -0.523  0.00  0.00    -0.507 OA
ATOM     18  H   LIG    1       -4.864  -3.544  -0.643  0.00  0.00    +0.292 HD
ENDBRANCH  14  17
ENDBRANCH   4  11
BRANCH   4  19
ATOM     19  C   LIG    1        1.345  -0.226   0.059  0.00  0.00    +0.005 A 
ATOM     20  C   LIG    1        2.257  -0.788   0.963  0.00  0.00    +0.012 A 
ATOM     21  C   LIG    1        3.527  -1.164   0.600  0.00  0.00    +0.046 A 
ATOM     22  C   LIG    1        3.966  -1.003  -0.692  0.00  0.00    +0.117 A 
ATOM     23  C   LIG    1        3.084  -0.451  -1.605  0.00  0.00    +0.046 A 
ATOM     24  C   LIG    1        1.800  -0.075  -1.217  0.00  0.00    +0.012 A 
BRANCH  22  25
ATOM     25  O   LIG    1        5.253  -1.386  -1.054  0.00  0.00    -0.507 OA
ATOM     26  H   LIG    1        5.863  -1.785  -0.356  0.00  0.00    +0.292 HD
ENDBRANCH  22  25
ENDBRANCH   4  19
TORSDOF 4
