REMARK  Name = molecules/KJHKTHWMRKYKJE-SUGCFTRWSA-N.pdb
REMARK                            x       y       z     vdW  Elec       q    Type
REMARK                         _______ _______ _______ _____ _____    ______ ____
ROOT
ATOM      1  C   LIG    1        0.572  -1.001   0.136  0.00  0.00    +0.055 C 
ENDROOT
BRANCH   1   2
ATOM      2  C   LIG    1       -0.603  -1.471  -0.700  0.00  0.00    +0.080 C 
BRANCH   2   5
ATOM      3  C   LIG    1       -2.591   0.012  -0.301  0.00  0.00    +0.234 C 
ATOM      4  O   LIG    1       -2.994  -0.837   0.559  0.00  0.00    -0.274 OA
ATOM      5  N   LIG    1       -1.396  -0.254  -0.966  0.00  0.00    -0.311 N 
ATOM      6  H   LIG    1       -1.046   0.413  -1.687  0.00  0.00    +0.149 HD
BRANCH   3   7
ATOM      7  C   LIG    1       -3.416   1.202  -0.525  0.00  0.00    +0.166 C 
BRANCH   7   8
ATOM      8  N   LIG    1       -4.720   1.067   0.147  0.00  0.00    -0.274 N 
ATOM      9  C   LIG    1       -4.809   0.951   1.583  0.00  0.00    +0.111 C 
ATOM     10  C   LIG    1       -6.042   1.671   2.117  0.00  0.00    +0.038 C 
ATOM     11  C   LIG    1       -7.303   1.302   1.421  0.00  0.00    +0.107 C 
ATOM     12  N   LIG    1       -7.134   0.788   0.081  0.00  0.00    -0.299 N 
ATOM     13  H   LIG    1       -7.907   0.224  -0.384  0.00  0.00    +0.150 HD
ATOM     14  C   LIG    1       -5.918   1.052  -0.598  0.00  0.00    +0.303 C 
ATOM     15  O   LIG    1       -5.941   1.268  -1.857  0.00  0.00    -0.253 OA
ENDBRANCH   7   8
BRANCH   7  16
ATOM     16  C   LIG    1       -2.773   2.505  -0.096  0.00  0.00    +0.012 C 
ATOM     17  C   LIG    1       -3.714   3.672  -0.354  0.00  0.00    +0.009 C 
ATOM     18  C   LIG    1       -1.503   2.831  -0.842  0.00  0.00    +0.009 C 
ENDBRANCH   7  16
ENDBRANCH   3   7
ENDBRANCH   2   5
BRANCH   2  19
ATOM     19  C   LIG    1       -0.140  -2.072  -1.975  0.00  0.00    +0.057 C 
BRANCH  19  20
ATOM     20  C   LIG    1       -1.225  -2.471  -2.886  0.00  0.00    -0.046 A 
ATOM     21  C   LIG    1       -1.776  -3.737  -2.825  0.00  0.00    +0.004 A 
ATOM     22  C   LIG    1       -2.796  -4.115  -3.681  0.00  0.00    +0.000 A 
ATOM     23  C   LIG    1       -3.246  -3.185  -4.598  0.00  0.00    +0.000 A 
ATOM     24  C   LIG    1       -2.712  -1.906  -4.684  0.00  0.00    +0.000 A 
ATOM     25  C   LIG    1       -1.689  -1.560  -3.810  0.00  0.00    +0.004 A 
ENDBRANCH  19  20
ENDBRANCH   2  19
ENDBRANCH   1   2
BRANCH   1  26
ATOM     26  C   LIG    1        1.488  -2.158   0.477  0.00  0.00    +0.137 C 
BRANCH  26  27
ATOM     27  O   LIG    1        0.734  -3.122   1.118  0.00  0.00    -0.390 OA
ATOM     28  H   LIG    1        0.552  -3.892   0.544  0.00  0.00    +0.210 HD
ENDBRANCH  26  27
BRANCH  26  29
ATOM     29  C   LIG    1        2.660  -1.767   1.321  0.00  0.00    +0.106 C 
BRANCH  29  30
ATOM     30  N   LIG    1        3.514  -0.755   0.686  0.00  0.00    -0.307 N 
ATOM     31  H   LIG    1        3.123   0.199   0.598  0.00  0.00    +0.149 HD
ATOM     32  C   LIG    1        4.803  -1.036   0.233  0.00  0.00    +0.251 C 
ATOM     33  O   LIG    1        5.211  -2.244   0.400  0.00  0.00    -0.272 OA
BRANCH  32  34
ATOM     34  C   LIG    1        5.787  -0.145  -0.412  0.00  0.00    +0.324 C 
BRANCH  34  35
ATOM     35  O   LIG    1        5.444   1.063  -0.741  0.00  0.00    -0.482 OA
BRANCH  35  36
ATOM     36  C   LIG    1        5.080   2.268  -0.965  0.00  0.00    +0.127 A 
ATOM     37  C   LIG    1        5.996   3.329  -0.707  0.00  0.00    -0.009 A 
ATOM     38  C   LIG    1        7.347   2.959  -0.194  0.00  0.00    +0.047 C 
ATOM     39  C   LIG    1        5.657   4.626  -0.920  0.00  0.00    +0.007 A 
ATOM     40  C   LIG    1        4.421   4.979  -1.392  0.00  0.00    +0.001 A 
ATOM     41  C   LIG    1        3.518   3.989  -1.651  0.00  0.00    +0.007 A 
ATOM     42  C   LIG    1        3.854   2.671  -1.438  0.00  0.00    -0.009 A 
ATOM     43  C   LIG    1        2.815   1.668  -1.794  0.00  0.00    +0.047 C 
ENDBRANCH  35  36
ENDBRANCH  34  35
ENDBRANCH  32  34
ENDBRANCH  29  30
BRANCH  29  44
ATOM     44  C   LIG    1        2.349  -1.394   2.730  0.00  0.00    +0.060 C 
BRANCH  44  45
ATOM     45  C   LIG    1        1.711  -2.404   3.558  0.00  0.00    -0.046 A 
ATOM     46  C   LIG    1        2.496  -3.351   4.232  0.00  0.00    +0.004 A 
ATOM     47  C   LIG    1        1.937  -4.332   5.021  0.00  0.00    +0.000 A 
ATOM     48  C   LIG    1        0.567  -4.412   5.175  0.00  0.00    +0.000 A 
ATOM     49  C   LIG    1       -0.225  -3.504   4.531  0.00  0.00    +0.000 A 
ATOM     50  C   LIG    1        0.352  -2.530   3.747  0.00  0.00    +0.004 A 
ENDBRANCH  44  45
ENDBRANCH  29  44
ENDBRANCH  26  29
ENDBRANCH   1  26
TORSDOF 16
