REMARK  Name = molecules/KKGQTZUTZRNORY-UHFFFAOYSA-N.pdb
REMARK                            x       y       z     vdW  Elec       q    Type
REMARK                         _______ _______ _______ _____ _____    ______ ____
ROOT
ATOM      1  C   LIG    1        0.338  -1.972  -0.141  0.00  0.00    -0.047 A 
ATOM      2  C   LIG    1        0.192  -0.630   0.113  0.00  0.00    +0.004 A 
ATOM      3  C   LIG    1       -0.950   0.072  -0.249  0.00  0.00    +0.004 A 
ATOM      4  C   LIG    1       -1.988  -0.570  -0.885  0.00  0.00    -0.047 A 
ATOM      5  C   LIG    1       -1.860  -1.909  -1.146  0.00  0.00    +0.004 A 
ATOM      6  C   LIG    1       -0.725  -2.587  -0.782  0.00  0.00    +0.004 A 
ENDROOT
BRANCH   1   7
ATOM      7  C   LIG    1        1.553  -2.651   0.270  0.00  0.00    +0.035 C 
BRANCH   7   8
ATOM      8  C   LIG    1        2.665  -2.760  -0.684  0.00  0.00    +0.005 C 
BRANCH   8   9
ATOM      9  C   LIG    1        3.290  -1.494  -1.167  0.00  0.00    +0.000 C 
BRANCH   9  10
ATOM     10  C   LIG    1        3.939  -0.661  -0.092  0.00  0.00    +0.000 C 
BRANCH  10  11
ATOM     11  C   LIG    1        4.521   0.589  -0.694  0.00  0.00    -0.000 C 
BRANCH  11  12
ATOM     12  C   LIG    1        5.187   1.469   0.333  0.00  0.00    -0.000 C 
BRANCH  12  13
ATOM     13  C   LIG    1        6.314   0.801   1.044  0.00  0.00    -0.003 C 
ATOM     14  C   LIG    1        6.889   1.793   2.040  0.00  0.00    +0.004 C 
ENDBRANCH  12  13
ENDBRANCH  11  12
ENDBRANCH  10  11
ENDBRANCH   9  10
ENDBRANCH   8   9
ENDBRANCH   7   8
ENDBRANCH   1   7
BRANCH   4  15
ATOM     15  C   LIG    1       -3.183   0.233  -1.247  0.00  0.00    +0.037 C 
BRANCH  15  16
ATOM     16  C   LIG    1       -4.131   0.169  -0.079  0.00  0.00    +0.031 C 
BRANCH  16  17
ATOM     17  C   LIG    1       -5.398   0.956  -0.332  0.00  0.00    +0.063 C 
BRANCH  17  18
ATOM     18  N   LIG    1       -6.075   0.378  -1.465  0.00  0.00    -0.321 NA
ATOM     19  H   LIG    1       -6.712  -0.402  -1.226  0.00  0.00    +0.119 HD
ATOM     20  H   LIG    1       -6.504   1.079  -2.102  0.00  0.00    +0.119 HD
ENDBRANCH  17  18
BRANCH  17  21
ATOM     21  C   LIG    1       -6.272   0.925   0.904  0.00  0.00    +0.180 C 
BRANCH  21  22
ATOM     22  O   LIG    1       -6.629  -0.372   1.253  0.00  0.00    -0.393 OA
ATOM     23  H   LIG    1       -5.836  -0.846   1.562  0.00  0.00    +0.209 HD
ENDBRANCH  21  22
ENDBRANCH  17  21
BRANCH  17  24
ATOM     24  C   LIG    1       -5.038   2.406  -0.576  0.00  0.00    +0.180 C 
BRANCH  24  25
ATOM     25  O   LIG    1       -4.389   2.899   0.555  0.00  0.00    -0.393 OA
ATOM     26  H   LIG    1       -5.065   3.202   1.203  0.00  0.00    +0.209 HD
ENDBRANCH  24  25
ENDBRANCH  17  24
ENDBRANCH  16  17
ENDBRANCH  15  16
ENDBRANCH   4  15
TORSDOF 15
