REMARK  Name = molecules/KKZJGLLVHKMTCM-UHFFFAOYSA-N.pdb
REMARK                            x       y       z     vdW  Elec       q    Type
REMARK                         _______ _______ _______ _____ _____    ______ ____
ROOT
ATOM      1  C   LIG    1       -2.006  -0.849   0.022  0.00  0.00    +0.039 A 
ATOM      2  C   LIG    1       -1.553   0.435   0.103  0.00  0.00    +0.025 A 
ATOM      3  C   LIG    1       -0.214   0.768   0.076  0.00  0.00    +0.025 A 
ATOM      4  C   LIG    1        0.759  -0.234  -0.038  0.00  0.00    +0.039 A 
ATOM      5  C   LIG    1        0.348  -1.531  -0.122  0.00  0.00    +0.056 A 
ATOM      6  C   LIG    1        1.337  -2.613  -0.261  0.00  0.00    +0.200 C 
ATOM      7  O   LIG    1        2.547  -2.360  -0.283  0.00  0.00    -0.286 OA
ATOM      8  C   LIG    1        0.957  -4.015  -0.376  0.00  0.00    +0.078 A 
ATOM      9  C   LIG    1       -0.392  -4.328  -0.353  0.00  0.00    +0.078 A 
ATOM     10  C   LIG    1       -1.371  -3.241  -0.213  0.00  0.00    +0.200 C 
ATOM     11  O   LIG    1       -2.559  -3.606  -0.208  0.00  0.00    -0.286 OA
ATOM     12  C   LIG    1       -0.835  -5.638  -0.457  0.00  0.00    +0.129 A 
ATOM     13  C   LIG    1        0.054  -6.682  -0.586  0.00  0.00    +0.050 A 
ATOM     14  C   LIG    1        1.385  -6.382  -0.609  0.00  0.00    +0.050 A 
ATOM     15  C   LIG    1        1.861  -5.050  -0.505  0.00  0.00    +0.129 A 
ATOM     16  C   LIG    1       -1.013  -1.839  -0.094  0.00  0.00    +0.056 A 
ENDROOT
BRANCH   1  17
ATOM     17  N   LIG    1       -3.346  -1.203   0.187  0.00  0.00    -0.342 N 
ATOM     18  H   LIG    1       -3.419  -2.125   0.821  0.00  0.00    +0.146 HD
BRANCH  17  19
ATOM     19  C   LIG    1       -4.597  -0.704  -0.140  0.00  0.00    +0.116 C 
BRANCH  19  20
ATOM     20  C   LIG    1       -5.036   0.685   0.072  0.00  0.00    +0.099 C 
BRANCH  20  21
ATOM     21  N   LIG    1       -4.422   1.725  -0.675  0.00  0.00    -0.312 NA
ATOM     22  H   LIG    1       -4.460   1.578  -1.706  0.00  0.00    +0.122 HD
BRANCH  21  23
ATOM     23  C   LIG    1       -4.931   3.028  -0.381  0.00  0.00    +0.108 C 
BRANCH  23  24
ATOM     24  C   LIG    1       -4.595   3.518   0.998  0.00  0.00    +0.171 C 
BRANCH  24  25
ATOM     25  O   LIG    1       -3.244   3.607   1.235  0.00  0.00    -0.394 OA
ATOM     26  H   LIG    1       -2.970   4.491   1.591  0.00  0.00    +0.209 HD
ENDBRANCH  24  25
ENDBRANCH  23  24
ENDBRANCH  21  23
ENDBRANCH  20  21
ENDBRANCH  19  20
ENDBRANCH  17  19
ENDBRANCH   1  17
BRANCH  15  27
ATOM     27  O   LIG    1        3.196  -4.832  -0.536  0.00  0.00    -0.506 OA
ATOM     28  H   LIG    1        3.718  -4.040  -0.482  0.00  0.00    +0.292 HD
ENDBRANCH  15  27
BRANCH  12  29
ATOM     29  O   LIG    1       -2.187  -5.944  -0.433  0.00  0.00    -0.506 OA
ATOM     30  H   LIG    1       -2.543  -6.880  -0.504  0.00  0.00    +0.292 HD
ENDBRANCH  12  29
BRANCH   4  31
ATOM     31  N   LIG    1        2.127   0.166  -0.081  0.00  0.00    -0.342 N 
ATOM     32  H   LIG    1        2.944  -0.423  -0.226  0.00  0.00    +0.146 HD
BRANCH  31  33
ATOM     33  C   LIG    1        2.451   1.594   0.091  0.00  0.00    +0.116 C 
BRANCH  33  34
ATOM     34  C   LIG    1        3.917   1.857  -0.030  0.00  0.00    +0.099 C 
BRANCH  34  35
ATOM     35  N   LIG    1        4.189   3.260   0.160  0.00  0.00    -0.312 NA
ATOM     36  H   LIG    1        3.674   3.821  -0.536  0.00  0.00    +0.122 HD
BRANCH  35  37
ATOM     37  C   LIG    1        5.629   3.533   0.021  0.00  0.00    +0.108 C 
BRANCH  37  38
ATOM     38  C   LIG    1        5.913   4.998   0.266  0.00  0.00    +0.171 C 
BRANCH  38  39
ATOM     39  O   LIG    1        7.277   5.211   0.125  0.00  0.00    -0.394 OA
ATOM     40  H   LIG    1        7.820   4.404   0.194  0.00  0.00    +0.209 HD
ENDBRANCH  38  39
ENDBRANCH  37  38
ENDBRANCH  35  37
ENDBRANCH  34  35
ENDBRANCH  33  34
ENDBRANCH  31  33
ENDBRANCH   4  31
TORSDOF 16
