REMARK  Name = molecules/KLBQZWRITKRQQV-MRXNPFEDSA-N.pdb
REMARK                            x       y       z     vdW  Elec       q    Type
REMARK                         _______ _______ _______ _____ _____    ______ ____
ROOT
ATOM      1  C   LIG    1        1.047   4.907  -0.714  0.00  0.00    +0.002 A 
ATOM      2  C   LIG    1        2.267   5.339  -0.276  0.00  0.00    +0.001 A 
ATOM      3  C   LIG    1        3.189   4.391   0.103  0.00  0.00    +0.017 A 
ATOM      4  C   LIG    1        2.925   3.054   0.054  0.00  0.00    +0.034 A 
ATOM      5  S   LIG    1        4.195   1.948   0.580  0.00  0.00    -0.089 S 
ATOM      6  C   LIG    1        3.506   0.303   0.397  0.00  0.00    +0.020 C 
ATOM      7  C   LIG    1        4.312  -0.729   0.741  0.00  0.00    +0.014 C 
ATOM      8  C   LIG    1        3.892  -2.028   0.632  0.00  0.00    +0.015 C 
ATOM      9  C   LIG    1        2.622  -2.248   0.161  0.00  0.00    +0.006 C 
ATOM     10  C   LIG    1        1.808  -1.177  -0.187  0.00  0.00    +0.021 C 
ATOM     11  C   LIG    1        2.217   0.142  -0.083  0.00  0.00    +0.116 C 
ATOM     12  N   LIG    1        1.356   1.218  -0.455  0.00  0.00    -0.313 N 
ATOM     13  C   LIG    1        1.705   2.593  -0.384  0.00  0.00    +0.045 A 
ATOM     14  C   LIG    1        0.784   3.543  -0.762  0.00  0.00    +0.024 A 
ENDROOT
BRANCH   9  15
ATOM     15  S   LIG    1        1.996  -3.921  -0.010  0.00  0.00    -0.129 S 
ATOM     16  C   LIG    1        3.288  -5.074   0.524  0.00  0.00    +0.090 C 
ENDBRANCH   9  15
BRANCH  12  17
ATOM     17  C   LIG    1        0.033   0.849  -0.908  0.00  0.00    +0.108 C 
BRANCH  17  18
ATOM     18  C   LIG    1       -0.856   0.447   0.220  0.00  0.00    +0.038 C 
BRANCH  18  19
ATOM     19  C   LIG    1       -2.231   0.048  -0.276  0.00  0.00    +0.058 C 
ATOM     20  N   LIG    1       -3.012  -0.320   0.887  0.00  0.00    -0.302 NA
ATOM     21  C   LIG    1       -3.944   0.702   1.283  0.00  0.00    +0.105 C 
ATOM     22  C   LIG    1       -3.584  -1.626   0.829  0.00  0.00    +0.084 C 
ATOM     23  C   LIG    1       -4.376  -1.868  -0.439  0.00  0.00    +0.015 C 
ATOM     24  C   LIG    1       -3.653  -1.356  -1.656  0.00  0.00    +0.003 C 
ATOM     25  C   LIG    1       -2.214  -1.103  -1.240  0.00  0.00    +0.019 C 
ENDBRANCH  18  19
ENDBRANCH  17  18
ENDBRANCH  12  17
TORSDOF 4
