REMARK  Name = molecules/KLOHYVOVXOUKQI-UHFFFAOYSA-N.pdb
REMARK                            x       y       z     vdW  Elec       q    Type
REMARK                         _______ _______ _______ _____ _____    ______ ____
ROOT
ATOM      1  N   LIG    1       -0.449   0.440   0.765  0.00  0.00    -0.322 N 
ENDROOT
BRANCH   1   2
ATOM      2  C   LIG    1        0.691  -0.111   0.086  0.00  0.00    +0.076 C 
ATOM      3  C   LIG    1        1.629  -0.726   1.100  0.00  0.00    +0.038 C 
ATOM      4  C   LIG    1        2.437  -1.783   0.380  0.00  0.00    +0.086 C 
ATOM      5  N   LIG    1        2.807  -1.318  -0.926  0.00  0.00    -0.305 NA
ATOM      6  C   LIG    1        3.784  -0.275  -0.936  0.00  0.00    +0.104 C 
ATOM      7  C   LIG    1        1.722  -1.141  -1.841  0.00  0.00    +0.086 C 
ATOM      8  C   LIG    1        0.388  -0.980  -1.086  0.00  0.00    +0.038 C 
ENDBRANCH   1   2
BRANCH   1   9
ATOM      9  C   LIG    1       -0.751   1.802   0.523  0.00  0.00    +0.030 A 
ATOM     10  C   LIG    1       -0.245   2.772   1.348  0.00  0.00    +0.023 A 
ATOM     11  C   LIG    1       -0.538   4.127   1.111  0.00  0.00    +0.002 A 
ATOM     12  C   LIG    1       -1.340   4.464   0.039  0.00  0.00    +0.000 A 
ATOM     13  C   LIG    1       -1.853   3.498  -0.795  0.00  0.00    +0.002 A 
ATOM     14  C   LIG    1       -1.541   2.163  -0.529  0.00  0.00    +0.023 A 
ENDBRANCH   1   9
BRANCH   1  15
ATOM     15  C   LIG    1       -1.296  -0.275   1.665  0.00  0.00    +0.147 C 
BRANCH  15  16
ATOM     16  C   LIG    1       -1.893  -1.473   0.975  0.00  0.00    +0.007 A 
ATOM     17  S   LIG    1       -1.653  -3.134   1.286  0.00  0.00    -0.100 S 
ATOM     18  C   LIG    1       -2.684  -3.791   0.105  0.00  0.00    +0.045 A 
ATOM     19  C   LIG    1       -3.199  -2.684  -0.513  0.00  0.00    +0.008 A 
ATOM     20  C   LIG    1       -2.786  -1.478  -0.059  0.00  0.00    +0.013 A 
ENDBRANCH  15  16
ENDBRANCH   1  15
TORSDOF 4
