REMARK  Name = molecules/KMSKQZKKOZQFFG-YXRRJAAWSA-N.pdb
REMARK                            x       y       z     vdW  Elec       q    Type
REMARK                         _______ _______ _______ _____ _____    ______ ____
ROOT
ATOM      1  C   LIG    1       -0.728  -0.714  -1.649  0.00  0.00    +0.158 C 
ATOM      2  C   LIG    1       -2.027  -0.348  -1.049  0.00  0.00    +0.030 A 
ATOM      3  C   LIG    1       -2.228  -0.325   0.335  0.00  0.00    +0.134 A 
ATOM      4  C   LIG    1       -3.465   0.035   0.812  0.00  0.00    +0.078 A 
ATOM      5  C   LIG    1       -3.726   0.073   2.270  0.00  0.00    +0.202 C 
ATOM      6  O   LIG    1       -2.838  -0.218   3.119  0.00  0.00    -0.286 OA
ATOM      7  C   LIG    1       -5.022   0.448   2.806  0.00  0.00    +0.075 A 
ATOM      8  C   LIG    1       -5.219   0.466   4.188  0.00  0.00    +0.132 A 
ATOM      9  C   LIG    1       -6.453   0.823   4.651  0.00  0.00    +0.046 A 
ATOM     10  C   LIG    1       -7.459   1.152   3.756  0.00  0.00    +0.004 A 
ATOM     11  C   LIG    1       -7.254   1.130   2.392  0.00  0.00    +0.012 A 
ATOM     12  C   LIG    1       -6.007   0.769   1.920  0.00  0.00    +0.037 A 
ATOM     13  C   LIG    1       -5.775   0.741   0.460  0.00  0.00    +0.198 C 
ATOM     14  O   LIG    1       -6.706   1.043  -0.297  0.00  0.00    -0.286 OA
ATOM     15  C   LIG    1       -4.481   0.366  -0.074  0.00  0.00    +0.078 A 
ATOM     16  C   LIG    1       -4.257   0.335  -1.454  0.00  0.00    +0.132 A 
ATOM     17  C   LIG    1       -3.022  -0.025  -1.942  0.00  0.00    +0.007 A 
ATOM     18  C   LIG    1       -2.655  -0.131  -3.372  0.00  0.00    +0.082 C 
ATOM     19  C   LIG    1       -2.128  -1.561  -3.531  0.00  0.00    +0.133 C 
ATOM     20  C   LIG    1       -0.938  -1.824  -2.665  0.00  0.00    +0.079 C 
ENDROOT
BRANCH   3  21
ATOM     21  O   LIG    1       -1.202  -0.659   1.140  0.00  0.00    -0.506 OA
ATOM     22  H   LIG    1       -1.115  -0.712   2.085  0.00  0.00    +0.292 HD
ENDBRANCH   3  21
BRANCH   8  23
ATOM     23  O   LIG    1       -4.203   0.135   5.067  0.00  0.00    -0.494 OA
ATOM     24  C   LIG    1       -4.460   0.171   6.456  0.00  0.00    +0.277 C 
ENDBRANCH   8  23
BRANCH  16  25
ATOM     25  O   LIG    1       -5.205   0.646  -2.365  0.00  0.00    -0.506 OA
ATOM     26  H   LIG    1       -6.112   0.919  -2.328  0.00  0.00    +0.292 HD
ENDBRANCH  16  25
BRANCH  19  27
ATOM     27  O   LIG    1       -3.153  -2.414  -3.042  0.00  0.00    -0.381 OA
ATOM     28  H   LIG    1       -3.018  -2.554  -2.064  0.00  0.00    +0.211 HD
ENDBRANCH  19  27
BRANCH  19  29
ATOM     29  C   LIG    1       -1.893  -1.884  -4.952  0.00  0.00    +0.190 C 
ATOM     30  O   LIG    1       -1.060  -1.294  -5.613  0.00  0.00    -0.292 OA
BRANCH  29  31
ATOM     31  C   LIG    1       -2.682  -2.952  -5.614  0.00  0.00    +0.233 C 
BRANCH  31  32
ATOM     32  O   LIG    1       -2.333  -3.114  -6.932  0.00  0.00    -0.387 OA
ATOM     33  H   LIG    1       -2.571  -4.021  -7.273  0.00  0.00    +0.210 HD
ENDBRANCH  31  32
ENDBRANCH  29  31
ENDBRANCH  19  29
BRANCH   1  34
ATOM     34  O   LIG    1        0.242  -0.991  -0.724  0.00  0.00    -0.343 OA
BRANCH  34  35
ATOM     35  C   LIG    1        1.379  -0.168  -0.902  0.00  0.00    +0.253 C 
ATOM     36  C   LIG    1        1.569   0.653   0.317  0.00  0.00    +0.082 C 
ATOM     37  C   LIG    1        2.888   1.397   0.336  0.00  0.00    +0.087 C 
ATOM     38  C   LIG    1        3.972   0.443  -0.006  0.00  0.00    +0.167 C 
ATOM     39  C   LIG    1        3.657  -0.372  -1.223  0.00  0.00    +0.149 C 
ATOM     40  C   LIG    1        3.843   0.416  -2.506  0.00  0.00    +0.041 C 
ATOM     41  O   LIG    1        2.436  -1.030  -1.171  0.00  0.00    -0.346 OA
BRANCH  37  42
ATOM     42  N   LIG    1        2.786   2.516  -0.562  0.00  0.00    -0.325 NA
ATOM     43  H   LIG    1        1.955   3.109  -0.388  0.00  0.00    +0.119 HD
ATOM     44  H   LIG    1        3.619   3.147  -0.529  0.00  0.00    +0.119 HD
ENDBRANCH  37  42
BRANCH  38  45
ATOM     45  O   LIG    1        5.212   1.032  -0.195  0.00  0.00    -0.344 OA
BRANCH  45  46
ATOM     46  C   LIG    1        6.168   0.562   0.697  0.00  0.00    +0.251 C 
ATOM     47  C   LIG    1        6.552   1.720   1.594  0.00  0.00    +0.061 C 
ATOM     48  C   LIG    1        7.863   1.437   2.281  0.00  0.00    +0.007 C 
ATOM     49  C   LIG    1        8.007  -0.069   2.389  0.00  0.00    +0.028 C 
ATOM     50  C   LIG    1        7.992  -0.709   1.024  0.00  0.00    +0.163 C 
ATOM     51  O   LIG    1        7.296   0.069   0.093  0.00  0.00    -0.351 OA
ENDBRANCH  45  46
ENDBRANCH  38  45
ENDBRANCH  34  35
ENDBRANCH   1  34
TORSDOF 12
