REMARK  Name = molecules/KNAHARQHSZJURB-UHFFFAOYSA-N.pdb
REMARK                            x       y       z     vdW  Elec       q    Type
REMARK                         _______ _______ _______ _____ _____    ______ ____
ROOT
ATOM      1  C   LIG    1        0.470   0.145  -0.137  0.00  0.00    +0.023 A 
ATOM      2  C   LIG    1        1.342   0.909   0.613  0.00  0.00    +0.091 A 
ATOM      3  C   LIG    1        2.665   0.570   0.801  0.00  0.00    +0.252 A 
ATOM      4  O   LIG    1        3.453   1.277   1.489  0.00  0.00    -0.268 OA
ATOM      5  N   LIG    1        3.101  -0.562   0.216  0.00  0.00    -0.303 N 
ATOM      6  H   LIG    1        4.110  -0.862   0.333  0.00  0.00    +0.171 HD
ATOM      7  C   LIG    1        2.263  -1.317  -0.517  0.00  0.00    +0.158 A 
ATOM      8  S   LIG    1        2.879  -2.686  -1.198  0.00  0.00    -0.013 S 
ATOM      9  N   LIG    1        0.962  -0.986  -0.703  0.00  0.00    -0.339 N 
ATOM     10  H   LIG    1        0.336  -1.603  -1.285  0.00  0.00    +0.167 HD
ENDROOT
BRANCH   1  11
ATOM     11  C   LIG    1       -0.955   0.518  -0.333  0.00  0.00    +0.053 C 
BRANCH  11  13
ATOM     12  C   LIG    1       -3.264   0.373   0.442  0.00  0.00    +0.004 C 
ATOM     13  C   LIG    1       -1.850  -0.056   0.724  0.00  0.00    +0.003 C 
ENDBRANCH  11  13
ENDBRANCH   1  11
TORSDOF 2
