REMARK  Name = molecules/KNHUKKLJHYUCFP-UHFFFAOYSA-N.pdb
REMARK                            x       y       z     vdW  Elec       q    Type
REMARK                         _______ _______ _______ _____ _____    ______ ____
ROOT
ATOM      1  C   LIG    1        0.285  -0.712  -0.642  0.00  0.00    +0.200 C 
ATOM      2  C   LIG    1        0.374  -1.840   0.392  0.00  0.00    +0.067 C 
ATOM      3  C   LIG    1        0.952  -1.330  -1.894  0.00  0.00    +0.067 C 
ENDROOT
BRANCH   1   4
ATOM      4  C   LIG    1        1.093   0.410  -0.153  0.00  0.00    +0.351 C 
ATOM      5  O   LIG    1        0.661   1.551  -0.070  0.00  0.00    -0.246 OA
BRANCH   4   6
ATOM      6  O   LIG    1        2.406   0.145   0.227  0.00  0.00    -0.462 OA
BRANCH   6   8
ATOM      7  C   LIG    1        4.608   0.441   1.012  0.00  0.00    +0.048 C 
ATOM      8  C   LIG    1        3.281   1.127   0.710  0.00  0.00    +0.229 C 
ENDBRANCH   6   8
ENDBRANCH   4   6
ENDBRANCH   1   4
BRANCH   1   9
ATOM      9  O   LIG    1       -0.999  -0.431  -1.015  0.00  0.00    -0.475 OA
BRANCH   9  10
ATOM     10  C   LIG    1       -2.082   0.073  -0.404  0.00  0.00    +0.122 A 
ATOM     11  C   LIG    1       -2.953  -0.783   0.282  0.00  0.00    +0.047 A 
ATOM     12  C   LIG    1       -4.082  -0.317   0.932  0.00  0.00    +0.023 A 
ATOM     13  C   LIG    1       -4.386   1.022   0.922  0.00  0.00    +0.041 A 
ATOM     14 CL   LIG    1       -5.827   1.571   1.759  0.00  0.00    -0.084 Cl
ATOM     15  C   LIG    1       -3.547   1.886   0.255  0.00  0.00    +0.023 A 
ATOM     16  C   LIG    1       -2.402   1.404  -0.403  0.00  0.00    +0.047 A 
ENDBRANCH   9  10
ENDBRANCH   1   9
TORSDOF 5
