REMARK  Name = molecules/KOHIRBRYDXPAMZ-VVIORFSUSA-N.pdb
REMARK                            x       y       z     vdW  Elec       q    Type
REMARK                         _______ _______ _______ _____ _____    ______ ____
ROOT
ATOM      1  N   LIG    1       -0.147   0.201   0.577  0.00  0.00    -0.311 NA
ATOM      2  H   LIG    1       -0.613   0.908  -0.095  0.00  0.00    +0.122 HD
ENDROOT
BRANCH   1   3
ATOM      3  C   LIG    1       -0.560  -1.121   0.250  0.00  0.00    +0.116 C 
BRANCH   3   4
ATOM      4  C   LIG    1       -1.923  -1.523   0.681  0.00  0.00    +0.169 C 
BRANCH   4   5
ATOM      5  C   LIG    1       -3.061  -0.737   0.094  0.00  0.00    +0.203 C 
ATOM      6  C   LIG    1       -3.105   0.681   0.613  0.00  0.00    +0.052 C 
ATOM      7  C   LIG    1       -4.400   1.087   1.249  0.00  0.00    +0.042 C 
ATOM      8  C   LIG    1       -5.595   0.517   0.623  0.00  0.00    -0.003 A 
ATOM      9  C   LIG    1       -6.746   1.255   0.478  0.00  0.00    +0.045 A 
ATOM     10  C   LIG    1       -7.826   0.617  -0.115  0.00  0.00    +0.124 A 
ATOM     11  F   LIG    1       -8.995   1.275  -0.293  0.00  0.00    -0.205 F 
ATOM     12  C   LIG    1       -7.748  -0.700  -0.541  0.00  0.00    +0.042 A 
ATOM     13  C   LIG    1       -6.585  -1.409  -0.383  0.00  0.00    +0.049 A 
ATOM     14  C   LIG    1       -5.497  -0.815   0.197  0.00  0.00    +0.124 A 
ATOM     15  O   LIG    1       -4.274  -1.423   0.410  0.00  0.00    -0.486 OA
ENDBRANCH   4   5
BRANCH   4  16
ATOM     16  O   LIG    1       -2.061  -2.868   0.178  0.00  0.00    -0.387 OA
ATOM     17  H   LIG    1       -2.159  -2.758  -0.817  0.00  0.00    +0.210 HD
ENDBRANCH   4  16
ENDBRANCH   3   4
ENDBRANCH   1   3
BRANCH   1  18
ATOM     18  C   LIG    1        1.302   0.314   0.326  0.00  0.00    +0.116 C 
BRANCH  18  19
ATOM     19  C   LIG    1        1.611   0.224  -1.137  0.00  0.00    +0.169 C 
BRANCH  19  20
ATOM     20  C   LIG    1        3.116   0.270  -1.341  0.00  0.00    +0.203 C 
ATOM     21  O   LIG    1        3.747  -0.767  -0.619  0.00  0.00    -0.486 OA
ATOM     22  C   LIG    1        4.998  -0.584  -0.067  0.00  0.00    +0.124 A 
ATOM     23  C   LIG    1        5.483  -1.548   0.803  0.00  0.00    +0.049 A 
ATOM     24  C   LIG    1        6.733  -1.419   1.387  0.00  0.00    +0.042 A 
ATOM     25  C   LIG    1        7.507  -0.316   1.099  0.00  0.00    +0.124 A 
ATOM     26  F   LIG    1        8.732  -0.190   1.671  0.00  0.00    -0.205 F 
ATOM     27  C   LIG    1        7.011   0.639   0.228  0.00  0.00    +0.045 A 
ATOM     28  C   LIG    1        5.779   0.531  -0.359  0.00  0.00    -0.003 A 
ATOM     29  C   LIG    1        5.209   1.533  -1.294  0.00  0.00    +0.042 C 
ATOM     30  C   LIG    1        3.717   1.593  -0.950  0.00  0.00    +0.052 C 
ENDBRANCH  19  20
BRANCH  19  31
ATOM     31  O   LIG    1        1.003   1.236  -1.828  0.00  0.00    -0.387 OA
ATOM     32  H   LIG    1        1.122   2.091  -1.366  0.00  0.00    +0.210 HD
ENDBRANCH  19  31
ENDBRANCH  18  19
ENDBRANCH   1  18
TORSDOF 8
