REMARK  Name = molecules/KPBZROQVTHLCDU-GOSISDBHSA-N.pdb
REMARK                            x       y       z     vdW  Elec       q    Type
REMARK                         _______ _______ _______ _____ _____    ______ ____
ROOT
ATOM      1  C   LIG    1       -0.351  -1.029  -0.107  0.00  0.00    +0.065 C 
ATOM      2  C   LIG    1       -0.526  -2.256   0.289  0.00  0.00    +0.016 C 
ATOM      3  C   LIG    1       -0.586  -2.531   1.775  0.00  0.00    +0.061 C 
ATOM      4  N   LIG    1       -0.705  -3.359  -0.585  0.00  0.00    -0.321 N 
ATOM      5  H   LIG    1       -0.848  -4.332  -0.236  0.00  0.00    +0.152 HD
ATOM      6  C   LIG    1       -0.685  -3.101  -1.978  0.00  0.00    +0.016 C 
ATOM      7  C   LIG    1       -0.482  -1.854  -2.426  0.00  0.00    +0.065 C 
ATOM      8  C   LIG    1       -0.898  -4.242  -2.933  0.00  0.00    +0.061 C 
ATOM      9  C   LIG    1       -0.259  -0.687  -1.547  0.00  0.00    +0.097 C 
ENDROOT
BRANCH   9  10
ATOM     10  C   LIG    1       -1.200   0.416  -1.869  0.00  0.00    -0.015 A 
ATOM     11  C   LIG    1       -2.547   0.239  -1.574  0.00  0.00    +0.006 A 
ATOM     12  C   LIG    1       -3.508   1.181  -1.865  0.00  0.00    +0.002 A 
ATOM     13  C   LIG    1       -3.112   2.348  -2.478  0.00  0.00    +0.021 A 
ATOM     14  C   LIG    1       -1.773   2.528  -2.773  0.00  0.00    +0.060 A 
ATOM     15 CL   LIG    1       -1.274   4.012  -3.546  0.00  0.00    -0.082 Cl
ATOM     16  C   LIG    1       -0.803   1.581  -2.478  0.00  0.00    +0.063 A 
ATOM     17 CL   LIG    1        0.884   1.880  -2.808  0.00  0.00    -0.082 Cl
ENDBRANCH   9  10
BRANCH   1  18
ATOM     18  C   LIG    1       -0.214   0.086   0.890  0.00  0.00    +0.340 C 
ATOM     19  O   LIG    1       -0.074   1.248   0.443  0.00  0.00    -0.245 OA
BRANCH  18  20
ATOM     20  O   LIG    1       -0.231  -0.074   2.196  0.00  0.00    -0.424 OA
BRANCH  20  21
ATOM     21  C   LIG    1       -0.162   0.486   3.389  0.00  0.00    +0.473 C 
BRANCH  21  22
ATOM     22  O   LIG    1        0.936   1.205   3.860  0.00  0.00    -0.427 OA
BRANCH  22  23
ATOM     23  C   LIG    1        1.514   2.350   3.459  0.00  0.00    +0.310 C 
ATOM     24  O   LIG    1        1.035   2.977   2.488  0.00  0.00    -0.251 OA
BRANCH  23  25
ATOM     25  C   LIG    1        2.744   2.938   4.130  0.00  0.00    +0.120 C 
BRANCH  25  26
ATOM     26  C   LIG    1        3.137   1.974   5.210  0.00  0.00    +0.008 C 
ATOM     27  C   LIG    1        4.347   2.396   5.972  0.00  0.00    +0.004 C 
ENDBRANCH  25  26
ENDBRANCH  23  25
ENDBRANCH  22  23
ENDBRANCH  21  22
ENDBRANCH  20  21
ENDBRANCH  18  20
ENDBRANCH   1  18
BRANCH   7  28
ATOM     28  C   LIG    1       -0.524  -1.665  -3.869  0.00  0.00    +0.337 C 
ATOM     29  O   LIG    1       -0.739  -2.642  -4.673  0.00  0.00    -0.245 OA
BRANCH  28  30
ATOM     30  O   LIG    1       -0.347  -0.463  -4.531  0.00  0.00    -0.465 OA
ATOM     31  C   LIG    1       -0.405  -0.372  -5.949  0.00  0.00    +0.280 C 
ENDBRANCH  28  30
ENDBRANCH   7  28
TORSDOF 10
