REMARK  Name = molecules/KPEUDULLQDHKAZ-VROINQGHSA-N.pdb
REMARK                            x       y       z     vdW  Elec       q    Type
REMARK                         _______ _______ _______ _____ _____    ______ ____
ROOT
ATOM      1  C   LIG    1       -3.300  -1.611  -0.881  0.00  0.00    +0.015 C 
ATOM      2  C   LIG    1       -3.690  -0.206  -0.508  0.00  0.00    +0.011 C 
ATOM      3  C   LIG    1       -3.275   0.136   0.917  0.00  0.00    +0.002 C 
ATOM      4  C   LIG    1       -4.176  -0.713   1.724  0.00  0.00    +0.008 C 
ATOM      5  C   LIG    1       -5.509  -0.565   1.006  0.00  0.00    +0.049 C 
ATOM      6  C   LIG    1       -1.825  -0.116   1.046  0.00  0.00    +0.000 C 
ATOM      7  C   LIG    1       -1.288  -0.099   2.439  0.00  0.00    +0.009 C 
ATOM      8  C   LIG    1        0.157  -0.564   2.388  0.00  0.00    +0.036 C 
ATOM      9  C   LIG    1        0.910   0.148   1.335  0.00  0.00    -0.040 A 
ATOM     10  C   LIG    1        2.305   0.066   1.421  0.00  0.00    +0.052 A 
ATOM     11  C   LIG    1        3.117   0.695   0.489  0.00  0.00    +0.157 A 
ATOM     12  C   LIG    1        2.526   1.410  -0.535  0.00  0.00    +0.049 A 
ATOM     13  C   LIG    1        1.129   1.478  -0.601  0.00  0.00    +0.008 A 
ATOM     14  C   LIG    1        0.329   0.862   0.312  0.00  0.00    -0.041 A 
ATOM     15  C   LIG    1       -1.124   0.960   0.204  0.00  0.00    +0.023 C 
ATOM     16  C   LIG    1       -1.579   0.917  -1.213  0.00  0.00    +0.009 C 
ATOM     17  C   LIG    1       -5.174  -0.079  -0.402  0.00  0.00    +0.132 C 
ATOM     18  C   LIG    1       -3.043   0.785  -1.413  0.00  0.00    +0.011 C 
ENDROOT
BRANCH  17  19
ATOM     19  C   LIG    1       -5.622   1.304  -0.599  0.00  0.00    -0.070 C 
ATOM     20  C   LIG    1       -5.988   2.442  -0.779  0.00  0.00    +0.007 C 
ENDBRANCH  17  19
BRANCH  17  21
ATOM     21  O   LIG    1       -5.762  -0.891  -1.367  0.00  0.00    -0.376 OA
ATOM     22  H   LIG    1       -6.726  -0.719  -1.485  0.00  0.00    +0.211 HD
ENDBRANCH  17  21
BRANCH  11  23
ATOM     23  O   LIG    1        4.501   0.606   0.585  0.00  0.00    -0.346 OA
BRANCH  23  24
ATOM     24  S   LIG    1        5.261  -0.684  -0.215  0.00  0.00    +0.123 S 
ATOM     25  O   LIG    1        4.863  -1.947   0.495  0.00  0.00    -0.137 OA
ATOM     26  O   LIG    1        4.893  -0.703  -1.664  0.00  0.00    -0.137 OA
BRANCH  24  27
ATOM     27  C   LIG    1        7.027  -0.540  -0.109  0.00  0.00    +0.165 C 
ATOM     28  C   LIG    1        7.504   0.769  -0.710  0.00  0.00    +0.035 C 
ATOM     29  C   LIG    1        7.643  -1.683  -0.865  0.00  0.00    +0.035 C 
ENDBRANCH  24  27
ENDBRANCH  23  24
ENDBRANCH  11  23
TORSDOF 5
