REMARK  Name = molecules/KPWSJANDNDDRMB-QAQDUYKDSA-N.pdb
REMARK                            x       y       z     vdW  Elec       q    Type
REMARK                         _______ _______ _______ _____ _____    ______ ____
ROOT
ATOM      1  C   LIG    1        1.088  -0.209  -0.187  0.00  0.00    +0.085 C 
ENDROOT
BRANCH   1   5
ATOM      2  N   LIG    1        5.072   0.644  -0.245  0.00  0.00    -0.326 N 
ATOM      3  C   LIG    1        4.187   1.755   0.070  0.00  0.00    +0.120 C 
ATOM      4  C   LIG    1        2.832   1.238   0.391  0.00  0.00    +0.103 C 
ATOM      5  N   LIG    1        2.329   0.373  -0.656  0.00  0.00    -0.299 NA
ATOM      6  C   LIG    1        3.224  -0.772  -0.841  0.00  0.00    +0.103 C 
ATOM      7  C   LIG    1        4.580  -0.309  -1.206  0.00  0.00    +0.120 C 
BRANCH   2  15
ATOM      8  C   LIG    1        6.725  -0.504   1.117  0.00  0.00    +0.080 A 
ATOM      9  C   LIG    1        7.997  -0.562   1.712  0.00  0.00    +0.061 A 
ATOM     10 CL   LIG    1        8.469  -1.942   2.676  0.00  0.00    -0.082 Cl
ATOM     11  C   LIG    1        8.890   0.469   1.544  0.00  0.00    +0.021 A 
ATOM     12  C   LIG    1        8.514   1.545   0.788  0.00  0.00    +0.003 A 
ATOM     13  C   LIG    1        7.244   1.594   0.198  0.00  0.00    +0.025 A 
ATOM     14 CL   LIG    1        5.692  -1.860   1.401  0.00  0.00    -0.080 Cl
ATOM     15  C   LIG    1        6.344   0.564   0.363  0.00  0.00    +0.050 A 
ENDBRANCH   2  15
ENDBRANCH   1   5
BRANCH   1  16
ATOM     16  C   LIG    1        0.013   0.797   0.024  0.00  0.00    +0.019 C 
BRANCH  16  17
ATOM     17  C   LIG    1       -1.249   0.059   0.510  0.00  0.00    -0.010 C 
ATOM     18  C   LIG    1       -2.291   1.142   0.698  0.00  0.00    +0.005 C 
ATOM     19  C   LIG    1       -3.618   0.494   0.928  0.00  0.00    +0.022 C 
ATOM     20  C   LIG    1       -3.969  -0.237  -0.373  0.00  0.00    +0.074 C 
ATOM     21  C   LIG    1       -3.042  -1.407  -0.487  0.00  0.00    +0.022 C 
ATOM     22  C   LIG    1       -1.604  -0.953  -0.525  0.00  0.00    +0.005 C 
BRANCH  20  23
ATOM     23  N   LIG    1       -5.343  -0.663  -0.275  0.00  0.00    -0.296 N 
ATOM     24  H   LIG    1       -5.599  -1.309   0.497  0.00  0.00    +0.151 HD
ATOM     25  C   LIG    1       -6.345  -0.241  -1.177  0.00  0.00    +0.302 C 
ATOM     26  N   LIG    1       -7.686  -0.690  -1.037  0.00  0.00    -0.292 N 
ATOM     27  C   LIG    1       -8.077  -1.593   0.028  0.00  0.00    +0.133 C 
ATOM     28  C   LIG    1       -8.693  -0.231  -1.989  0.00  0.00    +0.133 C 
ATOM     29  O   LIG    1       -6.007   0.536  -2.095  0.00  0.00    -0.253 OA
ENDBRANCH  20  23
ENDBRANCH  16  17
ENDBRANCH   1  16
TORSDOF 5
