REMARK  Name = molecules/KQKPFRSPSRPDEB-UHFFFAOYSA-N.pdb
REMARK                            x       y       z     vdW  Elec       q    Type
REMARK                         _______ _______ _______ _____ _____    ______ ____
ROOT
ATOM      1  C   LIG    1       -1.561  -0.411   1.454  0.00  0.00    -0.021 A 
ATOM      2  C   LIG    1       -2.255  -1.494   1.918  0.00  0.00    +0.087 A 
ATOM      3  N   LIG    1       -1.531  -2.610   1.709  0.00  0.00    -0.360 N 
ATOM      4  H   LIG    1       -1.786  -3.595   1.952  0.00  0.00    +0.165 HD
ATOM      5  C   LIG    1       -0.353  -2.283   1.105  0.00  0.00    +0.047 A 
ATOM      6  C   LIG    1        0.723  -3.048   0.683  0.00  0.00    +0.026 A 
ATOM      7  C   LIG    1        1.774  -2.396   0.101  0.00  0.00    +0.007 A 
ATOM      8  C   LIG    1        1.812  -1.023  -0.084  0.00  0.00    -0.024 A 
ATOM      9  C   LIG    1        0.728  -0.302   0.346  0.00  0.00    +0.015 A 
ATOM     10  C   LIG    1       -0.378  -0.911   0.950  0.00  0.00    +0.003 A 
ENDROOT
BRANCH   1  11
ATOM     11  C   LIG    1       -2.013   1.002   1.495  0.00  0.00    +0.052 C 
BRANCH  11  12
ATOM     12  C   LIG    1       -2.485   1.487   0.153  0.00  0.00    +0.088 C 
BRANCH  12  13
ATOM     13  N   LIG    1       -3.577   0.772  -0.398  0.00  0.00    -0.308 NA
ATOM     14  C   LIG    1       -4.703   0.577   0.441  0.00  0.00    +0.104 C 
ATOM     15  C   LIG    1       -3.911   1.354  -1.687  0.00  0.00    +0.104 C 
ENDBRANCH  12  13
ENDBRANCH  11  12
ENDBRANCH   1  11
BRANCH   8  16
ATOM     16  C   LIG    1        3.008  -0.416  -0.728  0.00  0.00    +0.220 C 
BRANCH  16  17
ATOM     17  S   LIG    1        4.254   0.011   0.446  0.00  0.00    +0.033 S 
ATOM     18  O   LIG    1        3.804   0.979   1.474  0.00  0.00    -0.158 OA
ATOM     19  O   LIG    1        4.749  -1.267   1.071  0.00  0.00    -0.158 OA
BRANCH  17  20
ATOM     20  N   LIG    1        5.585   0.706  -0.422  0.00  0.00    -0.197 NA
ATOM     21  C   LIG    1        5.195   1.915  -1.121  0.00  0.00    +0.127 C 
ATOM     22  H   LIG    1        5.829   0.013  -1.192  0.00  0.00    +0.147 HD
ENDBRANCH  17  20
ENDBRANCH  16  17
ENDBRANCH   8  16
TORSDOF 6
