REMARK  Name = molecules/KQOXLKOJHVFTRN-UHFFFAOYSA-N.pdb
REMARK                            x       y       z     vdW  Elec       q    Type
REMARK                         _______ _______ _______ _____ _____    ______ ____
ROOT
ATOM      1  C   LIG    1       -3.377   0.260   0.528  0.00  0.00    +0.023 A 
ATOM      2  C   LIG    1       -2.502   0.925   1.333  0.00  0.00    +0.018 A 
ATOM      3  C   LIG    1       -1.148   0.810   1.116  0.00  0.00    -0.008 A 
ATOM      4  C   LIG    1       -0.151   1.468   1.968  0.00  0.00    +0.047 C 
ATOM      5  C   LIG    1       -0.614  -0.003   0.074  0.00  0.00    +0.126 A 
ATOM      6  C   LIG    1       -1.537  -0.665  -0.731  0.00  0.00    -0.008 A 
ATOM      7  C   LIG    1       -1.046  -1.558  -1.828  0.00  0.00    +0.047 C 
ATOM      8  C   LIG    1       -2.897  -0.521  -0.487  0.00  0.00    +0.018 A 
ENDROOT
BRANCH   1  12
ATOM      9  C   LIG    1       -6.945  -0.107   0.954  0.00  0.00    +0.332 A 
ATOM     10  O   LIG    1       -6.466  -0.356   2.157  0.00  0.00    -0.328 OA
ATOM     11  N   LIG    1       -5.198  -0.125   2.081  0.00  0.00    -0.056 NA
ATOM     12  C   LIG    1       -4.834   0.274   0.835  0.00  0.00    +0.202 A 
ATOM     13  N   LIG    1       -5.922   0.296   0.091  0.00  0.00    -0.184 NA
BRANCH   9  14
ATOM     14  C   LIG    1       -8.386  -0.271   0.652  0.00  0.00    +0.472 C 
ATOM     15  F   LIG    1       -9.095   0.323   1.629  0.00  0.00    -0.162 F 
ATOM     16  F   LIG    1       -8.677  -1.646   0.663  0.00  0.00    -0.162 F 
ATOM     17  F   LIG    1       -8.691   0.223  -0.582  0.00  0.00    -0.162 F 
ENDBRANCH   9  14
ENDBRANCH   1  12
BRANCH   5  18
ATOM     18  O   LIG    1        0.683  -0.084  -0.028  0.00  0.00    -0.491 OA
BRANCH  18  19
ATOM     19  C   LIG    1        1.848   0.138  -0.560  0.00  0.00    +0.229 C 
BRANCH  19  20
ATOM     20  C   LIG    1        2.191  -0.665  -1.854  0.00  0.00    +0.049 C 
BRANCH  20  21
ATOM     21  C   LIG    1        3.580  -0.289  -2.238  0.00  0.00    +0.080 C 
BRANCH  21  22
ATOM     22  C   LIG    1        4.550  -0.589  -1.104  0.00  0.00    +0.138 A 
ATOM     23  O   LIG    1        4.504  -1.635  -0.360  0.00  0.00    -0.359 OA
ATOM     24  N   LIG    1        5.453  -1.601   0.563  0.00  0.00    -0.083 NA
ATOM     25  C   LIG    1        6.179  -0.484   0.432  0.00  0.00    +0.081 A 
ATOM     26  C   LIG    1        7.322  -0.011   1.240  0.00  0.00    +0.069 C 
ATOM     27  C   LIG    1        5.605   0.195  -0.664  0.00  0.00    +0.070 A 
ENDBRANCH  21  22
ENDBRANCH  20  21
ENDBRANCH  19  20
ENDBRANCH  18  19
ENDBRANCH   5  18
TORSDOF 7
