REMARK  Name = molecules/KQPKPCNLIDLUMF-MRVPVSSYSA-N.pdb
REMARK                            x       y       z     vdW  Elec       q    Type
REMARK                         _______ _______ _______ _____ _____    ______ ____
ROOT
ATOM      1  C   LIG    1        0.841   0.043   0.306  0.00  0.00    +0.129 C 
ATOM      2  C   LIG    1        1.777  -0.784   1.065  0.00  0.00    +0.236 C 
ATOM      3  O   LIG    1        2.088  -0.478   2.236  0.00  0.00    -0.274 OA
ATOM      4  N   LIG    1        2.362  -1.952   0.510  0.00  0.00    -0.239 N 
ATOM      5  H   LIG    1        2.918  -2.617   1.091  0.00  0.00    +0.159 HD
ATOM      6  C   LIG    1        2.221  -2.277  -0.875  0.00  0.00    +0.312 C 
ATOM      7  O   LIG    1        2.758  -3.325  -1.325  0.00  0.00    -0.252 OA
ATOM      8  N   LIG    1        1.475  -1.402  -1.702  0.00  0.00    -0.239 N 
ATOM      9  H   LIG    1        1.396  -1.680  -2.720  0.00  0.00    +0.159 HD
ATOM     10  C   LIG    1        0.895  -0.247  -1.164  0.00  0.00    +0.236 C 
ATOM     11  O   LIG    1        0.395   0.583  -1.979  0.00  0.00    -0.274 OA
ENDROOT
BRANCH   1  12
ATOM     12  C   LIG    1       -0.550  -0.286   0.781  0.00  0.00    +0.010 C 
ATOM     13  C   LIG    1       -0.692  -1.812   0.701  0.00  0.00    +0.009 C 
BRANCH  12  14
ATOM     14  C   LIG    1       -1.649   0.405   0.039  0.00  0.00    +0.004 C 
BRANCH  14  15
ATOM     15  C   LIG    1       -3.019   0.050   0.594  0.00  0.00    -0.003 C 
ATOM     16  C   LIG    1       -4.104   0.755  -0.167  0.00  0.00    +0.004 C 
ENDBRANCH  14  15
ENDBRANCH  12  14
ENDBRANCH   1  12
BRANCH   1  17
ATOM     17  C   LIG    1        1.121   1.520   0.440  0.00  0.00    +0.052 C 
BRANCH  17  18
ATOM     18  C   LIG    1        2.475   1.887  -0.011  0.00  0.00    -0.033 C 
ATOM     19  C   LIG    1        2.597   2.748  -1.006  0.00  0.00    +0.004 C 
ENDBRANCH  17  18
ENDBRANCH   1  17
TORSDOF 5
