REMARK  Name = molecules/KQXKVJAGOJTNJS-HNNXBMFYSA-N.pdb
REMARK                            x       y       z     vdW  Elec       q    Type
REMARK                         _______ _______ _______ _____ _____    ______ ____
ROOT
ATOM      1  O   LIG    1       -0.831   0.773  -0.623  0.00  0.00    -0.489 OA
ENDROOT
BRANCH   1   2
ATOM      2  C   LIG    1       -1.508  -0.325  -1.044  0.00  0.00    +0.124 A 
ATOM      3  C   LIG    1       -2.685  -0.727  -0.346  0.00  0.00    -0.003 A 
ATOM      4  C   LIG    1       -3.416  -1.815  -0.709  0.00  0.00    +0.007 A 
ATOM      5  C   LIG    1       -3.028  -2.579  -1.792  0.00  0.00    +0.001 A 
ATOM      6  C   LIG    1       -1.904  -2.239  -2.501  0.00  0.00    +0.004 A 
ATOM      7  C   LIG    1       -1.177  -1.126  -2.112  0.00  0.00    +0.046 A 
BRANCH   3   8
ATOM      8  C   LIG    1       -3.041   0.150   0.787  0.00  0.00    +0.023 C 
ATOM      9  C   LIG    1       -4.107  -0.396   1.696  0.00  0.00    +0.008 C 
ATOM     10  C   LIG    1       -5.406   0.265   1.333  0.00  0.00    +0.001 C 
ATOM     11  C   LIG    1       -5.111   1.086   0.103  0.00  0.00    +0.001 C 
ATOM     12  C   LIG    1       -3.659   1.457   0.282  0.00  0.00    +0.008 C 
ENDBRANCH   3   8
ENDBRANCH   1   2
BRANCH   1  13
ATOM     13  C   LIG    1        0.278   1.409  -1.008  0.00  0.00    +0.261 C 
BRANCH  13  14
ATOM     14  C   LIG    1        1.607   0.679  -0.936  0.00  0.00    +0.166 C 
BRANCH  14  15
ATOM     15  O   LIG    1        2.556   1.597  -1.348  0.00  0.00    -0.387 OA
ATOM     16  H   LIG    1        2.689   2.265  -0.616  0.00  0.00    +0.210 HD
ENDBRANCH  14  15
BRANCH  14  17
ATOM     17  C   LIG    1        1.890   0.131   0.408  0.00  0.00    +0.116 C 
BRANCH  17  18
ATOM     18  N   LIG    1        3.067  -0.569   0.548  0.00  0.00    -0.309 NA
ATOM     19  H   LIG    1        3.026  -1.586   0.419  0.00  0.00    +0.123 HD
BRANCH  18  20
ATOM     20  C   LIG    1        4.357  -0.063   0.541  0.00  0.00    +0.011 C 
ATOM     21  C   LIG    1        4.614   0.953   1.659  0.00  0.00    +0.027 C 
ATOM     22  C   LIG    1        5.262  -1.275   0.986  0.00  0.00    +0.027 C 
ATOM     23  C   LIG    1        4.992   0.398  -0.722  0.00  0.00    +0.027 C 
ENDBRANCH  18  20
ENDBRANCH  17  18
ENDBRANCH  14  17
ENDBRANCH  13  14
ENDBRANCH   1  13
TORSDOF 8
