REMARK  Name = molecules/KRMDCWKBEZIMAB-UHFFFAOYSA-N.pdb
REMARK                            x       y       z     vdW  Elec       q    Type
REMARK                         _______ _______ _______ _____ _____    ______ ____
ROOT
ATOM      1  C   LIG    1        0.738  -0.197  -0.210  0.00  0.00    -0.017 C 
ATOM      2  C   LIG    1       -0.528  -0.065  -0.076  0.00  0.00    -0.014 C 
ATOM      3  C   LIG    1       -1.301  -1.329   0.215  0.00  0.00    -0.014 A 
ATOM      4  C   LIG    1       -0.583  -2.163   1.033  0.00  0.00    +0.009 A 
ATOM      5  C   LIG    1       -1.153  -3.384   1.388  0.00  0.00    +0.001 A 
ATOM      6  C   LIG    1       -2.418  -3.671   0.885  0.00  0.00    +0.000 A 
ATOM      7  C   LIG    1       -3.097  -2.803   0.071  0.00  0.00    +0.004 A 
ATOM      8  C   LIG    1       -2.545  -1.565  -0.303  0.00  0.00    -0.039 A 
ATOM      9  C   LIG    1       -3.427  -0.820  -1.157  0.00  0.00    +0.040 C 
ATOM     10  C   LIG    1       -3.198   0.536  -1.617  0.00  0.00    +0.040 C 
ATOM     11  C   LIG    1       -2.321   1.453  -0.911  0.00  0.00    -0.039 A 
ATOM     12  C   LIG    1       -2.767   2.752  -0.939  0.00  0.00    +0.004 A 
ATOM     13  C   LIG    1       -2.067   3.762  -0.271  0.00  0.00    +0.000 A 
ATOM     14  C   LIG    1       -0.899   3.502   0.446  0.00  0.00    +0.001 A 
ATOM     15  C   LIG    1       -0.451   2.201   0.477  0.00  0.00    +0.009 A 
ATOM     16  C   LIG    1       -1.153   1.242  -0.187  0.00  0.00    -0.014 A 
ENDROOT
BRANCH   1  17
ATOM     17  C   LIG    1        1.760   0.808  -0.506  0.00  0.00    +0.043 C 
BRANCH  17  18
ATOM     18  C   LIG    1        2.877   0.909   0.508  0.00  0.00    +0.088 C 
BRANCH  18  19
ATOM     19  N   LIG    1        3.546  -0.361   0.584  0.00  0.00    -0.308 NA
ATOM     20  C   LIG    1        4.550  -0.238   1.643  0.00  0.00    +0.104 C 
ATOM     21  C   LIG    1        4.207  -0.753  -0.647  0.00  0.00    +0.104 C 
ENDBRANCH  18  19
ENDBRANCH  17  18
ENDBRANCH   1  17
TORSDOF 3
