REMARK  Name = molecules/KRNAOFGYEFKHPB-ANJVHQHFSA-N.pdb
REMARK                            x       y       z     vdW  Elec       q    Type
REMARK                         _______ _______ _______ _____ _____    ______ ____
ROOT
ATOM      1  C   LIG    1       -3.915  -1.306   0.033  0.00  0.00    +0.014 C 
ATOM      2  C   LIG    1       -2.828  -0.527   0.652  0.00  0.00    +0.052 C 
ATOM      3  C   LIG    1       -1.830   0.029  -0.361  0.00  0.00    +0.227 C 
ATOM      4  C   LIG    1       -2.148  -0.601  -1.665  0.00  0.00    +0.086 A 
ATOM      5  N   LIG    1       -1.079  -1.271  -2.181  0.00  0.00    -0.256 NA
ATOM      6  C   LIG    1       -1.164  -1.913  -3.363  0.00  0.00    +0.111 A 
ATOM      7  C   LIG    1       -2.347  -1.899  -4.071  0.00  0.00    +0.020 A 
ATOM      8  C   LIG    1       -3.442  -1.222  -3.559  0.00  0.00    +0.008 A 
ATOM      9  C   LIG    1       -3.318  -0.580  -2.353  0.00  0.00    -0.005 A 
ATOM     10  C   LIG    1       -4.590   0.116  -1.920  0.00  0.00    +0.091 C 
ATOM     11  C   LIG    1       -5.000  -0.512  -0.640  0.00  0.00    +0.043 C 
ENDROOT
BRANCH  11  12
ATOM     12  C   LIG    1       -5.811   0.288   0.283  0.00  0.00    -0.004 A 
ATOM     13  C   LIG    1       -5.765   0.083   1.654  0.00  0.00    +0.007 A 
ATOM     14  C   LIG    1       -6.519   0.796   2.563  0.00  0.00    +0.003 A 
ATOM     15  C   LIG    1       -7.384   1.778   2.138  0.00  0.00    +0.041 A 
ATOM     16  C   LIG    1       -7.447   1.999   0.784  0.00  0.00    +0.159 A 
ATOM     17  F   LIG    1       -8.294   2.964   0.343  0.00  0.00    -0.202 F 
ATOM     18  C   LIG    1       -6.686   1.278  -0.119  0.00  0.00    +0.162 A 
ATOM     19  F   LIG    1       -6.827   1.580  -1.402  0.00  0.00    -0.202 F 
ENDBRANCH  11  12
BRANCH  10  20
ATOM     20  N   LIG    1       -5.621  -0.086  -2.914  0.00  0.00    -0.323 NA
ATOM     21  H   LIG    1       -5.998  -1.032  -2.932  0.00  0.00    +0.119 HD
ATOM     22  H   LIG    1       -5.509   0.425  -3.787  0.00  0.00    +0.119 HD
ENDBRANCH  10  20
BRANCH   3  23
ATOM     23  O   LIG    1       -0.510  -0.139   0.043  0.00  0.00    -0.441 OA
BRANCH  23  24
ATOM     24  C   LIG    1        0.383   0.905   0.234  0.00  0.00    +0.403 C 
ATOM     25  N   LIG    1        1.719   0.723   0.647  0.00  0.00    -0.267 N 
ATOM     26  C   LIG    1        2.240  -0.596   0.907  0.00  0.00    +0.113 C 
ATOM     27  C   LIG    1        3.633  -0.826   0.430  0.00  0.00    +0.044 C 
ATOM     28  C   LIG    1        4.510   0.380   0.645  0.00  0.00    +0.095 C 
ATOM     29  C   LIG    1        3.850   1.577  -0.007  0.00  0.00    +0.044 C 
ATOM     30  C   LIG    1        2.585   1.858   0.815  0.00  0.00    +0.113 C 
ATOM     31  O   LIG    1       -0.041   2.068   0.022  0.00  0.00    -0.226 OA
BRANCH  28  32
ATOM     32  N   LIG    1        5.841   0.155   0.082  0.00  0.00    -0.288 N 
ATOM     33  C   LIG    1        6.956  -0.070   0.780  0.00  0.00    +0.089 A 
ATOM     34  C   LIG    1        7.221  -0.159   2.134  0.00  0.00    +0.031 A 
ATOM     35  C   LIG    1        8.512  -0.408   2.554  0.00  0.00    +0.022 A 
ATOM     36  C   LIG    1        9.524  -0.566   1.640  0.00  0.00    +0.113 A 
ATOM     37  N   LIG    1        9.228  -0.472   0.339  0.00  0.00    -0.236 NA
ATOM     38  C   LIG    1        7.992  -0.232  -0.131  0.00  0.00    +0.159 A 
ATOM     39  N   LIG    1        7.465  -0.098  -1.365  0.00  0.00    -0.291 N 
ATOM     40  H   LIG    1        8.029  -0.175  -2.249  0.00  0.00    +0.172 HD
ATOM     41  C   LIG    1        6.156   0.136  -1.219  0.00  0.00    +0.329 A 
ATOM     42  O   LIG    1        5.335   0.315  -2.152  0.00  0.00    -0.246 OA
ENDBRANCH  28  32
ENDBRANCH  23  24
ENDBRANCH   3  23
TORSDOF 5
