REMARK  Name = molecules/KRPAJLYSLFNDOA-SECBINFHSA-N.pdb
REMARK                            x       y       z     vdW  Elec       q    Type
REMARK                         _______ _______ _______ _____ _____    ______ ____
ROOT
ATOM      1  C   LIG    1        1.716   0.255   0.369  0.00  0.00    +0.189 C 
ENDROOT
BRANCH   1   2
ATOM      2  O   LIG    1        2.296   0.690   1.605  0.00  0.00    -0.385 OA
ATOM      3  H   LIG    1        1.930   1.609   1.706  0.00  0.00    +0.210 HD
ENDBRANCH   1   2
BRANCH   1   4
ATOM      4  C   LIG    1        0.402  -0.216   0.634  0.00  0.00    +0.263 C 
BRANCH   4   5
ATOM      5  O   LIG    1       -0.804  -0.649   0.877  0.00  0.00    -0.489 OA
BRANCH   5   6
ATOM      6  C   LIG    1       -1.954  -0.094   0.277  0.00  0.00    +0.124 A 
ATOM      7  C   LIG    1       -3.180  -0.672   0.642  0.00  0.00    -0.009 A 
ATOM      8  C   LIG    1       -3.151  -1.798   1.609  0.00  0.00    +0.047 C 
ATOM      9  C   LIG    1       -4.303  -0.140   0.064  0.00  0.00    +0.007 A 
ATOM     10  C   LIG    1       -4.225   0.921  -0.840  0.00  0.00    +0.000 A 
ATOM     11  C   LIG    1       -3.005   1.459  -1.171  0.00  0.00    +0.004 A 
ATOM     12  C   LIG    1       -1.852   0.943  -0.603  0.00  0.00    +0.046 A 
ENDBRANCH   5   6
ENDBRANCH   4   5
ENDBRANCH   1   4
BRANCH   1  13
ATOM     13  C   LIG    1        2.646  -0.835  -0.161  0.00  0.00    +0.268 C 
BRANCH  13  14
ATOM     14  O   LIG    1        3.942  -0.424  -0.391  0.00  0.00    -0.448 OA
BRANCH  14  15
ATOM     15  C   LIG    1        4.231   0.565  -1.298  0.00  0.00    +0.398 C 
ATOM     16  N   LIG    1        5.595   0.957  -1.496  0.00  0.00    -0.295 N 
ATOM     17  H   LIG    1        6.300   0.187  -1.505  0.00  0.00    +0.148 HD
ATOM     18  H   LIG    1        5.917   1.919  -1.626  0.00  0.00    +0.148 HD
ATOM     19  O   LIG    1        3.374   1.157  -1.972  0.00  0.00    -0.227 OA
ENDBRANCH  14  15
ENDBRANCH  13  14
ENDBRANCH   1  13
TORSDOF 7
