REMARK  Name = molecules/KRQAMFQCSAJCRH-UHFFFAOYSA-N.pdb
REMARK                            x       y       z     vdW  Elec       q    Type
REMARK                         _______ _______ _______ _____ _____    ______ ____
ROOT
ATOM      1  C   LIG    1        0.412   0.628  -0.940  0.00  0.00    +0.099 C 
ENDROOT
BRANCH   1   2
ATOM      2  N   LIG    1        1.819   0.421  -0.930  0.00  0.00    -0.304 NA
ATOM      3  C   LIG    1        2.285  -0.791  -0.358  0.00  0.00    +0.104 C 
BRANCH   2   4
ATOM      4  C   LIG    1        2.659   1.545  -0.934  0.00  0.00    +0.087 C 
BRANCH   4   5
ATOM      5  C   LIG    1        2.676   2.427   0.274  0.00  0.00    +0.056 C 
BRANCH   5   6
ATOM      6  C   LIG    1        3.133   1.727   1.514  0.00  0.00    +0.234 C 
BRANCH   6   7
ATOM      7  O   LIG    1        4.429   1.177   1.363  0.00  0.00    -0.461 OA
BRANCH   7   8
ATOM      8  C   LIG    1        5.558   1.895   1.033  0.00  0.00    +0.339 C 
ATOM      9  O   LIG    1        5.463   3.128   0.853  0.00  0.00    -0.245 OA
BRANCH   8  13
ATOM     10  C   LIG    1        9.198  -0.234   0.654  0.00  0.00    +0.204 A 
ATOM     11  C   LIG    1        8.064  -0.901   1.065  0.00  0.00    +0.166 A 
ATOM     12  C   LIG    1        6.904  -0.186   1.179  0.00  0.00    +0.064 A 
ATOM     13  C   LIG    1        6.811   1.151   0.908  0.00  0.00    +0.066 A 
ATOM     14  C   LIG    1        7.968   1.821   0.493  0.00  0.00    +0.064 A 
ATOM     15  C   LIG    1        9.144   1.128   0.369  0.00  0.00    +0.166 A 
BRANCH  15  16
ATOM     16  O   LIG    1       10.322   1.713  -0.036  0.00  0.00    -0.491 OA
ATOM     17  C   LIG    1       10.382   3.087  -0.350  0.00  0.00    +0.277 C 
ENDBRANCH  15  16
BRANCH  10  18
ATOM     18  O   LIG    1       10.382  -0.931   0.530  0.00  0.00    -0.488 OA
ATOM     19  C   LIG    1       10.656  -1.599  -0.690  0.00  0.00    +0.277 C 
ENDBRANCH  10  18
BRANCH  11  20
ATOM     20  O   LIG    1        8.109  -2.269   1.354  0.00  0.00    -0.491 OA
ATOM     21  C   LIG    1        6.944  -2.920   1.763  0.00  0.00    +0.277 C 
ENDBRANCH  11  20
ENDBRANCH   8  13
ENDBRANCH   7   8
ENDBRANCH   6   7
ENDBRANCH   5   6
ENDBRANCH   4   5
ENDBRANCH   2   4
ENDBRANCH   1   2
BRANCH   1  22
ATOM     22  C   LIG    1       -0.359  -0.656  -1.174  0.00  0.00    +0.099 C 
BRANCH  22  23
ATOM     23  N   LIG    1       -1.738  -0.400  -1.178  0.00  0.00    -0.304 NA
ATOM     24  C   LIG    1       -2.196   0.935  -1.304  0.00  0.00    +0.104 C 
BRANCH  23  25
ATOM     25  C   LIG    1       -2.631  -1.408  -1.579  0.00  0.00    +0.087 C 
BRANCH  25  26
ATOM     26  C   LIG    1       -2.804  -2.612  -0.736  0.00  0.00    +0.056 C 
BRANCH  26  27
ATOM     27  C   LIG    1       -3.301  -2.336   0.655  0.00  0.00    +0.234 C 
BRANCH  27  28
ATOM     28  O   LIG    1       -4.501  -1.646   0.613  0.00  0.00    -0.461 OA
BRANCH  28  29
ATOM     29  C   LIG    1       -5.670  -1.989  -0.018  0.00  0.00    +0.339 C 
ATOM     30  O   LIG    1       -5.746  -3.045  -0.668  0.00  0.00    -0.245 OA
BRANCH  29  31
ATOM     31  C   LIG    1       -6.799  -1.089   0.090  0.00  0.00    +0.066 A 
ATOM     32  C   LIG    1       -6.794  -0.012   0.937  0.00  0.00    +0.064 A 
ATOM     33  C   LIG    1       -7.858   0.844   1.078  0.00  0.00    +0.166 A 
ATOM     34  C   LIG    1       -8.995   0.598   0.319  0.00  0.00    +0.204 A 
ATOM     35  C   LIG    1       -9.042  -0.485  -0.554  0.00  0.00    +0.166 A 
ATOM     36  C   LIG    1       -7.939  -1.303  -0.645  0.00  0.00    +0.064 A 
BRANCH  35  37
ATOM     37  O   LIG    1      -10.173  -0.726  -1.312  0.00  0.00    -0.491 OA
ATOM     38  C   LIG    1      -10.178  -1.828  -2.195  0.00  0.00    +0.277 C 
ENDBRANCH  35  37
BRANCH  34  39
ATOM     39  O   LIG    1      -10.084   1.432   0.428  0.00  0.00    -0.488 OA
ATOM     40  C   LIG    1      -11.110   1.208   1.359  0.00  0.00    +0.277 C 
ENDBRANCH  34  39
BRANCH  33  41
ATOM     41  O   LIG    1       -7.845   1.935   1.945  0.00  0.00    -0.491 OA
ATOM     42  C   LIG    1       -6.651   2.127   2.710  0.00  0.00    +0.277 C 
ENDBRANCH  33  41
ENDBRANCH  29  31
ENDBRANCH  28  29
ENDBRANCH  27  28
ENDBRANCH  26  27
ENDBRANCH  25  26
ENDBRANCH  23  25
ENDBRANCH  22  23
ENDBRANCH   1  22
TORSDOF 21
