REMARK  Name = molecules/KRVOJOCLBAAKSJ-RDTXWAMCSA-N.pdb
REMARK                            x       y       z     vdW  Elec       q    Type
REMARK                         _______ _______ _______ _____ _____    ______ ____
ROOT
ATOM      1  C   LIG    1       -1.748  -1.329   1.456  0.00  0.00    +0.248 C 
ATOM      2  O   LIG    1       -2.203  -2.377   2.048  0.00  0.00    -0.270 OA
ATOM      3  N   LIG    1       -0.380  -1.373   1.156  0.00  0.00    -0.307 N 
ATOM      4  H   LIG    1        0.089  -0.591   0.684  0.00  0.00    +0.149 HD
ENDROOT
BRANCH   1   5
ATOM      5  C   LIG    1       -2.619  -0.228   1.149  0.00  0.00    +0.080 A 
ATOM      6  C   LIG    1       -3.954  -0.371   1.528  0.00  0.00    +0.038 A 
ATOM      7  C   LIG    1       -4.864   0.623   1.280  0.00  0.00    +0.063 A 
ATOM      8 CL   LIG    1       -6.529   0.377   1.784  0.00  0.00    -0.082 Cl
ATOM      9  C   LIG    1       -4.509   1.795   0.654  0.00  0.00    +0.049 A 
ATOM     10  C   LIG    1       -3.196   1.956   0.272  0.00  0.00    +0.070 A 
ATOM     11  C   LIG    1       -2.267   0.943   0.524  0.00  0.00    +0.134 A 
BRANCH   9  12
ATOM     12  N   LIG    1       -5.486   2.781   0.424  0.00  0.00    -0.346 N 
ATOM     13  H   LIG    1       -6.476   2.643   0.720  0.00  0.00    +0.146 HD
ATOM     14  C   LIG    1       -5.105   4.020  -0.240  0.00  0.00    +0.125 C 
ENDBRANCH   9  12
BRANCH  11  15
ATOM     15  O   LIG    1       -0.983   1.156   0.125  0.00  0.00    -0.494 OA
ATOM     16  C   LIG    1       -0.560   2.317  -0.513  0.00  0.00    +0.277 C 
ENDBRANCH  11  15
ENDBRANCH   1   5
BRANCH   3  17
ATOM     17  C   LIG    1        0.463  -2.527   1.494  0.00  0.00    +0.091 C 
ATOM     18  C   LIG    1        1.634  -1.977   2.285  0.00  0.00    +0.039 C 
ATOM     19  C   LIG    1        2.552  -1.441   1.185  0.00  0.00    +0.087 C 
ATOM     20  N   LIG    1        1.891  -1.758  -0.066  0.00  0.00    -0.294 NA
ATOM     21  C   LIG    1        1.217  -2.979   0.243  0.00  0.00    +0.074 C 
ATOM     22  C   LIG    1        0.295  -3.474  -0.820  0.00  0.00    +0.026 C 
BRANCH  20  23
ATOM     23  C   LIG    1        2.819  -1.861  -1.163  0.00  0.00    +0.120 C 
BRANCH  23  24
ATOM     24  C   LIG    1        3.460  -0.543  -1.400  0.00  0.00    -0.033 A 
ATOM     25  C   LIG    1        4.632  -0.159  -0.780  0.00  0.00    +0.005 A 
ATOM     26  C   LIG    1        5.230   1.073  -1.002  0.00  0.00    +0.000 A 
ATOM     27  C   LIG    1        4.646   1.956  -1.871  0.00  0.00    +0.000 A 
ATOM     28  C   LIG    1        3.485   1.609  -2.502  0.00  0.00    +0.000 A 
ATOM     29  C   LIG    1        2.905   0.390  -2.275  0.00  0.00    +0.005 A 
ENDBRANCH  23  24
ENDBRANCH  20  23
ENDBRANCH   3  17
TORSDOF 6
