REMARK  Name = molecules/KRZCNRGNPAESDC-UHFFFAOYSA-N.pdb
REMARK                            x       y       z     vdW  Elec       q    Type
REMARK                         _______ _______ _______ _____ _____    ______ ____
ROOT
ATOM      1  C   LIG    1       -2.714   3.198   0.065  0.00  0.00    +0.084 C 
ENDROOT
BRANCH   1   2
ATOM      2  N   LIG    1       -3.581   2.217   0.494  0.00  0.00    -0.300 NA
BRANCH   2   3
ATOM      3  C   LIG    1       -4.010   1.166  -0.310  0.00  0.00    +0.086 C 
BRANCH   3   4
ATOM      4  C   LIG    1       -5.341   0.609   0.161  0.00  0.00    +0.031 C 
BRANCH   4   5
ATOM      5  C   LIG    1       -5.798  -0.527  -0.729  0.00  0.00    +0.086 C 
BRANCH   5   6
ATOM      6  N   LIG    1       -7.079  -1.000  -0.227  0.00  0.00    -0.298 NA
BRANCH   6   7
ATOM      7  C   LIG    1       -7.369  -2.335  -0.663  0.00  0.00    +0.112 C 
BRANCH   7   8
ATOM      8  C   LIG    1       -6.451  -3.390  -0.074  0.00  0.00    +0.171 C 
BRANCH   8   9
ATOM      9  O   LIG    1       -6.911  -4.612  -0.629  0.00  0.00    -0.394 OA
ATOM     10  H   LIG    1       -7.894  -4.659  -0.531  0.00  0.00    +0.209 HD
ENDBRANCH   8   9
ENDBRANCH   7   8
ENDBRANCH   6   7
BRANCH   6  11
ATOM     11  C   LIG    1       -8.117  -0.043  -0.407  0.00  0.00    +0.112 C 
BRANCH  11  12
ATOM     12  C   LIG    1       -9.450  -0.580   0.045  0.00  0.00    +0.171 C 
BRANCH  12  13
ATOM     13  O   LIG    1       -9.454  -0.944   1.377  0.00  0.00    -0.394 OA
ATOM     14  H   LIG    1       -9.520  -0.118   1.917  0.00  0.00    +0.209 HD
ENDBRANCH  12  13
ENDBRANCH  11  12
ENDBRANCH   6  11
ENDBRANCH   5   6
ENDBRANCH   4   5
ENDBRANCH   3   4
ENDBRANCH   2   3
BRANCH   2  15
ATOM     15  C   LIG    1       -4.054   2.309   1.828  0.00  0.00    +0.112 C 
BRANCH  15  16
ATOM     16  C   LIG    1       -3.591   1.383   2.861  0.00  0.00    +0.171 C 
BRANCH  16  17
ATOM     17  O   LIG    1       -2.187   1.483   3.042  0.00  0.00    -0.394 OA
ATOM     18  H   LIG    1       -2.009   1.000   3.904  0.00  0.00    +0.209 HD
ENDBRANCH  16  17
ENDBRANCH  15  16
ENDBRANCH   2  15
ENDBRANCH   1   2
BRANCH   1  19
ATOM     19  C   LIG    1       -1.323   3.112  -0.342  0.00  0.00    +0.015 C 
BRANCH  19  20
ATOM     20  C   LIG    1       -0.874   2.392  -1.526  0.00  0.00    +0.001 C 
BRANCH  20  21
ATOM     21  C   LIG    1       -0.971   1.001  -1.849  0.00  0.00    +0.000 C 
BRANCH  21  22
ATOM     22  C   LIG    1       -0.355  -0.151  -1.253  0.00  0.00    +0.000 C 
BRANCH  22  23
ATOM     23  C   LIG    1       -0.393  -0.644   0.108  0.00  0.00    +0.000 C 
BRANCH  23  24
ATOM     24  C   LIG    1        0.274   0.213   1.144  0.00  0.00    -0.000 C 
BRANCH  24  25
ATOM     25  C   LIG    1        1.744   0.446   0.747  0.00  0.00    -0.000 C 
BRANCH  25  26
ATOM     26  C   LIG    1        2.515  -0.827   0.646  0.00  0.00    -0.000 C 
BRANCH  26  27
ATOM     27  C   LIG    1        3.973  -0.594   0.185  0.00  0.00    -0.000 C 
BRANCH  27  28
ATOM     28  C   LIG    1        4.735   0.269   1.105  0.00  0.00    -0.000 C 
BRANCH  28  29
ATOM     29  C   LIG    1        6.090   0.723   0.794  0.00  0.00    -0.000 C 
BRANCH  29  30
ATOM     30  C   LIG    1        7.215  -0.212   0.524  0.00  0.00    -0.000 C 
BRANCH  30  31
ATOM     31  C   LIG    1        7.070  -0.990  -0.723  0.00  0.00    -0.000 C 
BRANCH  31  32
ATOM     32  C   LIG    1        8.143  -1.930  -1.112  0.00  0.00    -0.000 C 
BRANCH  32  33
ATOM     33  C   LIG    1        9.488  -1.491  -1.502  0.00  0.00    -0.000 C 
BRANCH  33  34
ATOM     34  C   LIG    1       10.361  -0.717  -0.603  0.00  0.00    -0.003 C 
ATOM     35  C   LIG    1       11.712  -0.561  -1.385  0.00  0.00    +0.004 C 
ENDBRANCH  33  34
ENDBRANCH  32  33
ENDBRANCH  31  32
ENDBRANCH  30  31
ENDBRANCH  29  30
ENDBRANCH  28  29
ENDBRANCH  27  28
ENDBRANCH  26  27
ENDBRANCH  25  26
ENDBRANCH  24  25
ENDBRANCH  23  24
ENDBRANCH  22  23
ENDBRANCH  21  22
ENDBRANCH  20  21
ENDBRANCH  19  20
ENDBRANCH   1  19
TORSDOF 30
