REMARK  Name = molecules/KSGXQBZTULBEEQ-UHFFFAOYSA-N.pdb
REMARK                            x       y       z     vdW  Elec       q    Type
REMARK                         _______ _______ _______ _____ _____    ______ ____
ROOT
ATOM      1  C   LIG    1       -4.608   0.441   0.920  0.00  0.00    +0.043 A 
ATOM      2  C   LIG    1       -3.256   0.245   0.781  0.00  0.00    +0.090 A 
ATOM      3  N   LIG    1       -2.269   1.123   0.937  0.00  0.00    -0.231 NA
ATOM      4  C   LIG    1       -1.136   0.495   0.594  0.00  0.00    +0.128 A 
ATOM      5  N   LIG    1       -1.400  -0.753   0.225  0.00  0.00    -0.329 N 
ATOM      6  C   LIG    1       -0.456  -1.762  -0.235  0.00  0.00    +0.150 C 
ATOM      7  C   LIG    1       -2.730  -0.935   0.330  0.00  0.00    +0.069 A 
ATOM      8  C   LIG    1       -3.554  -1.997   0.002  0.00  0.00    +0.029 A 
ATOM      9  C   LIG    1       -4.915  -1.809   0.142  0.00  0.00    +0.015 A 
ATOM     10  C   LIG    1       -5.455  -0.627   0.581  0.00  0.00    +0.039 A 
ENDROOT
BRANCH  10  11
ATOM     11  C   LIG    1       -6.883  -0.318   0.596  0.00  0.00    +0.252 C 
ATOM     12  O   LIG    1       -7.234   0.759   1.165  0.00  0.00    -0.270 OA
ATOM     13  N   LIG    1       -7.928  -1.065   0.035  0.00  0.00    -0.252 N 
BRANCH  13  14
ATOM     14  C   LIG    1       -8.015  -2.434   0.322  0.00  0.00    +0.128 A 
ATOM     15  N   LIG    1       -8.067  -2.924   1.545  0.00  0.00    -0.240 NA
ATOM     16  C   LIG    1       -8.158  -4.213   1.899  0.00  0.00    +0.113 A 
ATOM     17  C   LIG    1       -8.206  -5.153   0.884  0.00  0.00    +0.020 A 
ATOM     18  C   LIG    1       -8.162  -4.744  -0.420  0.00  0.00    +0.005 A 
ATOM     19  C   LIG    1       -8.065  -3.390  -0.739  0.00  0.00    +0.044 A 
ENDBRANCH  13  14
BRANCH  13  20
ATOM     20  C   LIG    1       -8.755  -0.453  -1.001  0.00  0.00    +0.126 C 
BRANCH  20  21
ATOM     21  C   LIG    1       -9.915   0.341  -0.710  0.00  0.00    +0.140 C 
BRANCH  21  22
ATOM     22  C   LIG    1       -9.728   1.636  -0.018  0.00  0.00    +0.309 C 
ATOM     23  O   LIG    1      -10.542   1.948   0.905  0.00  0.00    -0.251 OA
BRANCH  22  24
ATOM     24  O   LIG    1       -8.686   2.483  -0.372  0.00  0.00    -0.465 OA
BRANCH  24  25
ATOM     25  C   LIG    1       -8.494   3.744   0.264  0.00  0.00    +0.229 C 
ATOM     26  C   LIG    1       -9.687   4.661  -0.065  0.00  0.00    +0.048 C 
ENDBRANCH  24  25
ENDBRANCH  22  24
ENDBRANCH  21  22
ENDBRANCH  20  21
ENDBRANCH  13  20
ENDBRANCH  10  11
BRANCH   4  27
ATOM     27  C   LIG    1        0.169   1.196   0.519  0.00  0.00    +0.176 C 
BRANCH  27  28
ATOM     28  N   LIG    1        1.057   0.635   1.551  0.00  0.00    -0.337 N 
ATOM     29  H   LIG    1        0.864   0.524   2.513  0.00  0.00    +0.147 HD
BRANCH  28  30
ATOM     30  C   LIG    1        2.345   0.267   0.943  0.00  0.00    +0.027 A 
ATOM     31  C   LIG    1        2.751  -1.011   0.923  0.00  0.00    +0.023 A 
ATOM     32  C   LIG    1        3.898  -1.385   0.067  0.00  0.00    +0.009 A 
ATOM     33  C   LIG    1        4.402  -0.397  -0.597  0.00  0.00    -0.005 A 
ATOM     34  C   LIG    1        4.053   0.875  -0.620  0.00  0.00    +0.009 A 
ATOM     35  C   LIG    1        2.954   1.272   0.201  0.00  0.00    +0.023 A 
BRANCH  33  36
ATOM     36  C   LIG    1        5.564  -0.790  -1.892  0.00  0.00    +0.168 C 
BRANCH  36  37
ATOM     37  N   LIG    1        6.239  -1.618  -1.038  0.00  0.00    -0.255 N 
ATOM     38  H   LIG    1        5.796  -2.513  -0.631  0.00  0.00    +0.154 HD
ATOM     39  C   LIG    1        7.614  -1.301  -0.767  0.00  0.00    +0.402 C 
ATOM     40  O   LIG    1        7.673  -0.058  -1.570  0.00  0.00    -0.226 OA
BRANCH  39  41
ATOM     41  O   LIG    1        8.716  -1.490  -0.244  0.00  0.00    -0.450 OA
BRANCH  41  42
ATOM     42  C   LIG    1        9.804  -0.473  -0.430  0.00  0.00    +0.234 C 
BRANCH  42  43
ATOM     43  C   LIG    1        9.301   0.757   0.221  0.00  0.00    +0.041 C 
BRANCH  43  44
ATOM     44  C   LIG    1        9.878   2.064   0.033  0.00  0.00    +0.003 C 
BRANCH  44  45
ATOM     45  C   LIG    1       11.172   2.577   0.436  0.00  0.00    -0.000 C 
BRANCH  45  46
ATOM     46  C   LIG    1       12.449   2.012  -0.010  0.00  0.00    -0.003 C 
ATOM     47  C   LIG    1       12.825   0.632   0.410  0.00  0.00    +0.004 C 
ENDBRANCH  45  46
ENDBRANCH  44  45
ENDBRANCH  43  44
ENDBRANCH  42  43
ENDBRANCH  41  42
ENDBRANCH  39  41
ENDBRANCH  36  37
BRANCH  36  48
ATOM     48  N   LIG    1        4.988  -0.085  -2.619  0.00  0.00    -0.224 NA
ATOM     49  H   LIG    1        4.263   0.543  -2.844  0.00  0.00    +0.143 HD
ENDBRANCH  36  48
ENDBRANCH  33  36
ENDBRANCH  28  30
ENDBRANCH  27  28
ENDBRANCH   4  27
TORSDOF 19
