REMARK  Name = molecules/KSMAGQUYOIHWFS-SSDOTTSWSA-N.pdb
REMARK                            x       y       z     vdW  Elec       q    Type
REMARK                         _______ _______ _______ _____ _____    ______ ____
ROOT
ATOM      1  O   LIG    1        0.779  -0.586   0.195  0.00  0.00    -0.483 OA
ENDROOT
BRANCH   1   2
ATOM      2  C   LIG    1        1.805   0.256   0.446  0.00  0.00    +0.157 A 
ATOM      3  C   LIG    1        2.591   0.140   1.567  0.00  0.00    +0.084 A 
ATOM      4 CL   LIG    1        2.333  -1.114   2.772  0.00  0.00    -0.080 Cl
ATOM      5  C   LIG    1        3.626   1.029   1.771  0.00  0.00    +0.024 A 
ATOM      6  C   LIG    1        3.892   2.035   0.875  0.00  0.00    +0.003 A 
ATOM      7  C   LIG    1        3.120   2.170  -0.252  0.00  0.00    +0.024 A 
ATOM      8  C   LIG    1        2.076   1.263  -0.445  0.00  0.00    +0.084 A 
ATOM      9 CL   LIG    1        1.141   1.514  -1.918  0.00  0.00    -0.080 Cl
ENDBRANCH   1   2
BRANCH   1  10
ATOM     10  C   LIG    1       -0.556  -0.486   0.558  0.00  0.00    +0.210 C 
ATOM     11  C   LIG    1       -0.837  -1.591   1.557  0.00  0.00    +0.055 C 
BRANCH  10  12
ATOM     12  C   LIG    1       -1.512  -0.625  -0.558  0.00  0.00    +0.160 C 
ATOM     13  N   LIG    1       -2.924  -0.533  -0.337  0.00  0.00    -0.291 NA
ATOM     14  H   LIG    1       -3.451  -0.593   0.563  0.00  0.00    +0.124 HD
ATOM     15  C   LIG    1       -3.539  -0.331  -1.633  0.00  0.00    +0.099 C 
ATOM     16  C   LIG    1       -2.516  -0.905  -2.563  0.00  0.00    +0.120 C 
ATOM     17  N   LIG    1       -1.302  -0.836  -1.815  0.00  0.00    -0.211 NA
ENDBRANCH  10  12
ENDBRANCH   1  10
TORSDOF 3
