REMARK  Name = molecules/KSMRODHGGIIXDV-YFKPBYRVSA-N.pdb
REMARK                            x       y       z     vdW  Elec       q    Type
REMARK                         _______ _______ _______ _____ _____    ______ ____
ROOT
ATOM      1  CA  GLN A  1       -0.639   0.883  -0.309  0.00  0.00    +0.182 C 
ENDROOT
BRANCH   1   5
ATOM      2  C   UNK A  0       -1.673  -2.732  -1.205  0.00  0.00    +0.109 C 
ATOM      3  C   UNK A  0       -1.482  -1.470  -0.455  0.00  0.00    +0.211 C 
ATOM      4  O   UNK A  0       -1.929  -1.431   0.734  0.00  0.00    -0.276 OA
ATOM      5  N   GLN A  1       -0.827  -0.354  -1.042  0.00  0.00    -0.303 N 
ATOM      6  H   GLN A  1       -0.483  -0.436  -2.007  0.00  0.00    +0.149 HD
ENDBRANCH   1   5
BRANCH   1   7
ATOM      7  C   GLN A  1       -1.413   1.924  -1.026  0.00  0.00    +0.325 C 
ATOM      8  O   GLN A  1       -2.078   1.702  -2.060  0.00  0.00    -0.249 OA
BRANCH   7   9
ATOM      9  OXT GLN A  1       -1.395   3.208  -0.519  0.00  0.00    -0.479 OA
ATOM     10  HXT GLN A  1       -0.608   3.830  -0.587  0.00  0.00    +0.295 HD
ENDBRANCH   7   9
ENDBRANCH   1   7
BRANCH   1  11
ATOM     11  CB  GLN A  1        0.788   1.331  -0.291  0.00  0.00    +0.043 C 
BRANCH  11  12
ATOM     12  CG  GLN A  1        1.756   0.384   0.326  0.00  0.00    +0.098 C 
BRANCH  12  13
ATOM     13  CD  GLN A  1        1.497   0.068   1.741  0.00  0.00    +0.211 C 
ATOM     14  NE2 GLN A  1        2.332  -0.843   2.421  0.00  0.00    -0.329 N 
ATOM     15 HE21 GLN A  1        2.584  -0.785   3.430  0.00  0.00    +0.145 HD
ATOM     16 HE22 GLN A  1        2.727  -1.637   1.864  0.00  0.00    +0.145 HD
ATOM     17  OE1 GLN A  1        0.546   0.599   2.342  0.00  0.00    -0.276 OA
ENDBRANCH  12  13
ENDBRANCH  11  12
ENDBRANCH   1  11
TORSDOF 6
