REMARK  Name = molecules/KSNNEUZOAFRTDS-UHFFFAOYSA-N.pdb
REMARK                            x       y       z     vdW  Elec       q    Type
REMARK                         _______ _______ _______ _____ _____    ______ ____
ROOT
ATOM      1  C   LIG    1       -0.844  -1.539   0.780  0.00  0.00    +0.006 A 
ATOM      2  C   LIG    1       -0.045  -2.611   1.076  0.00  0.00    +0.047 A 
ATOM      3 CL   LIG    1        1.474  -2.481   1.953  0.00  0.00    -0.083 Cl
ATOM      4  C   LIG    1       -0.438  -3.914   0.747  0.00  0.00    +0.020 A 
ATOM      5  C   LIG    1       -1.631  -4.163   0.122  0.00  0.00    +0.003 A 
ATOM      6  C   LIG    1       -2.446  -3.064  -0.176  0.00  0.00    +0.024 A 
ATOM      7  C   LIG    1       -2.079  -1.787   0.136  0.00  0.00    +0.039 A 
ENDROOT
BRANCH   7   8
ATOM      8  N   LIG    1       -2.939  -0.699  -0.168  0.00  0.00    -0.281 N 
ATOM      9  H   LIG    1       -2.621   0.289   0.144  0.00  0.00    +0.155 HD
ATOM     10  C   LIG    1       -4.172  -0.724  -0.815  0.00  0.00    +0.248 C 
ATOM     11  O   LIG    1       -4.703  -1.770  -1.230  0.00  0.00    -0.270 OA
BRANCH  10  12
ATOM     12  C   LIG    1       -4.917   0.511  -1.041  0.00  0.00    +0.037 A 
ATOM     13  C   LIG    1       -4.307   1.739  -1.069  0.00  0.00    +0.013 A 
ATOM     14  C   LIG    1       -5.023   2.896  -1.292  0.00  0.00    +0.001 A 
ATOM     15  C   LIG    1       -6.387   2.854  -1.495  0.00  0.00    +0.000 A 
ATOM     16  C   LIG    1       -6.973   1.598  -1.461  0.00  0.00    +0.001 A 
ATOM     17  C   LIG    1       -6.281   0.453  -1.243  0.00  0.00    +0.013 A 
ENDBRANCH  10  12
ENDBRANCH   7   8
BRANCH   1  18
ATOM     18  C   LIG    1       -0.528  -0.165   1.123  0.00  0.00    +0.123 C 
BRANCH  18  19
ATOM     19  N   LIG    1        0.727   0.157   1.666  0.00  0.00    -0.293 NA
ATOM     20  C   LIG    1        0.775   1.127   2.700  0.00  0.00    +0.105 C 
BRANCH  19  21
ATOM     21  C   LIG    1        1.806   0.225   0.716  0.00  0.00    +0.180 C 
BRANCH  21  22
ATOM     22  C   LIG    1        3.130   0.465   1.278  0.00  0.00    +0.230 C 
ATOM     23  O   LIG    1        3.383   0.613   2.500  0.00  0.00    -0.274 OA
ATOM     24  N   LIG    1        4.231   0.540   0.381  0.00  0.00    -0.296 N 
ATOM     25  C   LIG    1        5.593   0.774   0.833  0.00  0.00    +0.136 C 
ATOM     26  C   LIG    1        6.597  -0.028   0.051  0.00  0.00    +0.179 C 
ATOM     27  O   LIG    1        6.418   0.042  -1.319  0.00  0.00    -0.377 OA
ATOM     28  C   LIG    1        5.361   0.869  -1.681  0.00  0.00    +0.179 C 
ATOM     29  C   LIG    1        4.067   0.385  -1.068  0.00  0.00    +0.136 C 
ENDBRANCH  21  22
ENDBRANCH  19  21
ENDBRANCH  18  19
ENDBRANCH   1  18
TORSDOF 6
