REMARK  Name = molecules/KTEIFNKAUNYNJU-GFCCVEGCSA-N.pdb
REMARK                            x       y       z     vdW  Elec       q    Type
REMARK                         _______ _______ _______ _____ _____    ______ ____
ROOT
ATOM      1  N   LIG    1        0.855   2.068   2.602  0.00  0.00    -0.236 NA
ATOM      2  C   LIG    1        2.058   1.526   2.328  0.00  0.00    +0.158 A 
ATOM      3  C   LIG    1        2.224   0.534   1.357  0.00  0.00    +0.161 A 
ATOM      4  C   LIG    1        1.079   0.157   0.706  0.00  0.00    +0.059 A 
ATOM      5  C   LIG    1       -0.175   0.706   0.976  0.00  0.00    +0.007 A 
ATOM      6  C   LIG    1       -0.266   1.674   1.941  0.00  0.00    +0.121 A 
ENDROOT
BRANCH   5   7
ATOM      7  C   LIG    1       -1.360   0.258   0.263  0.00  0.00    +0.021 A 
ATOM      8  C   LIG    1       -2.607   0.230   0.855  0.00  0.00    +0.117 A 
ATOM      9  N   LIG    1       -3.482  -0.238  -0.054  0.00  0.00    -0.268 N 
ATOM     10  N   LIG    1       -2.825  -0.494  -1.164  0.00  0.00    -0.179 NA
ATOM     11  C   LIG    1       -1.532  -0.206  -1.015  0.00  0.00    +0.143 A 
BRANCH   9  12
ATOM     12  C   LIG    1       -4.917  -0.421   0.200  0.00  0.00    +0.110 C 
ATOM     13  C   LIG    1       -5.654   0.873   0.237  0.00  0.00    +0.042 C 
ATOM     14  C   LIG    1       -6.809   0.973  -0.703  0.00  0.00    +0.083 C 
ATOM     15  N   LIG    1       -6.377   0.411  -1.977  0.00  0.00    -0.316 NA
ATOM     16  C   LIG    1       -6.302  -1.014  -1.830  0.00  0.00    +0.083 C 
ATOM     17  H   LIG    1       -5.485   0.853  -2.255  0.00  0.00    +0.122 HD
ATOM     18  C   LIG    1       -5.501  -1.481  -0.666  0.00  0.00    +0.042 C 
ENDBRANCH   9  12
ENDBRANCH   5   7
BRANCH   2  19
ATOM     19  N   LIG    1        3.160   2.022   3.084  0.00  0.00    -0.340 N 
ATOM     20  H   LIG    1        3.167   3.012   3.430  0.00  0.00    +0.144 HD
ATOM     21  H   LIG    1        4.005   1.447   3.332  0.00  0.00    +0.144 HD
ENDBRANCH   2  19
BRANCH   3  22
ATOM     22  O   LIG    1        3.484   0.041   1.146  0.00  0.00    -0.481 OA
BRANCH  22  23
ATOM     23  C   LIG    1        3.880  -0.921   0.205  0.00  0.00    +0.204 C 
ATOM     24  C   LIG    1        3.955  -2.274   0.880  0.00  0.00    +0.057 C 
BRANCH  23  25
ATOM     25  C   LIG    1        5.058  -0.534  -0.567  0.00  0.00    +0.032 A 
ATOM     26  C   LIG    1        6.284  -1.138  -0.577  0.00  0.00    +0.084 A 
ATOM     27 CL   LIG    1        6.552  -2.532   0.440  0.00  0.00    -0.080 Cl
ATOM     28  C   LIG    1        7.343  -0.668  -1.369  0.00  0.00    +0.142 A 
ATOM     29  F   LIG    1        8.532  -1.300  -1.343  0.00  0.00    -0.204 F 
ATOM     30  C   LIG    1        7.189   0.430  -2.177  0.00  0.00    +0.041 A 
ATOM     31  C   LIG    1        5.973   1.050  -2.183  0.00  0.00    +0.023 A 
ATOM     32  C   LIG    1        4.939   0.586  -1.405  0.00  0.00    +0.049 A 
ATOM     33 CL   LIG    1        3.429   1.464  -1.499  0.00  0.00    -0.083 Cl
ENDBRANCH  23  25
ENDBRANCH  22  23
ENDBRANCH   3  22
TORSDOF 6
