REMARK  Name = molecules/KTUFNOKKBVMGRW-UHFFFAOYSA-N.pdb
REMARK                            x       y       z     vdW  Elec       q    Type
REMARK                         _______ _______ _______ _____ _____    ______ ____
ROOT
ATOM      1  C   LIG    1        3.734   1.712   2.130  0.00  0.00    +0.038 A 
ATOM      2  C   LIG    1        3.960   2.526   3.245  0.00  0.00    -0.029 A 
ATOM      3  C   LIG    1        2.897   2.981   3.978  0.00  0.00    +0.007 A 
ATOM      4  C   LIG    1        1.600   2.666   3.654  0.00  0.00    +0.024 A 
ATOM      5  C   LIG    1        1.329   1.853   2.543  0.00  0.00    +0.035 A 
ATOM      6  C   LIG    1        5.349   2.907   3.653  0.00  0.00    +0.045 C 
ATOM      7  C   LIG    1        2.416   1.412   1.831  0.00  0.00    +0.047 A 
ENDROOT
BRANCH   5   8
ATOM      8  N   LIG    1       -0.017   1.575   2.225  0.00  0.00    -0.281 N 
ATOM      9  H   LIG    1       -0.762   1.819   2.965  0.00  0.00    +0.155 HD
ATOM     10  C   LIG    1       -0.530   1.010   1.051  0.00  0.00    +0.248 C 
ATOM     11  O   LIG    1        0.204   0.679   0.113  0.00  0.00    -0.270 OA
BRANCH  10  12
ATOM     12  C   LIG    1       -1.974   0.776   0.856  0.00  0.00    +0.037 A 
ATOM     13  C   LIG    1       -2.888   0.741   1.881  0.00  0.00    +0.013 A 
ATOM     14  C   LIG    1       -4.227   0.525   1.649  0.00  0.00    +0.005 A 
ATOM     15  C   LIG    1       -4.726   0.327   0.351  0.00  0.00    -0.033 A 
ATOM     16  C   LIG    1       -3.820   0.360  -0.667  0.00  0.00    +0.005 A 
ATOM     17  C   LIG    1       -2.484   0.577  -0.425  0.00  0.00    +0.013 A 
BRANCH  15  18
ATOM     18  C   LIG    1       -6.189   0.123   0.194  0.00  0.00    +0.119 C 
BRANCH  18  19
ATOM     19  N   LIG    1       -6.535  -1.227   0.431  0.00  0.00    -0.296 NA
ATOM     20  C   LIG    1       -7.941  -1.504   0.354  0.00  0.00    +0.100 C 
ATOM     21  C   LIG    1       -8.366  -2.063  -0.952  0.00  0.00    +0.099 C 
ATOM     22  N   LIG    1       -7.447  -1.924  -2.007  0.00  0.00    -0.303 NA
ATOM     23  C   LIG    1       -6.112  -2.280  -1.736  0.00  0.00    +0.099 C 
ATOM     24  C   LIG    1       -7.695  -0.922  -2.972  0.00  0.00    +0.105 C 
ATOM     25  C   LIG    1       -5.723  -2.148  -0.281  0.00  0.00    +0.100 C 
ENDBRANCH  18  19
ENDBRANCH  15  18
ENDBRANCH  10  12
ENDBRANCH   5   8
BRANCH   1  26
ATOM     26  N   LIG    1        4.863   1.283   1.421  0.00  0.00    -0.283 N 
ATOM     27  H   LIG    1        5.815   1.620   1.749  0.00  0.00    +0.155 HD
BRANCH  26  28
ATOM     28  C   LIG    1        4.876   0.437   0.295  0.00  0.00    +0.220 A 
ATOM     29  N   LIG    1        3.791  -0.107  -0.275  0.00  0.00    -0.223 NA
ATOM     30  C   LIG    1        3.845  -0.910  -1.342  0.00  0.00    +0.116 A 
ATOM     31  C   LIG    1        5.088  -1.220  -1.921  0.00  0.00    +0.048 A 
ATOM     32  C   LIG    1        6.209  -0.671  -1.351  0.00  0.00    +0.077 A 
ATOM     33  N   LIG    1        6.078   0.122  -0.286  0.00  0.00    -0.214 NA
BRANCH  32  34
ATOM     34  C   LIG    1        7.561  -0.933  -1.884  0.00  0.00    +0.019 A 
ATOM     35  C   LIG    1        8.645  -0.346  -1.252  0.00  0.00    +0.013 A 
ATOM     36  C   LIG    1        9.936  -0.536  -1.686  0.00  0.00    +0.020 A 
ATOM     37  C   LIG    1       10.113  -1.346  -2.789  0.00  0.00    +0.111 A 
ATOM     38  N   LIG    1        9.067  -1.918  -3.403  0.00  0.00    -0.263 NA
ATOM     39  C   LIG    1        7.782  -1.723  -2.965  0.00  0.00    +0.120 A 
ENDBRANCH  32  34
ENDBRANCH  26  28
ENDBRANCH   1  26
TORSDOF 7
