REMARK  Name = molecules/KUAZQDVKQLNFPE-UHFFFAOYSA-N.pdb
REMARK                            x       y       z     vdW  Elec       q    Type
REMARK                         _______ _______ _______ _____ _____    ______ ____
ROOT
ATOM      1  S   LIG    1        0.980   1.371   0.256  0.00  0.00    -0.027 S 
ENDROOT
BRANCH   1   2
ATOM      2  C   LIG    1        2.013   0.098  -0.463  0.00  0.00    +0.120 C 
ATOM      3  S   LIG    1        1.299  -0.918  -1.544  0.00  0.00    -0.027 S 
BRANCH   2   4
ATOM      4  N   LIG    1        3.381  -0.039  -0.127  0.00  0.00    -0.325 N 
ATOM      5  C   LIG    1        4.035   0.823   0.804  0.00  0.00    +0.130 C 
ATOM      6  C   LIG    1        4.136  -1.097  -0.759  0.00  0.00    +0.130 C 
ENDBRANCH   2   4
ENDBRANCH   1   2
BRANCH   1   7
ATOM      7  S   LIG    1       -0.995   1.279  -0.470  0.00  0.00    -0.027 S 
BRANCH   7   8
ATOM      8  C   LIG    1       -2.034   0.226   0.520  0.00  0.00    +0.120 C 
ATOM      9  S   LIG    1       -1.357  -0.509   1.815  0.00  0.00    -0.027 S 
BRANCH   8  10
ATOM     10  N   LIG    1       -3.391   0.044   0.183  0.00  0.00    -0.325 N 
ATOM     11  C   LIG    1       -4.215  -0.819   1.006  0.00  0.00    +0.130 C 
ATOM     12  C   LIG    1       -3.931   0.717  -0.967  0.00  0.00    +0.130 C 
ENDBRANCH   8  10
ENDBRANCH   7   8
ENDBRANCH   1   7
TORSDOF 5
