REMARK  Name = molecules/KUEUWHJGRZKESU-UHFFFAOYSA-N.pdb
REMARK                            x       y       z     vdW  Elec       q    Type
REMARK                         _______ _______ _______ _____ _____    ______ ____
ROOT
ATOM      1  C   LIG    1       -0.104   0.176   0.054  0.00  0.00    +0.107 C 
ENDROOT
BRANCH   1   2
ATOM      2  C   LIG    1       -1.546   0.024   0.567  0.00  0.00    +0.249 C 
BRANCH   2   3
ATOM      3  O   LIG    1       -2.451  -0.634  -0.173  0.00  0.00    -0.460 OA
BRANCH   3   4
ATOM      4  C   LIG    1       -3.090  -0.425  -1.341  0.00  0.00    +0.341 C 
ATOM      5  O   LIG    1       -2.857   0.637  -1.965  0.00  0.00    -0.245 OA
BRANCH   4   6
ATOM      6  C   LIG    1       -4.054  -1.406  -1.905  0.00  0.00    +0.077 A 
ATOM      7  C   LIG    1       -4.300  -2.568  -1.209  0.00  0.00    +0.018 A 
ATOM      8  C   LIG    1       -5.187  -3.503  -1.699  0.00  0.00    +0.020 A 
ATOM      9  C   LIG    1       -5.821  -3.254  -2.896  0.00  0.00    +0.111 A 
ATOM     10  N   LIG    1       -5.573  -2.116  -3.567  0.00  0.00    -0.262 NA
ATOM     11  C   LIG    1       -4.704  -1.203  -3.085  0.00  0.00    +0.125 A 
ENDBRANCH   4   6
ENDBRANCH   3   4
ENDBRANCH   2   3
ENDBRANCH   1   2
BRANCH   1  12
ATOM     12  C   LIG    1        0.384  -1.244  -0.133  0.00  0.00    +0.249 C 
BRANCH  12  13
ATOM     13  O   LIG    1        1.618  -1.515  -0.568  0.00  0.00    -0.460 OA
BRANCH  13  14
ATOM     14  C   LIG    1        2.361  -1.457  -1.679  0.00  0.00    +0.341 C 
ATOM     15  O   LIG    1        1.861  -1.050  -2.744  0.00  0.00    -0.245 OA
BRANCH  14  16
ATOM     16  C   LIG    1        3.788  -1.863  -1.712  0.00  0.00    +0.077 A 
ATOM     17  C   LIG    1        4.402  -2.321  -0.573  0.00  0.00    +0.125 A 
ATOM     18  N   LIG    1        5.714  -2.690  -0.620  0.00  0.00    -0.262 NA
ATOM     19  C   LIG    1        6.457  -2.631  -1.736  0.00  0.00    +0.111 A 
ATOM     20  C   LIG    1        5.868  -2.175  -2.893  0.00  0.00    +0.020 A 
ATOM     21  C   LIG    1        4.523  -1.792  -2.866  0.00  0.00    +0.018 A 
ENDBRANCH  14  16
ENDBRANCH  13  14
ENDBRANCH  12  13
ENDBRANCH   1  12
BRANCH   1  22
ATOM     22  C   LIG    1        0.020   0.922  -1.209  0.00  0.00    +0.249 C 
BRANCH  22  23
ATOM     23  O   LIG    1       -0.411   2.209  -1.351  0.00  0.00    -0.460 OA
BRANCH  23  24
ATOM     24  C   LIG    1       -0.020   3.422  -0.931  0.00  0.00    +0.341 C 
ATOM     25  O   LIG    1        1.016   3.515  -0.230  0.00  0.00    -0.245 OA
BRANCH  24  26
ATOM     26  C   LIG    1       -0.765   4.662  -1.263  0.00  0.00    +0.077 A 
ATOM     27  C   LIG    1       -0.274   5.843  -0.781  0.00  0.00    +0.018 A 
ATOM     28  C   LIG    1       -0.951   7.022  -1.076  0.00  0.00    +0.020 A 
ATOM     29  C   LIG    1       -2.082   6.993  -1.832  0.00  0.00    +0.111 A 
ATOM     30  N   LIG    1       -2.538   5.815  -2.290  0.00  0.00    -0.262 NA
ATOM     31  C   LIG    1       -1.905   4.669  -2.020  0.00  0.00    +0.125 A 
ENDBRANCH  24  26
ENDBRANCH  23  24
ENDBRANCH  22  23
ENDBRANCH   1  22
BRANCH   1  32
ATOM     32  C   LIG    1        0.645   0.821   1.200  0.00  0.00    +0.249 C 
BRANCH  32  33
ATOM     33  O   LIG    1        0.723   0.224   2.401  0.00  0.00    -0.460 OA
BRANCH  33  34
ATOM     34  C   LIG    1        1.263  -0.824   3.016  0.00  0.00    +0.341 C 
ATOM     35  O   LIG    1        1.986  -1.594   2.349  0.00  0.00    -0.245 OA
BRANCH  34  36
ATOM     36  C   LIG    1        1.075  -1.156   4.439  0.00  0.00    +0.077 A 
ATOM     37  C   LIG    1        0.309  -0.400   5.285  0.00  0.00    +0.125 A 
ATOM     38  N   LIG    1        0.174  -0.756   6.587  0.00  0.00    -0.262 NA
ATOM     39  C   LIG    1        0.769  -1.844   7.107  0.00  0.00    +0.111 A 
ATOM     40  C   LIG    1        1.546  -2.631   6.297  0.00  0.00    +0.020 A 
ATOM     41  C   LIG    1        1.691  -2.270   4.950  0.00  0.00    +0.018 A 
ENDBRANCH  34  36
ENDBRANCH  33  34
ENDBRANCH  32  33
ENDBRANCH   1  32
TORSDOF 16
