REMARK  Name = molecules/KVCJCEKJKGLBOK-UHFFFAOYSA-N.pdb
REMARK                            x       y       z     vdW  Elec       q    Type
REMARK                         _______ _______ _______ _____ _____    ______ ____
ROOT
ATOM      1  C   LIG    1       -0.044  -0.774  -0.523  0.00  0.00    +0.204 A 
ATOM      2  C   LIG    1       -0.430  -1.736   0.388  0.00  0.00    +0.166 A 
ATOM      3  C   LIG    1       -1.770  -1.879   0.666  0.00  0.00    +0.061 A 
ATOM      4  C   LIG    1       -2.757  -1.089   0.063  0.00  0.00    +0.029 A 
ATOM      5  C   LIG    1       -2.308  -0.147  -0.837  0.00  0.00    +0.061 A 
ATOM      6  C   LIG    1       -0.977   0.047  -1.159  0.00  0.00    +0.166 A 
ENDROOT
BRANCH   2   7
ATOM      7  O   LIG    1        0.472  -2.564   1.034  0.00  0.00    -0.491 OA
ATOM      8  C   LIG    1        0.023  -3.531   1.955  0.00  0.00    +0.277 C 
ENDBRANCH   2   7
BRANCH   4   9
ATOM      9  C   LIG    1       -4.150  -1.306   0.397  0.00  0.00    +0.193 C 
ATOM     10  O   LIG    1       -4.514  -2.449   0.750  0.00  0.00    -0.287 OA
BRANCH   9  11
ATOM     11  C   LIG    1       -5.101  -0.215   0.320  0.00  0.00    +0.022 A 
ATOM     12  C   LIG    1       -4.712   1.091   0.522  0.00  0.00    +0.013 A 
ATOM     13  C   LIG    1       -5.638   2.128   0.459  0.00  0.00    +0.021 A 
ATOM     14  C   LIG    1       -6.968   1.879   0.193  0.00  0.00    +0.041 A 
ATOM     15 CL   LIG    1       -8.134   3.176   0.113  0.00  0.00    -0.084 Cl
ATOM     16  C   LIG    1       -7.368   0.566  -0.011  0.00  0.00    +0.021 A 
ATOM     17  C   LIG    1       -6.452  -0.440   0.053  0.00  0.00    +0.013 A 
ENDBRANCH   9  11
ENDBRANCH   4   9
BRANCH   6  18
ATOM     18  O   LIG    1       -0.575   1.012  -2.074  0.00  0.00    -0.491 OA
ATOM     19  C   LIG    1       -1.587   1.800  -2.671  0.00  0.00    +0.277 C 
ENDBRANCH   6  18
BRANCH   1  20
ATOM     20  O   LIG    1        1.283  -0.601  -0.826  0.00  0.00    -0.484 OA
BRANCH  20  21
ATOM     21  C   LIG    1        2.157   0.277  -0.143  0.00  0.00    +0.244 C 
BRANCH  21  22
ATOM     22  C   LIG    1        3.510   0.165  -0.785  0.00  0.00    +0.125 C 
BRANCH  22  23
ATOM     23  N   LIG    1        4.490   1.032  -0.155  0.00  0.00    -0.295 NA
ATOM     24  C   LIG    1        4.601   0.735   1.253  0.00  0.00    +0.112 C 
ATOM     25  C   LIG    1        6.020   0.818   1.755  0.00  0.00    +0.175 C 
ATOM     26  O   LIG    1        6.877  -0.039   1.079  0.00  0.00    -0.377 OA
ATOM     27  C   LIG    1        6.486  -0.275  -0.231  0.00  0.00    +0.175 C 
ATOM     28  C   LIG    1        5.779   0.928  -0.764  0.00  0.00    +0.112 C 
ENDBRANCH  22  23
ENDBRANCH  21  22
ENDBRANCH  20  21
ENDBRANCH   1  20
TORSDOF 8
