REMARK  Name = molecules/KVGGQNNGLOIZSK-UHFFFAOYSA-N.pdb
REMARK                            x       y       z     vdW  Elec       q    Type
REMARK                         _______ _______ _______ _____ _____    ______ ____
ROOT
ATOM      1  C   LIG    1        1.494  -0.038   0.037  0.00  0.00    +0.000 A 
ATOM      2  C   LIG    1        1.069  -0.820   1.062  0.00  0.00    +0.000 A 
ATOM      3  C   LIG    1       -0.316  -1.010   1.207  0.00  0.00    +0.000 A 
ATOM      4  C   LIG    1       -1.177  -0.393   0.302  0.00  0.00    +0.000 A 
ATOM      5  C   LIG    1       -0.691   0.391  -0.720  0.00  0.00    +0.000 A 
ATOM      6  C   LIG    1        0.672   0.558  -0.836  0.00  0.00    +0.000 A 
ENDROOT
BRANCH   5   7
ATOM      7  N   LIG    1       -1.625   0.983  -1.596  0.00  0.00    +0.000 N 
ATOM      8  H   LIG    1       -2.311   1.670  -1.218  0.00  0.00    +0.000 HD
ATOM      9  H   LIG    1       -1.579   0.693  -2.603  0.00  0.00    +0.000 HD
ENDBRANCH   5   7
BRANCH   1  10
ATOM     10 AS   LIG    1        3.440   0.204  -0.133  0.00  0.00    +0.000 As
ATOM     11  O   LIG    1        4.374   1.197   0.786  0.00  0.00    +0.000 OA
ENDBRANCH   1  10
BRANCH   4  12
ATOM     12  O   LIG    1       -2.569  -0.578   0.441  0.00  0.00    +0.000 OA
ATOM     13  H   LIG    1       -2.885  -1.159   1.202  0.00  0.00    +0.000 HD
ENDBRANCH   4  12
TORSDOF 3
