REMARK  Name = molecules/KVHHQGIIZCJATJ-BXUZGUMPSA-N.pdb
REMARK                            x       y       z     vdW  Elec       q    Type
REMARK                         _______ _______ _______ _____ _____    ______ ____
ROOT
ATOM      1  C   LIG    1        0.228   0.076   0.015  0.00  0.00    +0.071 C 
ATOM      2  C   LIG    1        0.195  -0.644  -1.300  0.00  0.00    +0.042 C 
ENDROOT
BRANCH   1   3
ATOM      3  O   LIG    1        0.397  -0.840   1.086  0.00  0.00    -0.388 OA
ATOM      4  H   LIG    1        0.882  -1.643   0.780  0.00  0.00    +0.210 HD
ENDBRANCH   1   3
BRANCH   1   5
ATOM      5  C   LIG    1       -1.182   0.640   0.256  0.00  0.00    +0.032 C 
ATOM      6  C   LIG    1       -1.186   1.188   1.675  0.00  0.00    +0.011 C 
BRANCH   5   7
ATOM      7  C   LIG    1       -2.125  -0.523   0.112  0.00  0.00    +0.089 C 
BRANCH   7   8
ATOM      8  N   LIG    1       -3.510  -0.136   0.321  0.00  0.00    -0.308 NA
ATOM      9  C   LIG    1       -4.352  -1.317   0.324  0.00  0.00    +0.104 C 
ATOM     10  C   LIG    1       -3.947   0.724  -0.765  0.00  0.00    +0.104 C 
ENDBRANCH   7   8
ENDBRANCH   5   7
ENDBRANCH   1   5
BRANCH   1  11
ATOM     11  C   LIG    1        1.260   1.151   0.128  0.00  0.00    +0.070 C 
BRANCH  11  12
ATOM     12  C   LIG    1        2.600   0.572  -0.106  0.00  0.00    -0.045 A 
ATOM     13  C   LIG    1        3.342  -0.019   0.907  0.00  0.00    +0.005 A 
ATOM     14  C   LIG    1        4.589  -0.569   0.703  0.00  0.00    +0.020 A 
ATOM     15  C   LIG    1        5.116  -0.521  -0.587  0.00  0.00    +0.041 A 
ATOM     16 CL   LIG    1        6.690  -1.188  -0.945  0.00  0.00    -0.084 Cl
ATOM     17  C   LIG    1        4.393   0.064  -1.613  0.00  0.00    +0.020 A 
ATOM     18  C   LIG    1        3.144   0.604  -1.367  0.00  0.00    +0.005 A 
ENDBRANCH  11  12
ENDBRANCH   1  11
TORSDOF 6
