REMARK  Name = molecules/KVWDHTXUZHCGIO-UHFFFAOYSA-N.pdb
REMARK                            x       y       z     vdW  Elec       q    Type
REMARK                         _______ _______ _______ _____ _____    ______ ____
ROOT
ATOM      1  C   LIG    1       -0.383   0.091   0.002  0.00  0.00    +0.324 C 
ATOM      2  N   LIG    1       -0.641   1.329   0.253  0.00  0.00    -0.040 NA
ATOM      3  C   LIG    1       -1.834   2.093   0.237  0.00  0.00    +0.197 A 
ATOM      4  C   LIG    1       -1.624   3.380   0.748  0.00  0.00    +0.057 A 
ATOM      5  C   LIG    1       -2.684   4.258   0.801  0.00  0.00    +0.004 A 
ATOM      6  C   LIG    1       -3.928   3.864   0.354  0.00  0.00    +0.002 A 
ATOM      7  C   LIG    1       -4.164   2.583  -0.161  0.00  0.00    +0.027 A 
ATOM      8  C   LIG    1       -3.087   1.728  -0.201  0.00  0.00    +0.083 A 
ATOM      9  N   LIG    1       -3.415   0.452  -0.730  0.00  0.00    -0.305 N 
ATOM     10  C   LIG    1       -2.643  -0.766  -0.720  0.00  0.00    +0.085 A 
ATOM     11  S   LIG    1       -3.225  -2.319  -1.111  0.00  0.00    -0.078 S 
ATOM     12  C   LIG    1       -1.794  -3.214  -0.875  0.00  0.00    -0.011 A 
ATOM     13  C   LIG    1       -0.893  -2.257  -0.492  0.00  0.00    +0.028 A 
ATOM     14  C   LIG    1       -1.556  -4.694  -1.039  0.00  0.00    +0.051 C 
ATOM     15  H   LIG    1       -4.336   0.345  -1.197  0.00  0.00    +0.153 HD
ATOM     16  C   LIG    1       -1.325  -0.989  -0.410  0.00  0.00    +0.094 A 
ENDROOT
BRANCH   1  21
ATOM     17  C   LIG    1        5.102   0.240   0.444  0.00  0.00    +0.105 C 
ATOM     18  N   LIG    1        3.682   0.205   0.279  0.00  0.00    -0.298 NA
ATOM     19  C   LIG    1        2.934   0.213   1.494  0.00  0.00    +0.128 C 
ATOM     20  C   LIG    1        1.617  -0.506   1.416  0.00  0.00    +0.241 C 
ATOM     21  N   LIG    1        0.984  -0.272   0.141  0.00  0.00    -0.218 N 
ATOM     22  C   LIG    1        1.791  -0.417  -1.046  0.00  0.00    +0.241 C 
ATOM     23  C   LIG    1        3.225  -0.731  -0.705  0.00  0.00    +0.128 C 
ENDBRANCH   1  21
TORSDOF 1
