REMARK  Name = molecules/KWBTZIFLQYYPTH-UHFFFAOYSA-N.pdb
REMARK                            x       y       z     vdW  Elec       q    Type
REMARK                         _______ _______ _______ _____ _____    ______ ____
ROOT
ATOM      1  N   LIG    1       -0.858  -1.329   0.546  0.00  0.00    -0.308 N 
ATOM      2  H   LIG    1       -0.988  -2.274   0.954  0.00  0.00    +0.149 HD
ENDROOT
BRANCH   1   3
ATOM      3  C   LIG    1        0.459  -0.848   0.334  0.00  0.00    +0.048 A 
ATOM      4  C   LIG    1        1.579  -1.564   0.639  0.00  0.00    +0.062 A 
ATOM      5 CL   LIG    1        1.383  -3.156   1.326  0.00  0.00    -0.082 Cl
ATOM      6  C   LIG    1        2.828  -1.002   0.393  0.00  0.00    +0.025 A 
ATOM      7  C   LIG    1        2.953   0.260  -0.152  0.00  0.00    -0.049 A 
ATOM      8  C   LIG    1        4.314   0.850  -0.410  0.00  0.00    +0.044 C 
ATOM      9  C   LIG    1        1.823   0.987  -0.461  0.00  0.00    +0.005 A 
ATOM     10  C   LIG    1        0.603   0.431  -0.217  0.00  0.00    +0.025 A 
ENDBRANCH   1   3
BRANCH   1  11
ATOM     11  C   LIG    1       -2.003  -0.554   0.216  0.00  0.00    +0.206 C 
ATOM     12  N   LIG    1       -2.280   0.596   0.781  0.00  0.00    -0.196 NA
ATOM     13  C   LIG    1       -3.502   1.151   0.247  0.00  0.00    +0.121 C 
ATOM     14  C   LIG    1       -3.717   0.374  -1.050  0.00  0.00    +0.101 C 
ATOM     15  N   LIG    1       -3.020  -0.855  -0.737  0.00  0.00    -0.277 NA
ATOM     16  H   LIG    1       -3.188  -1.812  -1.108  0.00  0.00    +0.125 HD
ENDBRANCH   1  11
TORSDOF 2
