REMARK  Name = molecules/KWGRBVOPPLSCSI-WPRPVWTQSA-N.pdb
REMARK                            x       y       z     vdW  Elec       q    Type
REMARK                         _______ _______ _______ _____ _____    ______ ____
ROOT
ATOM      1  C   LIG    1        0.189  -1.048  -0.524  0.00  0.00    +0.161 C 
ENDROOT
BRANCH   1   2
ATOM      2  C   LIG    1       -1.094  -0.408  -0.163  0.00  0.00    -0.018 A 
ATOM      3  C   LIG    1       -1.662  -0.549   1.085  0.00  0.00    +0.006 A 
ATOM      4  C   LIG    1       -2.858   0.041   1.434  0.00  0.00    +0.000 A 
ATOM      5  C   LIG    1       -3.517   0.804   0.501  0.00  0.00    +0.000 A 
ATOM      6  C   LIG    1       -2.979   0.970  -0.762  0.00  0.00    +0.000 A 
ATOM      7  C   LIG    1       -1.779   0.367  -1.086  0.00  0.00    +0.006 A 
ENDBRANCH   1   2
BRANCH   1   8
ATOM      8  C   LIG    1        1.339  -0.057  -0.490  0.00  0.00    +0.083 C 
ATOM      9  C   LIG    1        2.586  -0.784  -0.892  0.00  0.00    +0.027 C 
BRANCH   8  10
ATOM     10  N   LIG    1        1.369   0.536   0.795  0.00  0.00    -0.314 NA
ATOM     11  H   LIG    1        0.986   0.019   1.581  0.00  0.00    +0.122 HD
ATOM     12  C   LIG    1        2.474   1.397   1.064  0.00  0.00    +0.101 C 
ENDBRANCH   8  10
ENDBRANCH   1   8
BRANCH   1  13
ATOM     13  O   LIG    1        0.118  -1.664  -1.772  0.00  0.00    -0.386 OA
ATOM     14  H   LIG    1        0.111  -2.651  -1.708  0.00  0.00    +0.210 HD
ENDBRANCH   1  13
TORSDOF 4
