REMARK  Name = molecules/KWIUHFFTVRNATP-UHFFFAOYSA-N.pdb
REMARK                            x       y       z     vdW  Elec       q    Type
REMARK                         _______ _______ _______ _____ _____    ______ ____
ROOT
ATOM      1  C   LIG    1       -1.099   1.198  -0.426  0.00  0.00    -0.092 C 
ATOM      2  N   LIG    1       -0.240   0.091   0.029  0.00  0.00    +0.382 N 
ATOM      3  C   LIG    1       -0.029   0.280   1.428  0.00  0.00    -0.092 C 
ATOM      4  C   LIG    1       -1.036  -1.118  -0.221  0.00  0.00    -0.092 C 
ENDROOT
BRANCH   2   5
ATOM      5  C   LIG    1        0.936   0.127  -0.775  0.00  0.00    +0.051 C 
BRANCH   5   6
ATOM      6  C   LIG    1        2.066  -0.637  -0.259  0.00  0.00    +0.340 C 
ATOM      7  O   LIG    1        2.012  -1.352   0.928  0.00  0.00    -0.248 OA
ATOM      8  O   LIG    1        3.153  -0.674  -0.889  0.00  0.00    -0.248 OA
ENDBRANCH   5   6
ENDBRANCH   2   5
TORSDOF 2
