REMARK  Name = molecules/KWTSXDURSIMDCE-MRVPVSSYSA-N.pdb
REMARK                            x       y       z     vdW  Elec       q    Type
REMARK                         _______ _______ _______ _____ _____    ______ ____
ROOT
ATOM      1  C   LIG    1       -0.709   0.991  -0.398  0.00  0.00    +0.053 C 
ENDROOT
BRANCH   1   2
ATOM      2  C   LIG    1        0.603   0.358  -0.280  0.00  0.00    -0.046 A 
ATOM      3  C   LIG    1        1.213   0.251   0.957  0.00  0.00    +0.004 A 
ATOM      4  C   LIG    1        2.456  -0.343   1.097  0.00  0.00    +0.000 A 
ATOM      5  C   LIG    1        3.124  -0.846   0.019  0.00  0.00    +0.000 A 
ATOM      6  C   LIG    1        2.537  -0.753  -1.235  0.00  0.00    +0.000 A 
ATOM      7  C   LIG    1        1.310  -0.163  -1.353  0.00  0.00    +0.004 A 
ENDBRANCH   1   2
BRANCH   1   9
ATOM      8  C   LIG    1       -1.818  -0.635   1.099  0.00  0.00    +0.024 C 
ATOM      9  C   LIG    1       -1.861   0.033  -0.254  0.00  0.00    +0.052 C 
BRANCH   9  10
ATOM     10  N   LIG    1       -3.100   0.773  -0.406  0.00  0.00    -0.327 NA
ATOM     11  H   LIG    1       -3.072   1.705   0.043  0.00  0.00    +0.118 HD
ATOM     12  H   LIG    1       -3.372   0.860  -1.430  0.00  0.00    +0.118 HD
ENDBRANCH   9  10
ENDBRANCH   1   9
TORSDOF 3
