REMARK  Name = molecules/KWTSXDURSIMDCE-QMMMGPOBSA-N.pdb
REMARK                            x       y       z     vdW  Elec       q    Type
REMARK                         _______ _______ _______ _____ _____    ______ ____
ROOT
ATOM      1  C   LIG    1       -0.678   0.505   0.650  0.00  0.00    +0.053 C 
ENDROOT
BRANCH   1   2
ATOM      2  C   LIG    1        0.679   0.203   0.177  0.00  0.00    -0.046 A 
ATOM      3  C   LIG    1        1.252  -1.038   0.317  0.00  0.00    +0.004 A 
ATOM      4  C   LIG    1        2.546  -1.290  -0.146  0.00  0.00    +0.000 A 
ATOM      5  C   LIG    1        3.288  -0.305  -0.755  0.00  0.00    +0.000 A 
ATOM      6  C   LIG    1        2.701   0.934  -0.887  0.00  0.00    +0.000 A 
ATOM      7  C   LIG    1        1.424   1.192  -0.435  0.00  0.00    +0.004 A 
ENDBRANCH   1   2
BRANCH   1   9
ATOM      8  C   LIG    1       -3.064   0.550   0.086  0.00  0.00    +0.024 C 
ATOM      9  C   LIG    1       -1.675   0.229  -0.434  0.00  0.00    +0.052 C 
BRANCH   9  10
ATOM     10  N   LIG    1       -1.581  -1.162  -0.800  0.00  0.00    -0.327 NA
ATOM     11  H   LIG    1       -1.554  -1.799   0.024  0.00  0.00    +0.118 HD
ATOM     12  H   LIG    1       -2.290  -1.435  -1.510  0.00  0.00    +0.118 HD
ENDBRANCH   9  10
ENDBRANCH   1   9
TORSDOF 3
