REMARK  Name = molecules/KXGCNMMJRFDFNR-WDRJZQOASA-N.pdb
REMARK                            x       y       z     vdW  Elec       q    Type
REMARK                         _______ _______ _______ _____ _____    ______ ____
ROOT
ATOM      1  CA  CYS A  1       -5.522   0.064  -1.546  0.00  0.00    +0.148 C 
ATOM      2  CB  CYS A  1       -5.927  -0.961  -0.491  0.00  0.00    +0.109 C 
ATOM      3  SG  CYS A  1       -6.709  -0.177   0.936  0.00  0.00    -0.091 S 
ATOM      4  SG  CYS A  6       -5.440  -0.091   2.633  0.00  0.00    -0.091 S 
ATOM      5  CB  CYS A  6       -3.920  -0.983   2.273  0.00  0.00    +0.112 C 
ATOM      6  CA  CYS A  6       -2.716  -0.287   2.879  0.00  0.00    +0.169 C 
ATOM      7  C   CYS A  6       -2.550  -0.582   4.321  0.00  0.00    +0.235 C 
ATOM      8  O   CYS A  6       -1.999   0.342   5.019  0.00  0.00    -0.274 OA
ATOM      9  N   ASN A  7       -2.945  -1.778   4.969  0.00  0.00    -0.302 N 
ATOM     10  H   ASN A  7       -3.521  -1.692   5.841  0.00  0.00    +0.150 HD
ATOM     11  CA  ASN A  7       -2.618  -3.123   4.540  0.00  0.00    +0.168 C 
ATOM     12  C   ASN A  7       -3.818  -3.990   4.696  0.00  0.00    +0.237 C 
ATOM     13  O   ASN A  7       -4.740  -3.628   5.508  0.00  0.00    -0.274 OA
ATOM     14  N   PRO A  8       -4.002  -5.188   4.003  0.00  0.00    -0.288 N 
ATOM     15  CD  PRO A  8       -4.993  -6.255   4.205  0.00  0.00    +0.109 C 
ATOM     16  CG  PRO A  8       -4.396  -7.505   3.652  0.00  0.00    +0.021 C 
ATOM     17  CB  PRO A  8       -3.027  -7.092   3.180  0.00  0.00    +0.033 C 
ATOM     18  CA  PRO A  8       -3.179  -5.621   2.863  0.00  0.00    +0.162 C 
ATOM     19  C   PRO A  8       -3.923  -5.460   1.594  0.00  0.00    +0.234 C 
ATOM     20  O   PRO A  8       -5.077  -6.012   1.553  0.00  0.00    -0.274 OA
ATOM     21  N   ALA A  9       -3.507  -4.775   0.445  0.00  0.00    -0.303 N 
ATOM     22  H   ALA A  9       -4.135  -4.014   0.035  0.00  0.00    +0.149 HD
ATOM     23  CA  ALA A  9       -2.282  -4.968  -0.303  0.00  0.00    +0.156 C 
ATOM     24  CB  ALA A  9       -1.499  -6.182   0.132  0.00  0.00    +0.038 C 
ATOM     25  C   ALA A  9       -2.603  -5.175  -1.743  0.00  0.00    +0.234 C 
ATOM     26  O   ALA A  9       -3.226  -6.267  -1.968  0.00  0.00    -0.274 OA
ATOM     27  N   CYS A 10       -2.295  -4.319  -2.808  0.00  0.00    -0.302 N 
ATOM     28  CA  CYS A 10       -1.002  -3.780  -3.162  0.00  0.00    +0.169 C 
ATOM     29  C   CYS A 10       -0.360  -3.001  -2.066  0.00  0.00    +0.235 C 
ATOM     30  N   THR A 11        0.788  -3.368  -1.349  0.00  0.00    -0.300 N 
ATOM     31  H   THR A 11        0.675  -3.317  -0.281  0.00  0.00    +0.150 HD
ATOM     32  CA  THR A 11        2.060  -3.787  -1.835  0.00  0.00    +0.187 C 
ATOM     33  C   THR A 11        2.504  -3.184  -3.108  0.00  0.00    +0.236 C 
ATOM     34  N   GLY A 12        3.313  -2.019  -3.124  0.00  0.00    -0.305 N 
ATOM     35  CA  GLY A 12        3.512  -1.118  -2.020  0.00  0.00    +0.200 C 
ATOM     36  C   GLY A 12        4.649  -1.516  -1.165  0.00  0.00    +0.231 C 
ATOM     37  N   CYS A 13        5.057  -0.876   0.016  0.00  0.00    -0.302 N 
ATOM     38  H   CYS A 13        5.178  -1.422   0.924  0.00  0.00    +0.150 HD
ATOM     39  CA  CYS A 13        5.368   0.551   0.144  0.00  0.00    +0.169 C 
ATOM     40  CB  CYS A 13        4.624   1.166   1.306  0.00  0.00    +0.112 C 
ATOM     41  SG  CYS A 13        2.907   1.386   0.771  0.00  0.00    -0.091 S 
ATOM     42  SG  CYS A  5        1.603   1.779   2.385  0.00  0.00    -0.091 S 
ATOM     43  CB  CYS A  5        0.042   2.531   1.849  0.00  0.00    +0.112 C 
ATOM     44  CA  CYS A  5       -0.718   1.549   1.052  0.00  0.00    +0.169 C 
ATOM     45  C   CYS A  5       -0.551   0.189   1.621  0.00  0.00    +0.235 C 
ATOM     46  O   CYS A  5        0.652  -0.233   1.696  0.00  0.00    -0.274 OA
ATOM     47  N   CYS A  5       -2.100   1.868   0.782  0.00  0.00    -0.302 N 
ATOM     48  C   TYR A  4       -2.774   3.067   0.930  0.00  0.00    +0.234 C 
ATOM     49  O   TYR A  4       -3.762   3.191   1.740  0.00  0.00    -0.274 OA
ATOM     50  CA  TYR A  4       -2.494   4.368   0.216  0.00  0.00    +0.163 C 
ATOM     51  N   TYR A  4       -3.710   4.794  -0.437  0.00  0.00    -0.302 N 
ATOM     52  H   TYR A  4       -4.441   5.249   0.215  0.00  0.00    +0.150 HD
ATOM     53  C   GLU A  3       -4.039   4.659  -1.806  0.00  0.00    +0.234 C 
ATOM     54  O   GLU A  3       -4.802   5.591  -2.282  0.00  0.00    -0.274 OA
ATOM     55  CA  GLU A  3       -3.639   3.615  -2.739  0.00  0.00    +0.159 C 
ATOM     56  N   GLU A  3       -4.739   3.510  -3.740  0.00  0.00    -0.302 N 
ATOM     57  H   GLU A  3       -5.461   4.259  -3.782  0.00  0.00    +0.150 HD
ATOM     58  C   CYS A  2       -4.855   2.445  -4.642  0.00  0.00    +0.235 C 
ATOM     59  CA  CYS A  2       -4.474   1.030  -4.349  0.00  0.00    +0.169 C 
ATOM     60  N   CYS A  2       -5.691   0.309  -4.083  0.00  0.00    -0.302 N 
ATOM     61  H   CYS A  2       -6.391   0.266  -4.877  0.00  0.00    +0.150 HD
ATOM     62  CB  CYS A  2       -3.857   0.484  -5.638  0.00  0.00    +0.112 C 
ATOM     63  SG  CYS A  2       -2.095   0.134  -5.296  0.00  0.00    -0.091 S 
ATOM     64  SG  CYS A 10       -2.036  -1.326  -3.781  0.00  0.00    -0.091 S 
ATOM     65  O   CYS A  2       -5.316   2.651  -5.820  0.00  0.00    -0.274 OA
ATOM     66  H   CYS A  5       -2.650   1.022   0.411  0.00  0.00    +0.150 HD
ATOM     67  O   GLY A 12        5.344  -2.539  -1.510  0.00  0.00    -0.274 OA
ATOM     68  H   GLY A 12        3.819  -1.791  -4.026  0.00  0.00    +0.149 HD
ATOM     69  O   THR A 11        2.181  -3.682  -4.241  0.00  0.00    -0.274 OA
ATOM     70  O   CYS A 10       -0.963  -1.897  -1.798  0.00  0.00    -0.274 OA
ATOM     71  CB  CYS A 10       -1.175  -2.803  -4.319  0.00  0.00    +0.112 C 
ATOM     72  H   CYS A 10       -3.111  -4.043  -3.423  0.00  0.00    +0.150 HD
ATOM     73  N   CYS A  6       -1.574  -0.661   2.076  0.00  0.00    -0.302 N 
ATOM     74  H   CYS A  6       -1.506  -1.667   1.808  0.00  0.00    +0.150 HD
ATOM     75  C   CYS A  1       -6.031  -0.342  -2.880  0.00  0.00    +0.231 C 
ATOM     76  O   CYS A  1       -6.823  -1.344  -2.902  0.00  0.00    -0.274 OA
ENDROOT
BRANCH  39  77
ATOM     77  C   CYS A 13        6.828   0.617   0.403  0.00  0.00    +0.235 C 
ATOM     78  N   TYR A 14        7.444   1.872   0.620  0.00  0.00    -0.301 N 
ATOM     79  H   TYR A 14        6.950   2.777   0.618  0.00  0.00    +0.150 HD
ATOM     80  O   CYS A 13        7.534  -0.449   0.431  0.00  0.00    -0.274 OA
BRANCH  78  81
ATOM     81  CA  TYR A 14        8.890   1.893   0.866  0.00  0.00    +0.186 C 
BRANCH  81  82
ATOM     82  C   TYR A 14        9.141   2.075   2.324  0.00  0.00    +0.326 C 
ATOM     83  OXT TYR A 14        8.163   2.215   3.095  0.00  0.00    -0.249 OA
BRANCH  82  84
ATOM     84  O   TYR A 14       10.418   2.088   2.828  0.00  0.00    -0.479 OA
ATOM     85  H   TYR A 14       10.930   1.241   3.068  0.00  0.00    +0.295 HD
ENDBRANCH  82  84
ENDBRANCH  81  82
BRANCH  81  86
ATOM     86  CB  TYR A 14        9.488   2.955   0.005  0.00  0.00    +0.069 C 
BRANCH  86  87
ATOM     87  CG  TYR A 14       10.941   3.059   0.166  0.00  0.00    -0.045 A 
ATOM     88  CD2 TYR A 14       11.475   3.915   1.079  0.00  0.00    +0.007 A 
ATOM     89  CE2 TYR A 14       12.826   4.040   1.269  0.00  0.00    +0.045 A 
ATOM     90  CZ  TYR A 14       13.643   3.244   0.479  0.00  0.00    +0.117 A 
ATOM     91  CE1 TYR A 14       13.100   2.381  -0.444  0.00  0.00    +0.045 A 
ATOM     92  CD1 TYR A 14       11.750   2.257  -0.632  0.00  0.00    +0.007 A 
BRANCH  90  93
ATOM     93  OH  TYR A 14       15.019   3.378   0.681  0.00  0.00    -0.507 OA
ATOM     94  HH  TYR A 14       15.518   4.079   0.121  0.00  0.00    +0.292 HD
ENDBRANCH  90  93
ENDBRANCH  86  87
ENDBRANCH  81  86
ENDBRANCH  78  81
ENDBRANCH  39  77
BRANCH   1  95
ATOM     95  N   CYS A  1       -6.110   1.359  -1.241  0.00  0.00    -0.319 NA
ATOM     96  H1  CYS A  1       -5.522   1.868  -0.556  0.00  0.00    +0.119 HD
ATOM     97  H2  CYS A  1       -6.322   1.921  -2.085  0.00  0.00    +0.119 HD
ENDBRANCH   1  95
BRANCH  32  98
ATOM     98  CB  THR A 11        2.207  -5.308  -1.870  0.00  0.00    +0.141 C 
ATOM     99  CG2 THR A 11        3.548  -5.729  -2.369  0.00  0.00    +0.040 C 
BRANCH  98 100
ATOM    100  OG1 THR A 11        2.062  -5.828  -0.564  0.00  0.00    -0.390 OA
ATOM    101  HG1 THR A 11        2.157  -6.811  -0.573  0.00  0.00    +0.210 HD
ENDBRANCH  98 100
ENDBRANCH  32  98
BRANCH  55 102
ATOM    102  CB  GLU A  3       -2.381   3.810  -3.511  0.00  0.00    +0.043 C 
BRANCH 102 103
ATOM    103  CG  GLU A  3       -2.288   5.014  -4.365  0.00  0.00    +0.123 C 
BRANCH 103 104
ATOM    104  CD  GLU A  3       -2.246   6.313  -3.703  0.00  0.00    +0.305 C 
ATOM    105  OE2 GLU A  3       -2.025   6.447  -2.478  0.00  0.00    -0.251 OA
BRANCH 104 106
ATOM    106  OE1 GLU A  3       -2.455   7.472  -4.426  0.00  0.00    -0.481 OA
ATOM    107  HE1 GLU A  3       -1.764   7.804  -5.070  0.00  0.00    +0.295 HD
ENDBRANCH 104 106
ENDBRANCH 103 104
ENDBRANCH 102 103
ENDBRANCH  55 102
BRANCH  50 108
ATOM    108  CB  TYR A  4       -2.164   5.404   1.290  0.00  0.00    +0.067 C 
BRANCH 108 109
ATOM    109  CG  TYR A  4       -1.936   6.744   0.748  0.00  0.00    -0.045 A 
ATOM    110  CD2 TYR A  4       -2.974   7.636   0.640  0.00  0.00    +0.007 A 
ATOM    111  CE2 TYR A  4       -2.728   8.915   0.121  0.00  0.00    +0.045 A 
ATOM    112  CZ  TYR A  4       -1.488   9.307  -0.281  0.00  0.00    +0.117 A 
ATOM    113  CE1 TYR A  4       -0.443   8.384  -0.163  0.00  0.00    +0.045 A 
ATOM    114  CD1 TYR A  4       -0.644   7.123   0.340  0.00  0.00    +0.007 A 
BRANCH 112 115
ATOM    115  OH  TYR A  4       -1.249  10.582  -0.797  0.00  0.00    -0.507 OA
ATOM    116  HH  TYR A  4       -1.360  10.640  -1.822  0.00  0.00    +0.292 HD
ENDBRANCH 112 115
ENDBRANCH 108 109
ENDBRANCH  50 108
BRANCH  11 117
ATOM    117  CB  ASN A  7       -1.613  -3.660   5.571  0.00  0.00    +0.127 C 
BRANCH 117 118
ATOM    118  CG  ASN A  7       -2.211  -3.679   6.928  0.00  0.00    +0.213 C 
ATOM    119  OD1 ASN A  7       -2.300  -2.625   7.598  0.00  0.00    -0.276 OA
ATOM    120  ND2 ASN A  7       -2.685  -4.906   7.472  0.00  0.00    -0.329 N 
ATOM    121 HD21 ASN A  7       -3.379  -4.915   8.247  0.00  0.00    +0.145 HD
ATOM    122 HD22 ASN A  7       -2.360  -5.828   7.118  0.00  0.00    +0.145 HD
ENDBRANCH 117 118
ENDBRANCH  11 117
TORSDOF 19
