REMARK  Name = molecules/KXNPVXPOPUZYGB-MXSMSXNCSA-N.pdb
REMARK                            x       y       z     vdW  Elec       q    Type
REMARK                         _______ _______ _______ _____ _____    ______ ____
ROOT
ATOM      1  C   LIG    1       -1.079   0.715   0.466  0.00  0.00    +0.162 C 
ENDROOT
BRANCH   1   7
ATOM      2  C   LIG    1       -2.526  -3.290  -2.755  0.00  0.00    +0.007 C 
ATOM      3  C   LIG    1       -3.299  -2.136  -3.333  0.00  0.00    -0.010 C 
ATOM      4  C   LIG    1       -4.197  -1.579  -2.252  0.00  0.00    +0.037 C 
ATOM      5  C   LIG    1       -3.319  -1.076  -1.117  0.00  0.00    +0.185 C 
ATOM      6  N   LIG    1       -2.459  -0.052  -1.599  0.00  0.00    -0.287 N 
ATOM      7  C   LIG    1       -1.470   0.696  -0.942  0.00  0.00    +0.235 C 
ATOM      8  O   LIG    1       -0.782   1.501  -1.700  0.00  0.00    -0.274 OA
ATOM      9  C   LIG    1       -2.590   0.222  -3.051  0.00  0.00    +0.109 C 
ATOM     10  C   LIG    1       -2.312  -1.081  -3.799  0.00  0.00    +0.022 C 
BRANCH   5  11
ATOM     11  C   LIG    1       -4.081  -0.880   0.092  0.00  0.00    +0.325 C 
ATOM     12  O   LIG    1       -4.138   0.127   0.780  0.00  0.00    -0.249 OA
BRANCH  11  13
ATOM     13  O   LIG    1       -4.861  -1.988   0.540  0.00  0.00    -0.479 OA
ATOM     14  H   LIG    1       -4.475  -2.909   0.555  0.00  0.00    +0.295 HD
ENDBRANCH  11  13
ENDBRANCH   5  11
ENDBRANCH   1   7
BRANCH   1  15
ATOM     15  N   LIG    1        0.401   0.697   0.520  0.00  0.00    -0.178 NA
ATOM     16  H   LIG    1        0.778   0.768  -0.452  0.00  0.00    +0.149 HD
BRANCH  15  17
ATOM     17  S   LIG    1        1.032  -0.587   1.430  0.00  0.00    +0.061 S 
ATOM     18  O   LIG    1        1.973  -0.126   2.508  0.00  0.00    -0.153 OA
ATOM     19  O   LIG    1       -0.040  -1.432   2.022  0.00  0.00    -0.153 OA
BRANCH  17  20
ATOM     20  C   LIG    1        1.961  -1.644   0.377  0.00  0.00    +0.126 A 
ATOM     21  C   LIG    1        1.568  -2.932   0.087  0.00  0.00    +0.030 A 
ATOM     22  C   LIG    1        2.285  -3.746  -0.767  0.00  0.00    +0.002 A 
ATOM     23  C   LIG    1        3.444  -3.252  -1.357  0.00  0.00    +0.005 A 
ATOM     24  C   LIG    1        3.864  -1.964  -1.085  0.00  0.00    -0.024 A 
ATOM     25  C   LIG    1        5.097  -1.489  -1.749  0.00  0.00    +0.041 C 
ATOM     26  C   LIG    1        5.781  -0.350  -1.080  0.00  0.00    +0.007 C 
ATOM     27  C   LIG    1        5.037   0.339   0.002  0.00  0.00    +0.105 C 
ATOM     28  N   LIG    1        3.615   0.112   0.048  0.00  0.00    -0.342 N 
ATOM     29  H   LIG    1        2.934   0.896   0.301  0.00  0.00    +0.146 HD
ATOM     30  C   LIG    1        7.174  -0.742  -0.577  0.00  0.00    +0.009 C 
ATOM     31  C   LIG    1        3.123  -1.190  -0.231  0.00  0.00    +0.057 A 
ENDBRANCH  17  20
ENDBRANCH  15  17
ENDBRANCH   1  15
BRANCH   1  32
ATOM     32  C   LIG    1       -1.540   2.021   1.073  0.00  0.00    +0.033 C 
BRANCH  32  33
ATOM     33  C   LIG    1       -1.232   2.191   2.517  0.00  0.00    +0.039 C 
BRANCH  33  34
ATOM     34  C   LIG    1       -1.787   3.551   2.933  0.00  0.00    +0.196 C 
BRANCH  34  35
ATOM     35  N   LIG    1       -1.561   3.840   4.310  0.00  0.00    -0.276 N 
ATOM     36  H   LIG    1       -1.052   3.164   4.907  0.00  0.00    +0.258 HD
BRANCH  35  37
ATOM     37  C   LIG    1       -2.029   5.049   4.854  0.00  0.00    +0.376 C 
ATOM     38  N   LIG    1       -3.169   5.056   5.687  0.00  0.00    -0.289 N 
ATOM     39  H   LIG    1       -3.585   5.962   6.042  0.00  0.00    +0.255 HD
ATOM     40  H   LIG    1       -3.638   4.177   5.982  0.00  0.00    +0.255 HD
BRANCH  37  41
ATOM     41  N   LIG    1       -1.426   6.145   4.601  0.00  0.00    -0.130 NA
ATOM     42  H   LIG    1       -0.568   6.213   3.990  0.00  0.00    +0.306 HD
ENDBRANCH  37  41
ENDBRANCH  35  37
ENDBRANCH  34  35
ENDBRANCH  33  34
ENDBRANCH  32  33
ENDBRANCH   1  32
TORSDOF 12
