REMARK  Name = molecules/KXRZBTAEDBELFD-UHFFFAOYSA-N.pdb
REMARK                            x       y       z     vdW  Elec       q    Type
REMARK                         _______ _______ _______ _____ _____    ______ ____
ROOT
ATOM      1  S   LIG    1        0.112   0.804  -1.844  0.00  0.00    +0.074 S 
ATOM      2  O   LIG    1       -0.643  -0.299  -2.578  0.00  0.00    -0.150 OA
ATOM      3  O   LIG    1        0.875   1.591  -2.895  0.00  0.00    -0.150 OA
ENDROOT
BRANCH   1   4
ATOM      4  C   LIG    1        1.305   0.129  -0.784  0.00  0.00    +0.109 A 
ATOM      5  C   LIG    1        2.191   1.013  -0.158  0.00  0.00    +0.030 A 
ATOM      6  C   LIG    1        3.194   0.530   0.655  0.00  0.00    +0.024 A 
ATOM      7  C   LIG    1        3.380  -0.803   0.892  0.00  0.00    +0.025 A 
ATOM      8  C   LIG    1        2.505  -1.674   0.273  0.00  0.00    +0.024 A 
ATOM      9  C   LIG    1        1.488  -1.207  -0.549  0.00  0.00    +0.030 A 
BRANCH   7  10
ATOM     10  N   LIG    1        4.436  -1.218   1.742  0.00  0.00    -0.358 N 
ATOM     11  H   LIG    1        4.263  -1.192   2.788  0.00  0.00    +0.142 HD
ATOM     12  H   LIG    1        5.349  -1.535   1.345  0.00  0.00    +0.142 HD
ENDBRANCH   7  10
ENDBRANCH   1   4
BRANCH   1  13
ATOM     13  N   LIG    1       -1.032   1.771  -1.060  0.00  0.00    -0.195 N 
ATOM     14  H   LIG    1       -1.043   2.831  -1.360  0.00  0.00    +0.175 HD
BRANCH  13  15
ATOM     15  C   LIG    1       -1.983   1.480  -0.089  0.00  0.00    +0.201 A 
ATOM     16  N   LIG    1       -2.779   2.463   0.450  0.00  0.00    -0.233 NA
ATOM     17  C   LIG    1       -3.729   2.221   1.354  0.00  0.00    +0.133 A 
ATOM     18  C   LIG    1       -3.957   0.938   1.797  0.00  0.00    +0.134 A 
ATOM     19  N   LIG    1       -3.201  -0.039   1.291  0.00  0.00    -0.217 NA
ATOM     20  C   LIG    1       -2.228   0.216   0.363  0.00  0.00    +0.257 A 
BRANCH  20  21
ATOM     21  O   LIG    1       -1.490  -0.845  -0.120  0.00  0.00    -0.477 OA
ATOM     22  C   LIG    1       -1.768  -2.137   0.368  0.00  0.00    +0.279 C 
ENDBRANCH  20  21
ENDBRANCH  13  15
ENDBRANCH   1  13
TORSDOF 5
