REMARK  Name = molecules/KYAKGJDISSNVPZ-UHFFFAOYSA-N.pdb
REMARK                            x       y       z     vdW  Elec       q    Type
REMARK                         _______ _______ _______ _____ _____    ______ ____
ROOT
ATOM      1  C   LIG    1        0.372  -0.149  -2.569  0.00  0.00    +0.254 C 
ENDROOT
BRANCH   1   2
ATOM      2  C   LIG    1        1.091   1.117  -2.188  0.00  0.00    +0.164 C 
BRANCH   2   3
ATOM      3  N   LIG    1        1.836   0.965  -0.950  0.00  0.00    -0.321 N 
ATOM      4  C   LIG    1        1.381   1.204   0.293  0.00  0.00    +0.202 A 
ATOM      5  N   LIG    1        2.378   0.943   1.165  0.00  0.00    -0.218 NA
ATOM      6  C   LIG    1        3.480   0.535   0.504  0.00  0.00    +0.168 A 
ATOM      7  N   LIG    1        4.725   0.157   0.885  0.00  0.00    -0.280 N 
ATOM      8  C   LIG    1        5.050   0.155   2.293  0.00  0.00    +0.155 C 
ATOM      9  C   LIG    1        5.607  -0.200  -0.062  0.00  0.00    +0.333 A 
ATOM     10  O   LIG    1        6.757  -0.548   0.300  0.00  0.00    -0.246 OA
ATOM     11  N   LIG    1        5.330  -0.204  -1.366  0.00  0.00    -0.262 N 
ATOM     12  C   LIG    1        4.093   0.171  -1.741  0.00  0.00    +0.282 A 
ATOM     13  O   LIG    1        3.781   0.183  -2.968  0.00  0.00    -0.265 OA
ATOM     14  C   LIG    1        6.295  -0.594  -2.390  0.00  0.00    +0.157 C 
ATOM     15  C   LIG    1        3.114   0.556  -0.847  0.00  0.00    +0.152 A 
ENDBRANCH   2   3
ENDBRANCH   1   2
BRANCH   1  16
ATOM     16  O   LIG    1       -0.553  -0.567  -1.592  0.00  0.00    -0.460 OA
BRANCH  16  17
ATOM     17  C   LIG    1       -1.622   0.224  -1.220  0.00  0.00    +0.351 C 
ATOM     18  O   LIG    1       -1.823   1.348  -1.731  0.00  0.00    -0.246 OA
BRANCH  17  19
ATOM     19  C   LIG    1       -2.565  -0.263  -0.185  0.00  0.00    +0.200 C 
ATOM     20  C   LIG    1       -1.770  -0.479   1.098  0.00  0.00    +0.067 C 
ATOM     21  C   LIG    1       -3.117  -1.589  -0.692  0.00  0.00    +0.067 C 
BRANCH  19  22
ATOM     22  O   LIG    1       -3.567   0.675   0.048  0.00  0.00    -0.475 OA
BRANCH  22  23
ATOM     23  C   LIG    1       -4.599   0.523   0.952  0.00  0.00    +0.122 A 
ATOM     24  C   LIG    1       -4.440   0.953   2.243  0.00  0.00    +0.047 A 
ATOM     25  C   LIG    1       -5.426   0.835   3.204  0.00  0.00    +0.023 A 
ATOM     26  C   LIG    1       -6.631   0.260   2.856  0.00  0.00    +0.041 A 
ATOM     27 CL   LIG    1       -7.931   0.077   4.026  0.00  0.00    -0.084 Cl
ATOM     28  C   LIG    1       -6.822  -0.188   1.545  0.00  0.00    +0.023 A 
ATOM     29  C   LIG    1       -5.809  -0.051   0.615  0.00  0.00    +0.047 A 
ENDBRANCH  22  23
ENDBRANCH  19  22
ENDBRANCH  17  19
ENDBRANCH  16  17
ENDBRANCH   1  16
TORSDOF 7
