REMARK  Name = molecules/KYBOHGVERHWSSV-VNIVIJDLSA-N.pdb
REMARK                            x       y       z     vdW  Elec       q    Type
REMARK                         _______ _______ _______ _____ _____    ______ ____
ROOT
ATOM      1  C   LIG    1        0.402  -0.247  -1.531  0.00  0.00    +0.051 C 
ATOM      2  C   LIG    1        0.935   0.352  -0.282  0.00  0.00    +0.065 C 
ATOM      3  C   LIG    1        1.392   1.700  -0.792  0.00  0.00    +0.140 C 
ATOM      4  O   LIG    1        1.332   2.761  -0.197  0.00  0.00    -0.297 OA
ATOM      5  C   LIG    1        1.930   1.522  -2.145  0.00  0.00    +0.106 C 
ATOM      6  C   LIG    1        1.280   0.279  -2.664  0.00  0.00    +0.129 C 
ENDROOT
BRANCH   1   7
ATOM      7  C   LIG    1       -1.028  -0.025  -1.803  0.00  0.00    -0.022 C 
ATOM      8  C   LIG    1       -1.869   0.689  -1.076  0.00  0.00    +0.001 C 
BRANCH   8   9
ATOM      9  C   LIG    1       -3.306   0.870  -1.414  0.00  0.00    +0.143 C 
BRANCH   9  10
ATOM     10  C   LIG    1       -4.225   0.201  -0.450  0.00  0.00    -0.005 C 
ATOM     11  C   LIG    1       -4.046   0.729   0.969  0.00  0.00    +0.014 C 
ATOM     12  C   LIG    1       -4.023  -1.296  -0.403  0.00  0.00    +0.014 C 
BRANCH  10  13
ATOM     13  C   LIG    1       -5.649   0.432  -0.894  0.00  0.00    +0.009 C 
BRANCH  13  14
ATOM     14  C   LIG    1       -6.033   1.870  -0.954  0.00  0.00    +0.000 C 
BRANCH  14  15
ATOM     15  C   LIG    1       -7.491   2.023  -1.390  0.00  0.00    -0.003 C 
ATOM     16  C   LIG    1       -8.413   1.327  -0.413  0.00  0.00    +0.004 C 
ENDBRANCH  14  15
ENDBRANCH  13  14
ENDBRANCH  10  13
ENDBRANCH   9  10
BRANCH   9  17
ATOM     17  O   LIG    1       -3.637   0.498  -2.703  0.00  0.00    -0.387 OA
ATOM     18  H   LIG    1       -3.901  -0.452  -2.716  0.00  0.00    +0.210 HD
ENDBRANCH   9  17
ENDBRANCH   8   9
ENDBRANCH   1   7
BRANCH   6  19
ATOM     19  O   LIG    1        2.222  -0.693  -3.044  0.00  0.00    -0.391 OA
ATOM     20  H   LIG    1        2.900  -0.249  -3.610  0.00  0.00    +0.210 HD
ENDBRANCH   6  19
BRANCH   2  21
ATOM     21  C   LIG    1        2.176  -0.385   0.194  0.00  0.00    +0.012 C 
BRANCH  21  22
ATOM     22  C   LIG    1        2.690   0.237   1.450  0.00  0.00    +0.001 C 
BRANCH  22  23
ATOM     23  C   LIG    1        3.914  -0.441   1.975  0.00  0.00    +0.004 C 
BRANCH  23  24
ATOM     24  C   LIG    1        5.067  -0.422   1.027  0.00  0.00    +0.027 C 
BRANCH  24  25
ATOM     25  C   LIG    1        6.263  -1.099   1.565  0.00  0.00    -0.020 C 
ATOM     26  C   LIG    1        6.265  -1.649   2.757  0.00  0.00    +0.087 C 
BRANCH  26  27
ATOM     27  C   LIG    1        7.448  -2.326   3.307  0.00  0.00    +0.331 C 
ATOM     28  O   LIG    1        7.413  -2.841   4.453  0.00  0.00    -0.246 OA
BRANCH  27  29
ATOM     29  O   LIG    1        8.631  -2.427   2.607  0.00  0.00    -0.465 OA
ATOM     30  C   LIG    1        9.743  -3.088   3.176  0.00  0.00    +0.280 C 
ENDBRANCH  27  29
ENDBRANCH  26  27
ENDBRANCH  24  25
ENDBRANCH  23  24
ENDBRANCH  22  23
ENDBRANCH  21  22
ENDBRANCH   2  21
TORSDOF 15
