REMARK  Name = molecules/KYCBWEZLKCTALM-UHFFFAOYSA-N.pdb
REMARK                            x       y       z     vdW  Elec       q    Type
REMARK                         _______ _______ _______ _____ _____    ______ ____
ROOT
ATOM      1  N   LIG    1        0.973   0.574  -0.153  0.00  0.00    -0.254 N 
ATOM      2  C   LIG    1        0.463   1.544   0.736  0.00  0.00    +0.409 C 
ATOM      3  O   LIG    1        1.322   2.383   1.180  0.00  0.00    -0.226 OA
ATOM      4  O   LIG    1       -0.851   1.634   1.133  0.00  0.00    -0.411 OA
ATOM      5  C   LIG    1       -1.761   0.716   0.640  0.00  0.00    +0.138 A 
ATOM      6  C   LIG    1       -3.104   0.768   1.015  0.00  0.00    +0.047 A 
ATOM      7  C   LIG    1       -4.022  -0.138   0.533  0.00  0.00    +0.004 A 
ATOM      8  C   LIG    1       -3.557  -1.099  -0.338  0.00  0.00    +0.001 A 
ATOM      9  C   LIG    1       -2.245  -1.172  -0.722  0.00  0.00    +0.009 A 
ATOM     10  C   LIG    1       -1.329  -0.258  -0.232  0.00  0.00    +0.012 A 
ATOM     11  C   LIG    1        0.052  -0.403  -0.691  0.00  0.00    +0.150 C 
ENDROOT
BRANCH   1  12
ATOM     12  C   LIG    1        2.362   0.524  -0.539  0.00  0.00    +0.206 C 
BRANCH  12  13
ATOM     13  C   LIG    1        3.182  -0.317   0.352  0.00  0.00    +0.228 C 
ATOM     14  O   LIG    1        2.721  -0.935   1.353  0.00  0.00    -0.274 OA
ATOM     15  N   LIG    1        4.557  -0.448   0.082  0.00  0.00    -0.328 N 
ATOM     16  H   LIG    1        5.324  -0.321   0.770  0.00  0.00    +0.145 HD
ATOM     17  H   LIG    1        4.856  -0.695  -0.897  0.00  0.00    +0.145 HD
ENDBRANCH  12  13
ENDBRANCH   1  12
TORSDOF 2
