REMARK  Name = molecules/KYGZCKSPAKDVKC-UHFFFAOYSA-N.pdb
REMARK                            x       y       z     vdW  Elec       q    Type
REMARK                         _______ _______ _______ _____ _____    ______ ____
ROOT
ATOM      1  N   LIG    1       -1.053  -0.336   0.646  0.00  0.00    -0.346 N 
ATOM      2  C   LIG    1        0.178  -0.078   0.224  0.00  0.00    +0.056 A 
ATOM      3  C   LIG    1        1.268  -0.802   0.667  0.00  0.00    +0.076 A 
ATOM      4  C   LIG    1        2.537  -0.488   0.185  0.00  0.00    +0.168 A 
ATOM      5  O   LIG    1        3.777  -1.039   0.455  0.00  0.00    -0.453 OA
ATOM      6  C   LIG    1        4.792  -0.221  -0.095  0.00  0.00    +0.466 C 
ATOM      7  O   LIG    1        4.077   0.584  -0.998  0.00  0.00    -0.453 OA
ATOM      8  C   LIG    1        2.718   0.532  -0.727  0.00  0.00    +0.167 A 
ATOM      9  C   LIG    1        1.620   1.237  -1.154  0.00  0.00    +0.063 A 
ATOM     10  C   LIG    1        0.342   0.950  -0.693  0.00  0.00    +0.050 A 
ATOM     11  C   LIG    1       -0.727   1.702  -1.173  0.00  0.00    +0.203 A 
ATOM     12  C   LIG    1       -1.996   1.417  -0.723  0.00  0.00    +0.122 A 
ATOM     13  O   LIG    1       -0.556   2.631  -2.006  0.00  0.00    -0.286 OA
ATOM     14  C   LIG    1       -2.097   0.391   0.182  0.00  0.00    +0.105 A 
ENDROOT
BRANCH   1  15
ATOM     15  C   LIG    1       -1.288  -1.380   1.614  0.00  0.00    +0.118 C 
ATOM     16  C   LIG    1       -1.488  -2.693   0.854  0.00  0.00    +0.027 C 
ENDBRANCH   1  15
BRANCH  12  17
ATOM     17  C   LIG    1       -3.179   2.167  -1.184  0.00  0.00    +0.342 C 
ATOM     18  O   LIG    1       -3.107   3.095  -1.999  0.00  0.00    -0.245 OA
BRANCH  17  19
ATOM     19  O   LIG    1       -4.409   1.796  -0.665  0.00  0.00    -0.477 OA
ATOM     20  H   LIG    1       -4.809   2.247   0.158  0.00  0.00    +0.295 HD
ENDBRANCH  17  19
ENDBRANCH  12  17
TORSDOF 3
