REMARK  Name = molecules/KYHFRCPLIGODFH-UHFFFAOYSA-N.pdb
REMARK                            x       y       z     vdW  Elec       q    Type
REMARK                         _______ _______ _______ _____ _____    ______ ____
ROOT
ATOM      1  C   LIG    1        1.175   0.197   0.492  0.00  0.00    +0.151 A 
ATOM      2  N   LIG    1        1.343   1.526   0.542  0.00  0.00    -0.205 NA
ATOM      3  C   LIG    1        0.531   2.059  -0.383  0.00  0.00    +0.237 A 
ATOM      4  N   LIG    1       -0.107   1.012  -0.966  0.00  0.00    -0.140 NA
ATOM      5  N   LIG    1        0.279  -0.134  -0.439  0.00  0.00    -0.214 N 
ENDROOT
BRANCH   5   6
ATOM      6  C   LIG    1       -0.180  -1.433  -0.777  0.00  0.00    +0.078 A 
ATOM      7  C   LIG    1       -1.446  -1.825  -0.310  0.00  0.00    +0.049 A 
ATOM      8  C   LIG    1       -2.007  -3.030  -0.604  0.00  0.00    +0.033 A 
ATOM      9  C   LIG    1       -1.309  -3.937  -1.405  0.00  0.00    +0.042 A 
ATOM     10 CL   LIG    1       -2.045  -5.489  -1.782  0.00  0.00    -0.084 Cl
ATOM     11  C   LIG    1       -0.062  -3.571  -1.871  0.00  0.00    +0.022 A 
ATOM     12  C   LIG    1        0.501  -2.327  -1.559  0.00  0.00    +0.030 A 
BRANCH   7  13
ATOM     13  C   LIG    1       -2.104  -0.853   0.557  0.00  0.00    +0.197 C 
ATOM     14  O   LIG    1       -1.468  -0.299   1.493  0.00  0.00    -0.287 OA
BRANCH  13  15
ATOM     15  C   LIG    1       -3.514  -0.462   0.401  0.00  0.00    +0.041 A 
ATOM     16  C   LIG    1       -4.094   0.364   1.342  0.00  0.00    +0.052 A 
ATOM     17 CL   LIG    1       -3.160   0.931   2.740  0.00  0.00    -0.083 Cl
ATOM     18  C   LIG    1       -5.393   0.785   1.233  0.00  0.00    +0.021 A 
ATOM     19  C   LIG    1       -6.141   0.355   0.131  0.00  0.00    +0.001 A 
ATOM     20  C   LIG    1       -5.570  -0.458  -0.791  0.00  0.00    +0.001 A 
ATOM     21  C   LIG    1       -4.257  -0.876  -0.673  0.00  0.00    +0.013 A 
ENDBRANCH  13  15
ENDBRANCH   7  13
ENDBRANCH   5   6
BRANCH   3  22
ATOM     22  C   LIG    1        0.311   3.477  -0.727  0.00  0.00    +0.285 C 
ATOM     23  N   LIG    1        0.966   4.533  -0.086  0.00  0.00    -0.301 N 
ATOM     24  C   LIG    1        1.936   4.290   0.981  0.00  0.00    +0.132 C 
ATOM     25  C   LIG    1        0.704   5.909  -0.446  0.00  0.00    +0.132 C 
ATOM     26  O   LIG    1       -0.510   3.725  -1.641  0.00  0.00    -0.267 OA
ENDBRANCH   3  22
BRANCH   1  27
ATOM     27  C   LIG    1        1.892  -0.771   1.369  0.00  0.00    +0.180 C 
BRANCH  27  28
ATOM     28  N   LIG    1        3.063  -1.281   0.645  0.00  0.00    -0.307 N 
ATOM     29  C   LIG    1        3.898  -2.260   1.242  0.00  0.00    +0.227 C 
ATOM     30  O   LIG    1        3.625  -2.694   2.405  0.00  0.00    -0.274 OA
ATOM     31  H   LIG    1        3.307  -0.938  -0.311  0.00  0.00    +0.149 HD
BRANCH  29  32
ATOM     32  C   LIG    1        5.090  -2.809   0.567  0.00  0.00    +0.174 C 
BRANCH  32  33
ATOM     33  N   LIG    1        5.197  -2.162  -0.731  0.00  0.00    -0.322 NA
ATOM     34  H   LIG    1        6.158  -2.213  -1.127  0.00  0.00    +0.119 HD
ATOM     35  H   LIG    1        4.428  -2.444  -1.347  0.00  0.00    +0.119 HD
ENDBRANCH  32  33
ENDBRANCH  29  32
ENDBRANCH  27  28
ENDBRANCH   1  27
TORSDOF 8
