REMARK  Name = molecules/KYHQZNGJUGFTGR-LURJTMIESA-N.pdb
REMARK                            x       y       z     vdW  Elec       q    Type
REMARK                         _______ _______ _______ _____ _____    ______ ____
ROOT
ATOM      1  N   LIG    1       -1.040   0.188  -1.108  0.00  0.00    -0.322 N 
ATOM      2  C   LIG    1        0.152   0.161  -0.494  0.00  0.00    +0.152 A 
ATOM      3  C   LIG    1        0.759   0.867   0.524  0.00  0.00    +0.282 A 
ATOM      4  O   LIG    1        0.079   1.792   1.074  0.00  0.00    -0.265 OA
ATOM      5  N   LIG    1        2.014   0.611   0.936  0.00  0.00    -0.262 N 
ATOM      6  C   LIG    1        2.555   1.413   2.015  0.00  0.00    +0.157 C 
ATOM      7  C   LIG    1        2.742  -0.361   0.362  0.00  0.00    +0.333 A 
ATOM      8  O   LIG    1        3.935  -0.594   0.765  0.00  0.00    -0.246 OA
ATOM      9  N   LIG    1        2.199  -1.079  -0.635  0.00  0.00    -0.280 N 
ATOM     10  C   LIG    1        2.964  -2.126  -1.264  0.00  0.00    +0.155 C 
ATOM     11  C   LIG    1        0.947  -0.839  -1.062  0.00  0.00    +0.168 A 
ATOM     12  N   LIG    1        0.162  -1.385  -2.028  0.00  0.00    -0.218 NA
ATOM     13  C   LIG    1       -1.033  -0.775  -2.064  0.00  0.00    +0.202 A 
ENDROOT
BRANCH   1  14
ATOM     14  C   LIG    1       -2.158   1.053  -0.809  0.00  0.00    +0.154 C 
BRANCH  14  15
ATOM     15  C   LIG    1       -3.138   0.458   0.143  0.00  0.00    +0.131 C 
ATOM     16  C   LIG    1       -2.582   0.093   1.493  0.00  0.00    +0.039 C 
BRANCH  15  17
ATOM     17  O   LIG    1       -3.862  -0.595  -0.414  0.00  0.00    -0.390 OA
ATOM     18  H   LIG    1       -4.501  -0.255  -1.099  0.00  0.00    +0.210 HD
ENDBRANCH  15  17
ENDBRANCH  14  15
ENDBRANCH   1  14
TORSDOF 3
