REMARK  Name = molecules/KYIAWOXNPBANEW-LURJTMIESA-N.pdb
REMARK                            x       y       z     vdW  Elec       q    Type
REMARK                         _______ _______ _______ _____ _____    ______ ____
ROOT
ATOM      1  C   LIG    1        0.343  -0.613   0.338  0.00  0.00    +0.144 A 
ATOM      2  N   LIG    1        1.137  -1.705   0.078  0.00  0.00    -0.132 NA
ATOM      3  N   LIG    1        2.334  -1.639  -0.420  0.00  0.00    -0.131 NA
ATOM      4  C   LIG    1        2.934  -0.475  -0.740  0.00  0.00    +0.155 A 
ATOM      5  C   LIG    1        2.223   0.666  -0.518  0.00  0.00    +0.050 A 
ATOM      6  C   LIG    1        0.939   0.580   0.017  0.00  0.00    +0.049 A 
ENDROOT
BRANCH   1   7
ATOM      7  N   LIG    1       -0.947  -0.781   0.881  0.00  0.00    -0.314 N 
ATOM      8  C   LIG    1       -1.438  -2.126   1.124  0.00  0.00    +0.131 C 
BRANCH   7   9
ATOM      9  C   LIG    1       -1.781   0.310   1.189  0.00  0.00    +0.137 C 
BRANCH   9  10
ATOM     10  C   LIG    1       -2.996   0.468   0.320  0.00  0.00    +0.129 C 
ATOM     11  C   LIG    1       -2.670   0.720  -1.132  0.00  0.00    +0.039 C 
BRANCH  10  12
ATOM     12  O   LIG    1       -3.682   1.594   0.782  0.00  0.00    -0.391 OA
ATOM     13  H   LIG    1       -3.123   2.247   1.233  0.00  0.00    +0.210 HD
ENDBRANCH  10  12
ENDBRANCH   9  10
ENDBRANCH   7   9
ENDBRANCH   1   7
BRANCH   4  14
ATOM     14  N   LIG    1        4.249  -0.428  -1.285  0.00  0.00    -0.266 N 
ATOM     15  H   LIG    1        4.782  -1.303  -1.452  0.00  0.00    +0.167 HD
BRANCH  14  16
ATOM     16  N   LIG    1        4.842   0.777  -1.603  0.00  0.00    -0.255 NA
ATOM     17  H   LIG    1        5.338   1.196  -0.778  0.00  0.00    +0.140 HD
ATOM     18  H   LIG    1        4.217   1.500  -1.983  0.00  0.00    +0.140 HD
ENDBRANCH  14  16
ENDBRANCH   4  14
TORSDOF 6
