REMARK  Name = molecules/KYLWQAGGDVJPKM-ZBVFNZHQSA-N.pdb
REMARK                            x       y       z     vdW  Elec       q    Type
REMARK                         _______ _______ _______ _____ _____    ______ ____
ROOT
ATOM      1  C   LIG    1       -0.468  -3.946   0.517  0.00  0.00    +0.404 C 
ATOM      2  O   LIG    1        0.382  -4.783   0.987  0.00  0.00    -0.226 OA
ATOM      3  N   LIG    1       -1.785  -4.461   0.386  0.00  0.00    -0.259 N 
ATOM      4  C   LIG    1       -2.388  -5.777   0.399  0.00  0.00    +0.147 C 
ATOM      5  C   LIG    1       -3.779  -5.558   0.794  0.00  0.00    -0.025 A 
ATOM      6  C   LIG    1       -4.746  -6.475   1.243  0.00  0.00    +0.005 A 
ATOM      7  C   LIG    1       -6.000  -6.007   1.551  0.00  0.00    +0.001 A 
ATOM      8  C   LIG    1       -6.267  -4.663   1.410  0.00  0.00    +0.004 A 
ATOM      9  C   LIG    1       -5.300  -3.755   0.963  0.00  0.00    -0.042 A 
ATOM     10  C   LIG    1       -5.666  -2.319   0.834  0.00  0.00    +0.035 C 
ATOM     11  C   LIG    1       -5.233  -1.532   2.067  0.00  0.00    +0.005 C 
ATOM     12  C   LIG    1       -5.721  -0.094   1.968  0.00  0.00    +0.001 C 
ATOM     13  C   LIG    1       -5.014   0.679   0.900  0.00  0.00    +0.010 C 
ATOM     14  C   LIG    1       -4.012   1.673   1.413  0.00  0.00    -0.001 C 
ATOM     15  C   LIG    1       -3.790   1.604   2.898  0.00  0.00    +0.014 C 
ATOM     16  C   LIG    1       -4.601   3.062   1.138  0.00  0.00    +0.014 C 
ATOM     17  C   LIG    1       -2.694   1.575   0.635  0.00  0.00    +0.240 C 
ATOM     18  O   LIG    1       -2.141   2.826   0.380  0.00  0.00    -0.450 OA
ATOM     19  C   LIG    1       -0.825   3.177   0.237  0.00  0.00    +0.401 C 
ATOM     20  O   LIG    1       -0.376   4.136   0.957  0.00  0.00    -0.226 OA
ATOM     21  N   LIG    1        0.116   2.584  -0.639  0.00  0.00    -0.269 N 
ATOM     22  H   LIG    1        1.115   2.409  -0.312  0.00  0.00    +0.153 HD
ATOM     23  C   LIG    1       -0.151   2.174  -2.005  0.00  0.00    +0.168 C 
ATOM     24  C   LIG    1        0.824   1.207  -2.510  0.00  0.00    +0.237 C 
ATOM     25  N   LIG    1        0.807  -0.214  -2.150  0.00  0.00    -0.285 N 
ATOM     26  C   LIG    1        0.276  -0.598  -0.877  0.00  0.00    +0.203 C 
ATOM     27  C   LIG    1       -0.137  -2.027  -1.040  0.00  0.00    +0.209 C 
ATOM     28  C   LIG    1        0.936  -2.539  -2.006  0.00  0.00    +0.066 C 
ATOM     29  C   LIG    1        1.253  -1.365  -2.878  0.00  0.00    +0.112 C 
ATOM     30  O   LIG    1        1.734   1.568  -3.290  0.00  0.00    -0.274 OA
ATOM     31  C   LIG    1       -4.078  -4.235   0.667  0.00  0.00    -0.022 A 
ATOM     32  C   LIG    1       -2.896  -3.518   0.188  0.00  0.00    +0.147 C 
ATOM     33  O   LIG    1       -0.078  -2.687   0.191  0.00  0.00    -0.445 OA
ENDROOT
BRANCH  26  34
ATOM     34  C   LIG    1        1.350  -0.435   0.144  0.00  0.00    +0.238 C 
ATOM     35  O   LIG    1        0.990  -0.619   1.331  0.00  0.00    -0.274 OA
ATOM     36  N   LIG    1        2.669  -0.105  -0.157  0.00  0.00    -0.299 N 
ATOM     37  H   LIG    1        2.917   0.036  -1.157  0.00  0.00    +0.150 HD
BRANCH  36  38
ATOM     38  C   LIG    1        3.699   0.053   0.834  0.00  0.00    +0.115 C 
ATOM     39  C   LIG    1        3.666  -0.627   2.154  0.00  0.00    +0.041 C 
ATOM     40  C   LIG    1        3.312   0.832   2.077  0.00  0.00    +0.024 C 
BRANCH  38  41
ATOM     41  C   LIG    1        5.084   0.382   0.346  0.00  0.00    +0.255 C 
ATOM     42  O   LIG    1        6.028   0.505   1.209  0.00  0.00    -0.272 OA
ATOM     43  N   LIG    1        5.447   0.571  -0.992  0.00  0.00    -0.188 N 
ATOM     44  H   LIG    1        4.741   0.489  -1.747  0.00  0.00    +0.176 HD
BRANCH  43  45
ATOM     45  S   LIG    1        7.057   0.948  -1.495  0.00  0.00    +0.048 S 
ATOM     46  O   LIG    1        7.110   2.302  -2.162  0.00  0.00    -0.155 OA
ATOM     47  O   LIG    1        7.473  -0.069  -2.517  0.00  0.00    -0.155 OA
BRANCH  45  48
ATOM     48  C   LIG    1        8.202   0.903  -0.157  0.00  0.00    +0.151 C 
ATOM     49  C   LIG    1        8.717  -0.480   0.223  0.00  0.00    +0.030 C 
ATOM     50  C   LIG    1        9.624   0.564  -0.373  0.00  0.00    +0.030 C 
ENDBRANCH  45  48
ENDBRANCH  43  45
ENDBRANCH  38  41
BRANCH  40  51
ATOM     51  C   LIG    1        4.260   1.785   2.719  0.00  0.00    +0.003 C 
ATOM     52  C   LIG    1        4.698   2.913   1.832  0.00  0.00    +0.004 C 
ENDBRANCH  40  51
ENDBRANCH  36  38
ENDBRANCH  26  34
BRANCH  23  53
ATOM     53  C   LIG    1       -0.236   3.411  -2.873  0.00  0.00    -0.011 C 
ATOM     54  C   LIG    1       -1.439   4.237  -2.431  0.00  0.00    +0.013 C 
ATOM     55  C   LIG    1        0.974   4.288  -2.771  0.00  0.00    +0.013 C 
ATOM     56  C   LIG    1       -0.511   2.981  -4.287  0.00  0.00    +0.013 C 
ENDBRANCH  23  53
TORSDOF 7
