REMARK  Name = molecules/KYWCWBXGRWWINE-UHFFFAOYSA-N.pdb
REMARK                            x       y       z     vdW  Elec       q    Type
REMARK                         _______ _______ _______ _____ _____    ______ ____
ROOT
ATOM      1  C   LIG    1       -0.918  -1.146  -0.872  0.00  0.00    +0.079 A 
ATOM      2  C   LIG    1       -1.249  -2.455  -0.695  0.00  0.00    +0.132 A 
ATOM      3  C   LIG    1       -0.250  -3.397  -0.386  0.00  0.00    +0.047 A 
ATOM      4  C   LIG    1        1.059  -3.011  -0.262  0.00  0.00    +0.016 A 
ATOM      5  C   LIG    1        1.431  -1.683  -0.436  0.00  0.00    +0.038 A 
ATOM      6  C   LIG    1        0.438  -0.786  -0.736  0.00  0.00    +0.029 A 
ENDROOT
BRANCH   1   7
ATOM      7  C   LIG    1       -1.833  -0.076  -1.192  0.00  0.00    +0.248 C 
ATOM      8  O   LIG    1       -1.403   1.124  -1.330  0.00  0.00    -0.270 OA
ATOM      9  N   LIG    1       -3.203  -0.247  -1.371  0.00  0.00    -0.307 N 
ATOM     10  H   LIG    1       -3.686  -1.155  -1.294  0.00  0.00    +0.149 HD
BRANCH   9  11
ATOM     11  C   LIG    1       -4.048   0.921  -1.693  0.00  0.00    +0.141 C 
BRANCH  11  12
ATOM     12  C   LIG    1       -4.249   1.660  -0.427  0.00  0.00    -0.012 A 
ATOM     13  C   LIG    1       -5.139   1.107   0.501  0.00  0.00    +0.115 A 
ATOM     14  N   LIG    1       -5.380   1.712   1.680  0.00  0.00    -0.263 NA
ATOM     15  C   LIG    1       -4.790   2.865   2.031  0.00  0.00    +0.111 A 
ATOM     16  C   LIG    1       -3.908   3.430   1.130  0.00  0.00    +0.020 A 
ATOM     17  C   LIG    1       -3.633   2.837  -0.095  0.00  0.00    +0.008 A 
ENDBRANCH  11  12
ENDBRANCH   9  11
ENDBRANCH   1   7
BRANCH   5  18
ATOM     18  C   LIG    1        2.830  -1.312  -0.303  0.00  0.00    +0.244 C 
ATOM     19  N   LIG    1        3.417  -1.128   0.967  0.00  0.00    -0.307 N 
ATOM     20  H   LIG    1        2.805  -1.270   1.825  0.00  0.00    +0.149 HD
ATOM     21  O   LIG    1        3.570  -1.140  -1.326  0.00  0.00    -0.270 OA
BRANCH  19  22
ATOM     22  C   LIG    1        4.798  -0.761   1.087  0.00  0.00    +0.141 C 
BRANCH  22  23
ATOM     23  C   LIG    1        4.936   0.684   0.746  0.00  0.00    -0.012 A 
ATOM     24  C   LIG    1        4.502   1.675   1.601  0.00  0.00    +0.115 A 
ATOM     25  N   LIG    1        4.618   2.997   1.301  0.00  0.00    -0.263 NA
ATOM     26  C   LIG    1        5.163   3.428   0.150  0.00  0.00    +0.111 A 
ATOM     27  C   LIG    1        5.608   2.460  -0.725  0.00  0.00    +0.020 A 
ATOM     28  C   LIG    1        5.501   1.098  -0.443  0.00  0.00    +0.008 A 
ENDBRANCH  22  23
ENDBRANCH  19  22
ENDBRANCH   5  18
BRANCH   2  29
ATOM     29  O   LIG    1       -2.551  -2.864  -0.814  0.00  0.00    -0.494 OA
ATOM     30  C   LIG    1       -3.039  -4.159  -0.662  0.00  0.00    +0.277 C 
ENDBRANCH   2  29
TORSDOF 7
