REMARK  Name = molecules/KZJWDPNRJALLNS-VJSFXXLFSA-N.pdb
REMARK                            x       y       z     vdW  Elec       q    Type
REMARK                         _______ _______ _______ _____ _____    ______ ____
ROOT
ATOM      1  C   LIG    1       -0.676  -1.363   1.408  0.00  0.00    +0.012 C 
ATOM      2  C   LIG    1       -0.557  -0.242   0.428  0.00  0.00    -0.026 C 
ATOM      3  C   LIG    1       -1.213   1.035   0.929  0.00  0.00    +0.007 C 
ATOM      4  C   LIG    1       -2.656   0.682   1.315  0.00  0.00    +0.005 C 
ATOM      5  C   LIG    1       -3.374   0.353   0.060  0.00  0.00    +0.003 C 
ATOM      6  C   LIG    1       -4.827   0.026   0.203  0.00  0.00    -0.008 C 
ATOM      7  C   LIG    1       -5.570   0.802   1.221  0.00  0.00    +0.014 C 
ATOM      8  C   LIG    1       -6.303   2.001   0.637  0.00  0.00    +0.032 C 
ATOM      9  C   LIG    1       -7.396   1.386  -0.247  0.00  0.00    +0.119 C 
ATOM     10  C   LIG    1       -6.724   0.815  -1.447  0.00  0.00    +0.062 C 
ATOM     11  C   LIG    1       -4.977  -1.461   0.527  0.00  0.00    +0.016 C 
ATOM     12  C   LIG    1       -5.409   0.186  -1.179  0.00  0.00    -0.065 C 
ATOM     13  C   LIG    1       -4.685  -0.264  -2.172  0.00  0.00    -0.027 C 
ATOM     14  C   LIG    1       -3.370  -0.907  -2.070  0.00  0.00    +0.031 C 
ATOM     15  C   LIG    1       -2.740  -0.813  -0.699  0.00  0.00    +0.000 C 
ATOM     16  C   LIG    1        0.811  -0.028  -0.107  0.00  0.00    -0.002 C 
ATOM     17  C   LIG    1        0.925  -0.934  -1.346  0.00  0.00    +0.004 C 
ATOM     18  C   LIG    1       -0.470  -1.558  -1.504  0.00  0.00    +0.004 C 
ATOM     19  C   LIG    1       -1.310  -0.518  -0.875  0.00  0.00    -0.001 C 
ENDROOT
BRANCH   9  20
ATOM     20  O   LIG    1       -8.124   0.426   0.462  0.00  0.00    -0.391 OA
ATOM     21  H   LIG    1       -9.036   0.425   0.035  0.00  0.00    +0.210 HD
ENDBRANCH   9  20
BRANCH  16  22
ATOM     22  C   LIG    1        1.948  -0.366   0.771  0.00  0.00    -0.010 C 
ATOM     23  C   LIG    1        2.081   0.411   2.025  0.00  0.00    +0.008 C 
BRANCH  22  24
ATOM     24  C   LIG    1        3.208  -0.029  -0.079  0.00  0.00    +0.004 C 
BRANCH  24  25
ATOM     25  C   LIG    1        4.445  -0.314   0.666  0.00  0.00    +0.004 C 
BRANCH  25  26
ATOM     26  C   LIG    1        5.658  -0.016  -0.229  0.00  0.00    -0.009 C 
BRANCH  26  27
ATOM     27  C   LIG    1        6.884  -0.341   0.597  0.00  0.00    -0.014 C 
ATOM     28  C   LIG    1        6.816  -1.778   1.099  0.00  0.00    +0.007 C 
ATOM     29  C   LIG    1        8.195  -0.154  -0.071  0.00  0.00    +0.007 C 
ENDBRANCH  26  27
BRANCH  26  30
ATOM     30  C   LIG    1        5.562   1.431  -0.625  0.00  0.00    +0.000 C 
ATOM     31  C   LIG    1        6.668   1.929  -1.506  0.00  0.00    +0.004 C 
ENDBRANCH  26  30
ENDBRANCH  25  26
ENDBRANCH  24  25
ENDBRANCH  22  24
ENDBRANCH  16  22
TORSDOF 7
