REMARK  Name = molecules/KZNICNPSHKQLFF-UHFFFAOYSA-N.pdb
REMARK                            x       y       z     vdW  Elec       q    Type
REMARK                         _______ _______ _______ _____ _____    ______ ____
ROOT
ATOM      1  N   LIG    1        1.274   0.506  -0.135  0.00  0.00    -0.256 N 
ATOM      2  C   LIG    1        0.955  -0.811   0.296  0.00  0.00    +0.220 C 
ATOM      3  C   LIG    1       -0.510  -0.847   0.532  0.00  0.00    +0.105 C 
ATOM      4  C   LIG    1       -0.997   0.209  -0.450  0.00  0.00    +0.105 C 
ATOM      5  O   LIG    1        1.811  -1.721   0.429  0.00  0.00    -0.275 OA
ATOM      6  C   LIG    1        0.051   1.254  -0.298  0.00  0.00    +0.220 C 
ATOM      7  O   LIG    1       -0.095   2.502  -0.310  0.00  0.00    -0.275 OA
ATOM      8  H   LIG    1        2.226   0.926  -0.322  0.00  0.00    +0.157 HD
ENDROOT
TORSDOF 0
