REMARK  Name = molecules/KZUIYQJTUIACIG-YBZCJVABSA-N.pdb
REMARK                            x       y       z     vdW  Elec       q    Type
REMARK                         _______ _______ _______ _____ _____    ______ ____
ROOT
ATOM      1  C   LIG    1        1.999   1.294  -0.165  0.00  0.00    +0.015 C 
ATOM      2  C   LIG    1        1.835  -0.122  -0.583  0.00  0.00    +0.007 C 
ATOM      3  C   LIG    1        0.987  -0.948   0.383  0.00  0.00    +0.005 C 
ATOM      4  C   LIG    1        1.955  -1.331   1.424  0.00  0.00    +0.008 C 
ATOM      5  C   LIG    1        3.110  -1.849   0.551  0.00  0.00    +0.043 C 
ATOM      6  C   LIG    1       -0.177  -0.127   0.740  0.00  0.00    +0.019 C 
ATOM      7  C   LIG    1       -1.084  -0.736   1.754  0.00  0.00    -0.019 C 
ATOM      8  C   LIG    1       -2.394  -0.574   1.730  0.00  0.00    -0.051 C 
ATOM      9  C   LIG    1       -3.236  -1.212   2.775  0.00  0.00    +0.044 C 
ATOM     10  C   LIG    1       -3.054   0.234   0.679  0.00  0.00    -0.038 C 
ATOM     11  C   LIG    1       -4.359   0.235   0.534  0.00  0.00    +0.050 C 
ATOM     12  C   LIG    1       -4.938   1.056  -0.540  0.00  0.00    +0.156 C 
ATOM     13  O   LIG    1       -6.061   1.560  -0.384  0.00  0.00    -0.293 OA
ATOM     14  C   LIG    1       -4.085   1.204  -1.752  0.00  0.00    +0.079 C 
ATOM     15  C   LIG    1       -2.740   1.692  -1.335  0.00  0.00    +0.016 C 
ATOM     16  C   LIG    1       -2.114   1.013  -0.177  0.00  0.00    +0.023 C 
ATOM     17  C   LIG    1       -1.001   0.052  -0.524  0.00  0.00    +0.004 C 
ATOM     18  C   LIG    1       -0.250   0.433  -1.728  0.00  0.00    +0.005 C 
ATOM     19  C   LIG    1        3.139  -0.845  -0.575  0.00  0.00    +0.129 C 
ATOM     20  C   LIG    1        1.086  -0.243  -1.893  0.00  0.00    +0.010 C 
ENDROOT
BRANCH  19  21
ATOM     21  C   LIG    1        4.298   0.043  -0.533  0.00  0.00    +0.162 C 
ATOM     22  C   LIG    1        4.764   0.876   0.590  0.00  0.00    +0.089 C 
ATOM     23  O   LIG    1        5.001   0.127  -1.558  0.00  0.00    -0.295 OA
ENDBRANCH  19  21
BRANCH  19  24
ATOM     24  O   LIG    1        3.159  -1.593  -1.783  0.00  0.00    -0.381 OA
ATOM     25  H   LIG    1        2.773  -2.487  -1.617  0.00  0.00    +0.211 HD
ENDBRANCH  19  24
TORSDOF 2
