REMARK  Name = molecules/LAHDERDHXJFFJU-ZWNKPRIXSA-N.pdb
REMARK                            x       y       z     vdW  Elec       q    Type
REMARK                         _______ _______ _______ _____ _____    ______ ____
ROOT
ATOM      1  C   LIG    1        0.249   0.980  -0.653  0.00  0.00    +0.194 C 
ATOM      2  C   LIG    1        1.086  -0.033  -0.001  0.00  0.00    +0.056 C 
ATOM      3  C   LIG    1        0.653   0.102   1.472  0.00  0.00    +0.036 C 
ATOM      4  C   LIG    1       -0.846   0.029   1.282  0.00  0.00    +0.067 C 
ATOM      5  N   LIG    1       -1.181  -1.390   1.081  0.00  0.00    -0.269 NA
ATOM      6  C   LIG    1       -2.647  -1.415   1.052  0.00  0.00    +0.189 C 
ATOM      7  C   LIG    1       -3.216  -0.524  -0.002  0.00  0.00    +0.036 C 
ATOM      8  C   LIG    1       -2.039  -0.089  -0.887  0.00  0.00    +0.005 C 
ATOM      9  C   LIG    1       -1.441  -1.418  -1.324  0.00  0.00    +0.025 C 
ATOM     10  C   LIG    1       -0.601  -1.894  -0.131  0.00  0.00    +0.081 C 
ATOM     11  C   LIG    1        2.527  -0.002  -0.146  0.00  0.00    -0.015 A 
ATOM     12  C   LIG    1        2.973  -1.301   0.013  0.00  0.00    +0.034 A 
ATOM     13  N   LIG    1        1.827  -2.157   0.247  0.00  0.00    -0.327 N 
ATOM     14  C   LIG    1        1.846  -3.390   0.978  0.00  0.00    +0.129 C 
ATOM     15  C   LIG    1        4.328  -1.564  -0.070  0.00  0.00    +0.023 A 
ATOM     16  C   LIG    1        5.282  -0.604  -0.304  0.00  0.00    +0.002 A 
ATOM     17  C   LIG    1        4.837   0.686  -0.462  0.00  0.00    +0.000 A 
ATOM     18  C   LIG    1        3.468   0.975  -0.382  0.00  0.00    +0.006 A 
ATOM     19  C   LIG    1        0.763  -1.454  -0.419  0.00  0.00    +0.104 C 
ATOM     20  C   LIG    1       -1.126   0.711  -0.015  0.00  0.00    +0.051 C 
ENDROOT
BRANCH   6  21
ATOM     21  O   LIG    1       -3.095  -2.727   0.962  0.00  0.00    -0.377 OA
ATOM     22  H   LIG    1       -2.506  -3.258   1.586  0.00  0.00    +0.211 HD
ENDBRANCH   6  21
BRANCH   7  23
ATOM     23  C   LIG    1       -3.976   0.652   0.524  0.00  0.00    +0.004 C 
ATOM     24  C   LIG    1       -4.508   1.436  -0.667  0.00  0.00    +0.004 C 
ENDBRANCH   7  23
BRANCH   1  25
ATOM     25  O   LIG    1        0.617   2.259  -0.176  0.00  0.00    -0.459 OA
BRANCH  25  26
ATOM     26  C   LIG    1        0.789   3.359  -0.994  0.00  0.00    +0.322 C 
ATOM     27  O   LIG    1        0.618   3.244  -2.208  0.00  0.00    -0.250 OA
BRANCH  26  28
ATOM     28  C   LIG    1        1.176   4.646  -0.368  0.00  0.00    +0.229 C 
ATOM     29 CL   LIG    1        1.344   4.483   1.395  0.00  0.00    -0.114 Cl
ENDBRANCH  26  28
ENDBRANCH  25  26
ENDBRANCH   1  25
TORSDOF 5
