REMARK  Name = molecules/LAYVFLWAVIGDLK-LJQANCHMSA-N.pdb
REMARK                            x       y       z     vdW  Elec       q    Type
REMARK                         _______ _______ _______ _____ _____    ______ ____
ROOT
ATOM      1  C   LIG    1        0.523   0.003   0.143  0.00  0.00    +0.118 C 
ATOM      2  C   LIG    1        0.696  -1.468   0.171  0.00  0.00    +0.002 A 
ATOM      3  C   LIG    1        0.053  -2.234   1.155  0.00  0.00    +0.008 A 
ATOM      4  C   LIG    1        0.164  -3.600   1.235  0.00  0.00    +0.000 A 
ATOM      5  C   LIG    1        0.942  -4.255   0.308  0.00  0.00    +0.001 A 
ATOM      6  C   LIG    1        1.599  -3.511  -0.690  0.00  0.00    +0.015 A 
ATOM      7  C   LIG    1        1.466  -2.152  -0.739  0.00  0.00    +0.019 A 
ATOM      8  S   LIG    1        2.304  -1.203  -1.988  0.00  0.00    -0.089 S 
ATOM      9  C   LIG    1        2.665   0.372  -1.165  0.00  0.00    +0.019 A 
ATOM     10  C   LIG    1        3.777   1.117  -1.462  0.00  0.00    +0.019 A 
ATOM     11  C   LIG    1        3.990   2.300  -0.789  0.00  0.00    +0.047 A 
ATOM     12  C   LIG    1        3.106   2.741   0.174  0.00  0.00    +0.121 A 
ATOM     13  C   LIG    1        2.005   1.956   0.435  0.00  0.00    +0.053 A 
ATOM     14  C   LIG    1        1.746   0.758  -0.215  0.00  0.00    +0.005 A 
ENDROOT
BRANCH   1  15
ATOM     15  O   LIG    1        0.163   0.394   1.447  0.00  0.00    -0.379 OA
ATOM     16  H   LIG    1        0.919   0.264   2.085  0.00  0.00    +0.211 HD
ENDBRANCH   1  15
BRANCH  12  17
ATOM     17  O   LIG    1        3.310   3.950   0.873  0.00  0.00    -0.495 OA
ATOM     18  C   LIG    1        4.471   4.679   0.528  0.00  0.00    +0.277 C 
ENDBRANCH  12  17
BRANCH   1  19
ATOM     19  C   LIG    1       -0.651   0.394  -0.739  0.00  0.00    +0.046 C 
BRANCH  19  20
ATOM     20  C   LIG    1       -1.851  -0.411  -0.319  0.00  0.00    +0.019 C 
BRANCH  20  21
ATOM     21  C   LIG    1       -3.074  -0.055  -1.175  0.00  0.00    +0.084 C 
BRANCH  21  22
ATOM     22  N   LIG    1       -4.160  -0.878  -0.691  0.00  0.00    -0.308 NA
ATOM     23  C   LIG    1       -4.409  -0.683   0.708  0.00  0.00    +0.104 C 
ATOM     24  C   LIG    1       -5.389  -0.647  -1.413  0.00  0.00    +0.104 C 
ENDBRANCH  21  22
ENDBRANCH  20  21
ENDBRANCH  19  20
ENDBRANCH   1  19
TORSDOF 6
