REMARK  Name = molecules/LBHLFPGPEGDCJG-HNNXBMFYSA-N.pdb
REMARK                            x       y       z     vdW  Elec       q    Type
REMARK                         _______ _______ _______ _____ _____    ______ ____
ROOT
ATOM      1  C   LIG    1       -1.561  -0.153  -0.668  0.00  0.00    +0.179 A 
ATOM      2  C   LIG    1       -1.274   1.161  -0.405  0.00  0.00    +0.051 A 
ATOM      3  C   LIG    1        0.059   1.519  -0.160  0.00  0.00    +0.100 A 
ATOM      4  N   LIG    1        0.376   2.791   0.080  0.00  0.00    -0.211 NA
ATOM      5  C   LIG    1       -0.527   3.789   0.094  0.00  0.00    +0.215 A 
ATOM      6  C   LIG    1       -1.843   3.458  -0.156  0.00  0.00    +0.071 A 
ATOM      7  C   LIG    1        1.113   0.587  -0.190  0.00  0.00    +0.057 A 
ATOM      8  C   LIG    1        0.811  -0.693  -0.453  0.00  0.00    +0.074 A 
ATOM      9  C   LIG    1       -2.261   2.142  -0.416  0.00  0.00    -0.033 A 
ATOM     10  C   LIG    1       -3.658   1.854  -0.749  0.00  0.00    +0.045 C 
ATOM     11  C   LIG    1       -0.493  -1.079  -0.686  0.00  0.00    +0.165 A 
ENDROOT
BRANCH   5  12
ATOM     12  O   LIG    1       -0.207   5.100   0.354  0.00  0.00    -0.480 OA
ATOM     13  C   LIG    1        1.098   5.506   0.624  0.00  0.00    +0.279 C 
ENDBRANCH   5  12
BRANCH   7  14
ATOM     14  N   LIG    1        2.416   1.133   0.057  0.00  0.00    -0.339 N 
ATOM     15  H   LIG    1        2.518   1.820   0.835  0.00  0.00    +0.146 HD
BRANCH  14  16
ATOM     16  C   LIG    1        3.560   0.746  -0.696  0.00  0.00    +0.067 C 
ATOM     17  C   LIG    1        4.120   2.025  -1.418  0.00  0.00    +0.028 C 
BRANCH  16  18
ATOM     18  C   LIG    1        4.679  -0.053  -0.226  0.00  0.00    +0.023 C 
BRANCH  18  19
ATOM     19  C   LIG    1        4.462  -1.458   0.256  0.00  0.00    +0.017 C 
BRANCH  19  20
ATOM     20  C   LIG    1        5.806  -2.126   0.554  0.00  0.00    +0.078 C 
BRANCH  20  21
ATOM     21  N   LIG    1        6.570  -1.452   1.565  0.00  0.00    -0.330 NA
ATOM     22  H   LIG    1        7.355  -2.048   1.933  0.00  0.00    +0.118 HD
ATOM     23  H   LIG    1        7.044  -0.613   1.095  0.00  0.00    +0.118 HD
ENDBRANCH  20  21
ENDBRANCH  19  20
ENDBRANCH  18  19
ENDBRANCH  16  18
ENDBRANCH  14  16
ENDBRANCH   7  14
BRANCH  11  24
ATOM     24  O   LIG    1       -0.813  -2.388  -0.932  0.00  0.00    -0.491 OA
ATOM     25  C   LIG    1        0.225  -3.366  -0.950  0.00  0.00    +0.277 C 
ENDBRANCH  11  24
BRANCH   1  26
ATOM     26  O   LIG    1       -2.825  -0.586  -0.904  0.00  0.00    -0.452 OA
BRANCH  26  27
ATOM     27  C   LIG    1       -3.780  -1.094  -0.040  0.00  0.00    +0.129 A 
ATOM     28  C   LIG    1       -3.881  -0.781   1.292  0.00  0.00    +0.046 A 
ATOM     29  C   LIG    1       -4.860  -1.302   2.129  0.00  0.00    +0.004 A 
ATOM     30  C   LIG    1       -5.816  -2.204   1.633  0.00  0.00    +0.012 A 
ATOM     31  C   LIG    1       -5.705  -2.514   0.291  0.00  0.00    +0.058 A 
ATOM     32  C   LIG    1       -4.730  -1.995  -0.547  0.00  0.00    +0.058 A 
BRANCH  31  33
ATOM     33  C   LIG    1       -6.705  -3.480  -0.265  0.00  0.00    +0.418 C 
ATOM     34  F   LIG    1       -7.745  -3.659   0.638  0.00  0.00    -0.166 F 
ATOM     35  F   LIG    1       -6.016  -4.652  -0.483  0.00  0.00    -0.166 F 
ATOM     36  F   LIG    1       -7.110  -3.017  -1.477  0.00  0.00    -0.166 F 
ENDBRANCH  31  33
ENDBRANCH  26  27
ENDBRANCH   1  26
TORSDOF 11
