REMARK  Name = molecules/LBRNZQRZDLLIHL-LJQANCHMSA-N.pdb
REMARK                            x       y       z     vdW  Elec       q    Type
REMARK                         _______ _______ _______ _____ _____    ______ ____
ROOT
ATOM      1  C   LIG    1        0.441   0.250   0.361  0.00  0.00    +0.152 C 
ENDROOT
BRANCH   1   2
ATOM      2  C   LIG    1        1.412   1.367   0.229  0.00  0.00    -0.019 A 
ATOM      3  C   LIG    1        1.893   2.001   1.358  0.00  0.00    +0.006 A 
ATOM      4  C   LIG    1        2.794   3.036   1.218  0.00  0.00    +0.000 A 
ATOM      5  C   LIG    1        3.245   3.475  -0.017  0.00  0.00    +0.000 A 
ATOM      6  C   LIG    1        2.757   2.834  -1.139  0.00  0.00    +0.000 A 
ATOM      7  C   LIG    1        1.849   1.790  -1.010  0.00  0.00    +0.006 A 
ENDBRANCH   1   2
BRANCH   1   8
ATOM      8  C   LIG    1        1.132  -1.050   0.702  0.00  0.00    +0.071 C 
BRANCH   8  10
ATOM      9  C   LIG    1        3.449  -0.985  -0.146  0.00  0.00    +0.004 A 
ATOM     10  C   LIG    1        2.154  -1.418  -0.304  0.00  0.00    -0.045 A 
ATOM     11  C   LIG    1        1.875  -2.186  -1.412  0.00  0.00    +0.004 A 
ATOM     12  C   LIG    1        2.841  -2.523  -2.346  0.00  0.00    +0.000 A 
ATOM     13  C   LIG    1        4.135  -2.075  -2.162  0.00  0.00    +0.000 A 
ATOM     14  C   LIG    1        4.431  -1.305  -1.059  0.00  0.00    +0.000 A 
ENDBRANCH   8  10
ENDBRANCH   1   8
BRANCH   1  15
ATOM     15  O   LIG    1       -0.507   0.616   1.270  0.00  0.00    -0.373 OA
BRANCH  15  16
ATOM     16  C   LIG    1       -1.794   0.722   0.833  0.00  0.00    +0.142 C 
BRANCH  16  17
ATOM     17  C   LIG    1       -2.293  -0.601   0.305  0.00  0.00    -0.048 C 
BRANCH  17  18
ATOM     18  N   LIG    1       -3.681  -0.486  -0.166  0.00  0.00    +0.376 N 
ATOM     19  C   LIG    1       -4.534  -0.426   1.006  0.00  0.00    -0.093 C 
ATOM     20  C   LIG    1       -4.000  -1.669  -0.931  0.00  0.00    -0.093 C 
ATOM     21  C   LIG    1       -3.817   0.715  -0.988  0.00  0.00    -0.093 C 
ENDBRANCH  17  18
ENDBRANCH  16  17
ENDBRANCH  15  16
ENDBRANCH   1  15
TORSDOF 7
