REMARK  Name = molecules/LBXHRAWDUMTPSE-AOOOYVTPSA-N.pdb
REMARK                            x       y       z     vdW  Elec       q    Type
REMARK                         _______ _______ _______ _____ _____    ______ ____
ROOT
ATOM      1  C   LIG    1        1.722  -0.016   0.168  0.00  0.00    +0.040 A 
ATOM      2  C   LIG    1        2.853   0.467   0.780  0.00  0.00    +0.043 A 
ATOM      3  C   LIG    1        4.093   0.400   0.154  0.00  0.00    +0.124 A 
ATOM      4  C   LIG    1        4.211  -0.156  -1.096  0.00  0.00    +0.067 A 
ATOM      5  C   LIG    1        3.089  -0.642  -1.714  0.00  0.00    +0.023 A 
ATOM      6 CL   LIG    1        5.773  -0.248  -1.909  0.00  0.00    -0.082 Cl
ATOM      7  C   LIG    1        1.843  -0.572  -1.082  0.00  0.00    +0.014 A 
ENDROOT
BRANCH   1   8
ATOM      8  C   LIG    1        0.419   0.060   0.820  0.00  0.00    +0.258 C 
ATOM      9  O   LIG    1        0.393   0.191   2.066  0.00  0.00    -0.269 OA
ATOM     10  N   LIG    1       -0.784  -0.012   0.050  0.00  0.00    -0.244 N 
ATOM     11  H   LIG    1       -0.735  -0.116  -0.978  0.00  0.00    +0.170 HD
BRANCH  10  12
ATOM     12  N   LIG    1       -2.019   0.066   0.708  0.00  0.00    -0.221 NA
ATOM     13  C   LIG    1       -2.824  -1.104   0.594  0.00  0.00    +0.073 C 
ATOM     14  C   LIG    1       -2.147  -2.366   1.041  0.00  0.00    +0.026 C 
ATOM     15  C   LIG    1       -3.302  -1.206  -0.853  0.00  0.00    +0.020 C 
ATOM     16  C   LIG    1       -4.412  -0.179  -0.989  0.00  0.00    +0.003 C 
ATOM     17  C   LIG    1       -4.196   0.963  -0.043  0.00  0.00    +0.020 C 
ATOM     18  C   LIG    1       -2.771   1.226   0.295  0.00  0.00    +0.073 C 
ATOM     19  C   LIG    1       -2.122   1.923  -0.887  0.00  0.00    +0.026 C 
ENDBRANCH  10  12
ENDBRANCH   1   8
BRANCH   3  20
ATOM     20  S   LIG    1        5.511   1.028   0.953  0.00  0.00    +0.057 S 
ATOM     21  O   LIG    1        5.150   1.622   2.288  0.00  0.00    -0.153 OA
ATOM     22  O   LIG    1        6.149   2.092   0.067  0.00  0.00    -0.153 OA
BRANCH  20  23
ATOM     23  N   LIG    1        6.674  -0.201   1.194  0.00  0.00    -0.203 NA
ATOM     24  H   LIG    1        6.766  -0.479   2.214  0.00  0.00    +0.144 HD
ATOM     25  H   LIG    1        7.641   0.123   0.912  0.00  0.00    +0.144 HD
ENDBRANCH  20  23
ENDBRANCH   3  20
TORSDOF 4
