REMARK  Name = molecules/LDCRTTXIJACKKU-ONEGZZNKSA-N.pdb
REMARK                            x       y       z     vdW  Elec       q    Type
REMARK                         _______ _______ _______ _____ _____    ______ ____
ROOT
ATOM      1  C   LIG    1       -0.310  -0.044  -0.019  0.00  0.00    +0.098 C 
ATOM      2  C   LIG    1        0.483  -1.089  -0.189  0.00  0.00    +0.098 C 
ENDROOT
BRANCH   1   3
ATOM      3  C   LIG    1       -1.771  -0.191  -0.056  0.00  0.00    +0.332 C 
ATOM      4  O   LIG    1       -2.252  -1.336  -0.253  0.00  0.00    -0.246 OA
BRANCH   3   5
ATOM      5  O   LIG    1       -2.630   0.861   0.114  0.00  0.00    -0.465 OA
ATOM      6  C   LIG    1       -4.026   0.787   0.090  0.00  0.00    +0.280 C 
ENDBRANCH   3   5
ENDBRANCH   1   3
BRANCH   2   7
ATOM      7  C   LIG    1        1.922  -0.922  -0.149  0.00  0.00    +0.332 C 
ATOM      8  O   LIG    1        2.654  -1.918  -0.311  0.00  0.00    -0.246 OA
BRANCH   7   9
ATOM      9  O   LIG    1        2.494   0.312   0.064  0.00  0.00    -0.465 OA
ATOM     10  C   LIG    1        3.875   0.526   0.112  0.00  0.00    +0.280 C 
ENDBRANCH   7   9
ENDBRANCH   2   7
TORSDOF 4
