REMARK  Name = molecules/LDCXGZCEMNMWIL-VOTSOKGWSA-N.pdb
REMARK                            x       y       z     vdW  Elec       q    Type
REMARK                         _______ _______ _______ _____ _____    ______ ____
ROOT
ATOM      1  C   LIG    1        0.433  -0.134   0.295  0.00  0.00    +0.013 C 
ATOM      2  C   LIG    1       -0.234   0.735  -0.430  0.00  0.00    +0.068 C 
ENDROOT
BRANCH   1   3
ATOM      3  C   LIG    1        1.889  -0.287   0.262  0.00  0.00    -0.024 A 
ATOM      4  C   LIG    1        2.493  -1.249   1.080  0.00  0.00    +0.008 A 
ATOM      5  C   LIG    1        3.858  -1.431   1.084  0.00  0.00    +0.002 A 
ATOM      6  C   LIG    1        4.693  -0.677   0.286  0.00  0.00    +0.015 A 
ATOM      7  C   LIG    1        4.112   0.273  -0.523  0.00  0.00    +0.018 A 
ATOM      8 BR   LIG    1        5.201   1.353  -1.654  0.00  0.00    -0.050 Br
ATOM      9  C   LIG    1        2.725   0.455  -0.525  0.00  0.00    +0.023 A 
ENDBRANCH   1   3
BRANCH   2  10
ATOM     10  C   LIG    1       -1.694   0.882  -0.390  0.00  0.00    +0.237 C 
ATOM     11  N   LIG    1       -2.544   0.107   0.429  0.00  0.00    -0.312 N 
ATOM     12  H   LIG    1       -2.157  -0.616   1.052  0.00  0.00    +0.149 HD
ATOM     13  O   LIG    1       -2.207   1.773  -1.153  0.00  0.00    -0.271 OA
BRANCH  11  14
ATOM     14  C   LIG    1       -3.967   0.357   0.368  0.00  0.00    +0.101 C 
ATOM     15  C   LIG    1       -4.524   0.134  -1.025  0.00  0.00    +0.024 C 
ENDBRANCH  11  14
ENDBRANCH   2  10
TORSDOF 3
