REMARK  Name = molecules/LDCYZAJDBXYCGN-VIFPVBQESA-N.pdb
REMARK                            x       y       z     vdW  Elec       q    Type
REMARK                         _______ _______ _______ _____ _____    ______ ____
ROOT
ATOM      1  C   LIG    1       -0.114   0.468  -0.995  0.00  0.00    -0.020 A 
ATOM      2  C   LIG    1        1.027   0.180  -0.304  0.00  0.00    +0.006 A 
ATOM      3  C   LIG    1        1.422   0.439   1.011  0.00  0.00    +0.055 A 
ATOM      4  C   LIG    1        2.654   0.027   1.458  0.00  0.00    +0.118 A 
ATOM      5  C   LIG    1        3.489  -0.643   0.590  0.00  0.00    +0.047 A 
ATOM      6  C   LIG    1        3.127  -0.911  -0.709  0.00  0.00    +0.030 A 
ATOM      7  C   LIG    1        1.877  -0.492  -1.156  0.00  0.00    +0.047 A 
ATOM      8  N   LIG    1        1.251  -0.606  -2.350  0.00  0.00    -0.360 N 
ATOM      9  H   LIG    1        1.647  -1.074  -3.209  0.00  0.00    +0.165 HD
ATOM     10  C   LIG    1        0.039  -0.029  -2.272  0.00  0.00    +0.087 A 
ENDROOT
BRANCH   4  11
ATOM     11  O   LIG    1        3.013   0.306   2.784  0.00  0.00    -0.507 OA
ATOM     12  H   LIG    1        2.796  -0.363   3.528  0.00  0.00    +0.292 HD
ENDBRANCH   4  11
BRANCH   1  13
ATOM     13  C   LIG    1       -1.292   1.198  -0.424  0.00  0.00    +0.067 C 
BRANCH  13  14
ATOM     14  CA  LIG    1       -2.044   0.217   0.475  0.00  0.00    +0.165 C 
BRANCH  14  15
ATOM     15  N   LIG    1       -2.386  -0.906  -0.311  0.00  0.00    -0.318 NA
ATOM     16  H1  LIG    1       -3.327  -0.930  -0.715  0.00  0.00    +0.119 HD
ATOM     17  H2  LIG    1       -1.651  -1.420  -0.761  0.00  0.00    +0.119 HD
ENDBRANCH  14  15
BRANCH  14  18
ATOM     18  C   LIG    1       -3.234   0.862   1.085  0.00  0.00    +0.322 C 
ATOM     19  OXT LIG    1       -3.099   1.876   1.814  0.00  0.00    -0.249 OA
BRANCH  18  20
ATOM     20  O   LIG    1       -4.505   0.312   0.830  0.00  0.00    -0.480 OA
ATOM     21  H   LIG    1       -4.704  -0.555   1.333  0.00  0.00    +0.295 HD
ENDBRANCH  18  20
ENDBRANCH  14  18
ENDBRANCH  13  14
ENDBRANCH   1  13
TORSDOF 6
