REMARK  Name = molecules/LDEKQSIMHVQZJK-CAQYMETFSA-N.pdb
REMARK                            x       y       z     vdW  Elec       q    Type
REMARK                         _______ _______ _______ _____ _____    ______ ____
ROOT
ATOM      1  P   LIG    1       -1.271  -1.721   0.628  0.00  0.00    +0.345 P 
ATOM      2  O   LIG    1       -0.947  -2.684   1.737  0.00  0.00    -0.257 OA
ENDROOT
BRANCH   1   3
ATOM      3  N   LIG    1       -2.190  -0.392   1.337  0.00  0.00    -0.221 NA
ATOM      4  H   LIG    1       -1.663  -0.025   2.132  0.00  0.00    +0.133 HD
BRANCH   3   5
ATOM      5  C   LIG    1       -2.465   0.545   0.298  0.00  0.00    +0.169 C 
ATOM      6  C   LIG    1       -3.342  -0.155  -0.746  0.00  0.00    +0.036 C 
BRANCH   5   7
ATOM      7  C   LIG    1       -3.238   1.725   0.754  0.00  0.00    +0.325 C 
ATOM      8  O   LIG    1       -3.627   1.921   1.908  0.00  0.00    -0.249 OA
BRANCH   7   9
ATOM      9  O   LIG    1       -3.530   2.673  -0.233  0.00  0.00    -0.461 OA
BRANCH   9  10
ATOM     10  C   LIG    1       -4.245   3.848  -0.003  0.00  0.00    +0.170 C 
ATOM     11  C   LIG    1       -3.378   5.011  -0.471  0.00  0.00    +0.052 C 
ATOM     12  C   LIG    1       -5.450   3.825  -0.954  0.00  0.00    +0.052 C 
ENDBRANCH   9  10
ENDBRANCH   7   9
ENDBRANCH   5   7
ENDBRANCH   3   5
ENDBRANCH   1   3
BRANCH   1  13
ATOM     13  C   LIG    1        0.283  -1.133  -0.086  0.00  0.00    +0.286 C 
BRANCH  13  14
ATOM     14  O   LIG    1        1.294  -1.337   0.818  0.00  0.00    -0.363 OA
BRANCH  14  15
ATOM     15  C   LIG    1        2.537  -0.919   0.373  0.00  0.00    +0.136 C 
ATOM     16  C   LIG    1        3.536  -2.058   0.359  0.00  0.00    +0.040 C 
BRANCH  15  17
ATOM     17  C   LIG    1        3.037   0.126   1.357  0.00  0.00    +0.156 C 
BRANCH  17  18
ATOM     18  N   LIG    1        4.346   0.633   0.978  0.00  0.00    -0.312 N 
ATOM     19  C   LIG    1        5.543   0.154   1.339  0.00  0.00    +0.201 A 
ATOM     20  N   LIG    1        6.471   0.930   0.757  0.00  0.00    -0.231 NA
ATOM     21  C   LIG    1        5.874   1.892   0.034  0.00  0.00    +0.147 A 
ATOM     22  C   LIG    1        6.345   2.913  -0.732  0.00  0.00    +0.147 A 
ATOM     23  N   LIG    1        5.486   3.732  -1.349  0.00  0.00    -0.219 NA
ATOM     24  C   LIG    1        4.168   3.559  -1.220  0.00  0.00    +0.225 A 
ATOM     25  N   LIG    1        3.687   2.552  -0.464  0.00  0.00    -0.216 NA
ATOM     26  C   LIG    1        4.507   1.706   0.172  0.00  0.00    +0.165 A 
BRANCH  22  27
ATOM     27  N   LIG    1        7.743   3.091  -0.865  0.00  0.00    -0.341 N 
ATOM     28  H   LIG    1        8.157   4.034  -0.692  0.00  0.00    +0.144 HD
ATOM     29  H   LIG    1        8.351   2.290  -1.133  0.00  0.00    +0.144 HD
ENDBRANCH  22  27
ENDBRANCH  17  18
ENDBRANCH  15  17
ENDBRANCH  14  15
ENDBRANCH  13  14
ENDBRANCH   1  13
BRANCH   1  30
ATOM     30  O   LIG    1       -2.225  -2.511  -0.581  0.00  0.00    -0.431 OA
BRANCH  30  31
ATOM     31  C   LIG    1       -2.427  -3.873  -0.475  0.00  0.00    +0.129 A 
ATOM     32  C   LIG    1       -3.506  -4.360   0.222  0.00  0.00    +0.046 A 
ATOM     33  C   LIG    1       -3.739  -5.729   0.349  0.00  0.00    +0.004 A 
ATOM     34  C   LIG    1       -2.871  -6.630  -0.235  0.00  0.00    +0.000 A 
ATOM     35  C   LIG    1       -1.796  -6.155  -0.930  0.00  0.00    +0.004 A 
ATOM     36  C   LIG    1       -1.578  -4.794  -1.048  0.00  0.00    +0.046 A 
ENDBRANCH  30  31
ENDBRANCH   1  30
TORSDOF 13
