REMARK  Name = molecules/LDMWSLGGVTVJPG-UHFFFAOYSA-N.pdb
REMARK                            x       y       z     vdW  Elec       q    Type
REMARK                         _______ _______ _______ _____ _____    ______ ____
ROOT
ATOM      1  C   LIG    1        0.670  -2.079  -1.238  0.00  0.00    +0.047 C 
ATOM      2  C   LIG    1        1.226  -1.020  -0.357  0.00  0.00    -0.007 A 
ATOM      3  C   LIG    1        0.406  -0.518   0.628  0.00  0.00    +0.144 A 
ATOM      4  N   LIG    1        0.910   0.440   1.418  0.00  0.00    -0.134 NA
ATOM      5  N   LIG    1        2.142   0.899   1.276  0.00  0.00    -0.147 NA
ATOM      6  C   LIG    1        3.001   0.458   0.338  0.00  0.00    +0.094 A 
ATOM      7  C   LIG    1        2.526  -0.529  -0.501  0.00  0.00    +0.037 A 
ENDROOT
BRANCH   6   8
ATOM      8  C   LIG    1        4.345   1.017   0.249  0.00  0.00    +0.002 A 
ATOM      9  C   LIG    1        4.697   2.003   1.138  0.00  0.00    +0.010 A 
ATOM     10  C   LIG    1        5.949   2.570   1.104  0.00  0.00    +0.001 A 
ATOM     11  C   LIG    1        6.880   2.160   0.175  0.00  0.00    +0.000 A 
ATOM     12  C   LIG    1        6.540   1.179  -0.714  0.00  0.00    +0.001 A 
ATOM     13  C   LIG    1        5.272   0.608  -0.677  0.00  0.00    +0.010 A 
ENDBRANCH   6   8
BRANCH   3  14
ATOM     14  N   LIG    1       -0.954  -1.016   0.801  0.00  0.00    -0.326 N 
ATOM     15  H   LIG    1       -1.254  -1.769   0.161  0.00  0.00    +0.148 HD
BRANCH  14  16
ATOM     16  C   LIG    1       -1.723  -0.436   1.845  0.00  0.00    +0.118 C 
BRANCH  16  17
ATOM     17  C   LIG    1       -3.134  -0.923   1.876  0.00  0.00    +0.103 C 
BRANCH  17  18
ATOM     18  N   LIG    1       -3.896  -0.608   0.750  0.00  0.00    -0.297 NA
ATOM     19  C   LIG    1       -4.315   0.754   0.658  0.00  0.00    +0.112 C 
ATOM     20  C   LIG    1       -5.155   1.008  -0.559  0.00  0.00    +0.175 C 
ATOM     21  O   LIG    1       -5.779  -0.130  -1.033  0.00  0.00    -0.377 OA
ATOM     22  C   LIG    1       -4.918  -1.134  -1.404  0.00  0.00    +0.175 C 
ATOM     23  C   LIG    1       -3.681  -1.196  -0.501  0.00  0.00    +0.112 C 
ENDBRANCH  17  18
ENDBRANCH  16  17
ENDBRANCH  14  16
ENDBRANCH   3  14
TORSDOF 5
