REMARK  Name = molecules/LDXDSHIEDAPSSA-OAHLLOKOSA-N.pdb
REMARK                            x       y       z     vdW  Elec       q    Type
REMARK                         _______ _______ _______ _____ _____    ______ ____
ROOT
ATOM      1  N   LIG    1       -2.251   0.229  -0.494  0.00  0.00    -0.343 N 
ATOM      2  C   LIG    1       -1.526  -0.140   0.576  0.00  0.00    +0.023 A 
ATOM      3  C   LIG    1       -1.645  -0.081   2.056  0.00  0.00    +0.055 C 
ATOM      4  C   LIG    1       -0.375   0.324   2.729  0.00  0.00    +0.027 C 
ATOM      5  C   LIG    1        0.880  -0.063   2.014  0.00  0.00    +0.081 C 
ATOM      6  C   LIG    1        0.604  -1.218   1.062  0.00  0.00    +0.058 C 
ATOM      7  C   LIG    1       -0.381  -0.718   0.073  0.00  0.00    -0.017 A 
ATOM      8  C   LIG    1       -0.412  -0.700  -1.307  0.00  0.00    +0.003 A 
ATOM      9  C   LIG    1        0.434  -1.127  -2.306  0.00  0.00    +0.010 A 
ATOM     10  C   LIG    1        0.147  -0.980  -3.641  0.00  0.00    +0.001 A 
ATOM     11  C   LIG    1       -1.052  -0.372  -3.973  0.00  0.00    +0.002 A 
ATOM     12  C   LIG    1       -1.912   0.061  -2.975  0.00  0.00    +0.026 A 
ATOM     13  C   LIG    1       -1.618  -0.090  -1.637  0.00  0.00    +0.050 A 
ENDROOT
BRANCH   5  14
ATOM     14  N   LIG    1        1.986  -0.321   2.877  0.00  0.00    -0.187 NA
ATOM     15  H   LIG    1        1.665  -0.154   3.875  0.00  0.00    +0.148 HD
BRANCH  14  16
ATOM     16  S   LIG    1        3.313   0.745   2.608  0.00  0.00    +0.059 S 
ATOM     17  O   LIG    1        4.407   0.498   3.605  0.00  0.00    -0.153 OA
ATOM     18  O   LIG    1        2.884   2.186   2.803  0.00  0.00    -0.153 OA
BRANCH  16  19
ATOM     19  C   LIG    1        3.921   0.562   0.982  0.00  0.00    +0.105 A 
ATOM     20  C   LIG    1        4.912  -0.392   0.740  0.00  0.00    +0.031 A 
ATOM     21  C   LIG    1        5.444  -0.598  -0.498  0.00  0.00    +0.040 A 
ATOM     22  C   LIG    1        5.001   0.154  -1.577  0.00  0.00    +0.124 A 
ATOM     23  C   LIG    1        4.027   1.096  -1.351  0.00  0.00    +0.040 A 
ATOM     24  F   LIG    1        5.535  -0.059  -2.802  0.00  0.00    -0.205 F 
ATOM     25  C   LIG    1        3.486   1.304  -0.085  0.00  0.00    +0.031 A 
ENDBRANCH  16  19
ENDBRANCH  14  16
ENDBRANCH   5  14
BRANCH   1  26
ATOM     26  C   LIG    1       -3.549   0.886  -0.367  0.00  0.00    +0.133 C 
BRANCH  26  27
ATOM     27  C   LIG    1       -4.648  -0.146  -0.324  0.00  0.00    +0.142 C 
BRANCH  27  28
ATOM     28  C   LIG    1       -5.962   0.517  -0.196  0.00  0.00    +0.306 C 
ATOM     29  O   LIG    1       -6.021   1.785  -0.139  0.00  0.00    -0.251 OA
BRANCH  28  30
ATOM     30  O   LIG    1       -7.160  -0.157  -0.131  0.00  0.00    -0.481 OA
ATOM     31  H   LIG    1       -7.240  -1.151   0.039  0.00  0.00    +0.295 HD
ENDBRANCH  28  30
ENDBRANCH  27  28
ENDBRANCH  26  27
ENDBRANCH   1  26
TORSDOF 7
