REMARK  Name = molecules/LDXSPUSKBDTEKA-UHFFFAOYSA-N.pdb
REMARK                            x       y       z     vdW  Elec       q    Type
REMARK                         _______ _______ _______ _____ _____    ______ ____
ROOT
ATOM      1  C   LIG    1        1.975   0.985   0.785  0.00  0.00    +0.137 A 
ATOM      2  C   LIG    1        1.026   1.277   1.721  0.00  0.00    +0.099 A 
ATOM      3  C   LIG    1        1.268   2.336   2.604  0.00  0.00    +0.020 A 
ATOM      4  C   LIG    1        2.438   3.083   2.549  0.00  0.00    +0.021 A 
ATOM      5  C   LIG    1        3.362   2.744   1.585  0.00  0.00    +0.113 A 
ATOM      6  N   LIG    1        3.124   1.738   0.750  0.00  0.00    -0.239 NA
ENDROOT
BRANCH   1   7
ATOM      7  N   LIG    1        1.838  -0.025  -0.193  0.00  0.00    -0.299 N 
ATOM      8  H   LIG    1        0.971  -0.598  -0.315  0.00  0.00    +0.154 HD
BRANCH   7   9
ATOM      9  C   LIG    1        2.862  -0.363  -1.115  0.00  0.00    +0.033 A 
ATOM     10  C   LIG    1        4.172  -0.230  -0.784  0.00  0.00    +0.035 A 
ATOM     11  C   LIG    1        5.169  -0.558  -1.714  0.00  0.00    +0.057 A 
ATOM     12  C   LIG    1        4.850  -1.017  -2.966  0.00  0.00    +0.012 A 
ATOM     13  C   LIG    1        3.515  -1.152  -3.301  0.00  0.00    +0.002 A 
ATOM     14  C   LIG    1        2.562  -0.830  -2.392  0.00  0.00    +0.023 A 
BRANCH  11  15
ATOM     15  C   LIG    1        6.600  -0.424  -1.354  0.00  0.00    +0.417 C 
ATOM     16  F   LIG    1        6.721   0.074  -0.067  0.00  0.00    -0.166 F 
ATOM     17  F   LIG    1        7.143  -1.716  -1.445  0.00  0.00    -0.166 F 
ATOM     18  F   LIG    1        7.250   0.386  -2.261  0.00  0.00    -0.166 F 
ENDBRANCH  11  15
ENDBRANCH   7   9
ENDBRANCH   1   7
BRANCH   2  19
ATOM     19  C   LIG    1       -0.206   0.524   1.819  0.00  0.00    +0.343 C 
ATOM     20  O   LIG    1       -1.068   0.823   2.714  0.00  0.00    -0.245 OA
BRANCH  19  21
ATOM     21  O   LIG    1       -0.568  -0.530   1.017  0.00  0.00    -0.460 OA
BRANCH  21  22
ATOM     22  C   LIG    1       -1.705  -1.308   1.025  0.00  0.00    +0.248 C 
BRANCH  22  23
ATOM     23  C   LIG    1       -2.957  -0.495   0.832  0.00  0.00    +0.125 C 
BRANCH  23  24
ATOM     24  N   LIG    1       -4.119  -1.308   0.801  0.00  0.00    -0.295 NA
ATOM     25  C   LIG    1       -5.280  -0.667   1.292  0.00  0.00    +0.112 C 
ATOM     26  C   LIG    1       -6.137  -0.050   0.198  0.00  0.00    +0.175 C 
ATOM     27  O   LIG    1       -6.419  -1.030  -0.715  0.00  0.00    -0.377 OA
ATOM     28  C   LIG    1       -5.267  -1.435  -1.347  0.00  0.00    +0.175 C 
ATOM     29  C   LIG    1       -4.276  -2.100  -0.391  0.00  0.00    +0.112 C 
ENDBRANCH  23  24
ENDBRANCH  22  23
ENDBRANCH  21  22
ENDBRANCH  19  21
ENDBRANCH   2  19
TORSDOF 8
