REMARK  Name = molecules/LDXYBEHACFJIEL-HNNXBMFYSA-N.pdb
REMARK                            x       y       z     vdW  Elec       q    Type
REMARK                         _______ _______ _______ _____ _____    ______ ____
ROOT
ATOM      1  C   LIG    1       -0.098  -2.113  -0.455  0.00  0.00    +0.126 C 
ENDROOT
BRANCH   1   4
ATOM      2  C   LIG    1        2.073  -1.395   0.594  0.00  0.00    +0.247 C 
ATOM      3  O   LIG    1        1.815  -2.166   1.562  0.00  0.00    -0.270 OA
ATOM      4  N   LIG    1        1.129  -1.327  -0.461  0.00  0.00    -0.310 N 
ATOM      5  H   LIG    1        1.256  -0.709  -1.288  0.00  0.00    +0.149 HD
BRANCH   2  15
ATOM      6  C   LIG    1        3.996  -0.330   1.651  0.00  0.00    +0.129 A 
ATOM      7  N   LIG    1        5.125   0.405   1.593  0.00  0.00    -0.221 N 
ATOM      8  N   LIG    1        6.001   0.801   2.511  0.00  0.00    -0.170 NA
ATOM      9  C   LIG    1        6.993   1.530   1.985  0.00  0.00    +0.062 A 
ATOM     10  C   LIG    1        8.159   2.145   2.712  0.00  0.00    +0.067 C 
ATOM     11  C   LIG    1        6.735   1.605   0.640  0.00  0.00    +0.073 A 
ATOM     12  C   LIG    1        5.565   0.897   0.419  0.00  0.00    +0.156 A 
ATOM     13  N   LIG    1        4.841   0.628  -0.682  0.00  0.00    -0.235 NA
ATOM     14  C   LIG    1        3.703  -0.102  -0.684  0.00  0.00    +0.127 A 
ATOM     15  C   LIG    1        3.274  -0.593   0.522  0.00  0.00    +0.073 A 
ENDBRANCH   2  15
ENDBRANCH   1   4
BRANCH   1  16
ATOM     16  C   LIG    1       -0.947  -1.877  -1.685  0.00  0.00    +0.029 C 
ATOM     17  C   LIG    1       -2.038  -2.932  -1.716  0.00  0.00    +0.029 C 
ATOM     18  C   LIG    1       -0.030  -2.249  -2.875  0.00  0.00    +0.029 C 
BRANCH  16  19
ATOM     19  N   LIG    1       -1.371  -0.578  -1.886  0.00  0.00    -0.302 NA
ATOM     20  H   LIG    1       -1.073  -0.091  -2.731  0.00  0.00    +0.123 HD
BRANCH  19  21
ATOM     21  C   LIG    1       -2.190   0.160  -1.059  0.00  0.00    +0.178 C 
BRANCH  21  22
ATOM     22  C   LIG    1       -3.625  -0.149  -0.960  0.00  0.00    +0.230 C 
ATOM     23  N   LIG    1       -4.461   0.604  -0.056  0.00  0.00    -0.285 N 
ATOM     24  C   LIG    1       -4.069   1.689   0.824  0.00  0.00    +0.179 C 
ATOM     25  C   LIG    1       -5.132   2.729   0.546  0.00  0.00    +0.039 C 
ATOM     26  C   LIG    1       -6.378   1.898   0.386  0.00  0.00    +0.022 C 
ATOM     27  C   LIG    1       -5.889   0.458   0.190  0.00  0.00    +0.109 C 
ATOM     28  O   LIG    1       -4.224  -1.033  -1.600  0.00  0.00    -0.274 OA
BRANCH  24  29
ATOM     29  C   LIG    1       -4.234   1.298   2.238  0.00  0.00    +0.085 C 
ATOM     30  N   LIG    1       -4.360   0.973   3.339  0.00  0.00    -0.195 NA
ENDBRANCH  24  29
ENDBRANCH  21  22
ENDBRANCH  19  21
ENDBRANCH  16  19
ENDBRANCH   1  16
TORSDOF 7
