REMARK  Name = molecules/LDYJXVUOVPVZKA-UHFFFAOYSA-N.pdb
REMARK                            x       y       z     vdW  Elec       q    Type
REMARK                         _______ _______ _______ _____ _____    ______ ____
ROOT
ATOM      1  N   LIG    1       -0.404   0.603  -0.814  0.00  0.00    -0.324 N 
ENDROOT
BRANCH   1   2
ATOM      2  C   LIG    1       -0.955   1.846  -0.347  0.00  0.00    +0.030 A 
ATOM      3  C   LIG    1       -1.619   1.982   0.832  0.00  0.00    +0.023 A 
ATOM      4  C   LIG    1       -2.109   3.220   1.192  0.00  0.00    +0.002 A 
ATOM      5  C   LIG    1       -1.935   4.327   0.371  0.00  0.00    +0.000 A 
ATOM      6  C   LIG    1       -1.264   4.208  -0.829  0.00  0.00    +0.002 A 
ATOM      7  C   LIG    1       -0.781   2.963  -1.172  0.00  0.00    +0.023 A 
ENDBRANCH   1   2
BRANCH   1   8
ATOM      8  C   LIG    1        0.924   0.283  -0.419  0.00  0.00    +0.121 C 
BRANCH   8   9
ATOM      9  C   LIG    1        1.100  -0.829   0.554  0.00  0.00    +0.102 C 
BRANCH   9  10
ATOM     10  N   LIG    1        2.515  -0.990   0.807  0.00  0.00    -0.307 NA
ATOM     11  C   LIG    1        2.833  -2.017   1.739  0.00  0.00    +0.104 C 
ATOM     12  C   LIG    1        3.266   0.208   0.903  0.00  0.00    +0.104 C 
ENDBRANCH   9  10
ENDBRANCH   8   9
ENDBRANCH   1   8
BRANCH   1  13
ATOM     13  C   LIG    1       -1.210  -0.228  -1.635  0.00  0.00    +0.147 C 
BRANCH  13  14
ATOM     14  C   LIG    1       -1.481  -1.606  -1.099  0.00  0.00    +0.007 A 
ATOM     15  S   LIG    1       -2.276  -2.092   0.328  0.00  0.00    -0.100 S 
ATOM     16  C   LIG    1       -2.151  -3.782   0.157  0.00  0.00    +0.045 A 
ATOM     17  C   LIG    1       -1.480  -3.927  -1.030  0.00  0.00    +0.008 A 
ATOM     18  C   LIG    1       -1.136  -2.803  -1.676  0.00  0.00    +0.013 A 
ENDBRANCH  13  14
ENDBRANCH   1  13
TORSDOF 6
