REMARK  Name = molecules/LEBVLXFERQHONN-MRXNPFEDSA-N.pdb
REMARK                            x       y       z     vdW  Elec       q    Type
REMARK                         _______ _______ _______ _____ _____    ______ ____
ROOT
ATOM      1  C   LIG    1       -0.679   0.234  -0.168  0.00  0.00    +0.234 C 
ATOM      2  O   LIG    1       -0.658   1.135   0.709  0.00  0.00    -0.274 OA
ATOM      3  N   LIG    1       -1.868  -0.530  -0.381  0.00  0.00    -0.284 N 
ATOM      4  H   LIG    1       -1.849  -1.272  -1.120  0.00  0.00    +0.155 HD
ENDROOT
BRANCH   3   5
ATOM      5  C   LIG    1       -3.026  -0.281   0.389  0.00  0.00    +0.039 A 
ATOM      6  C   LIG    1       -3.185  -0.973   1.567  0.00  0.00    -0.029 A 
ATOM      7  C   LIG    1       -4.304  -0.744   2.331  0.00  0.00    +0.005 A 
ATOM      8  C   LIG    1       -5.271   0.167   1.937  0.00  0.00    +0.001 A 
ATOM      9  C   LIG    1       -5.122   0.868   0.755  0.00  0.00    +0.005 A 
ATOM     10  C   LIG    1       -2.156  -1.948   1.991  0.00  0.00    +0.045 C 
ATOM     11  C   LIG    1       -3.980   0.628  -0.015  0.00  0.00    -0.029 A 
ATOM     12  C   LIG    1       -3.774   1.356  -1.292  0.00  0.00    +0.045 C 
ENDBRANCH   3   5
BRANCH   1  13
ATOM     13  C   LIG    1        0.556  -0.016  -0.973  0.00  0.00    +0.143 C 
ATOM     14  N   LIG    1        1.632   0.831  -0.614  0.00  0.00    -0.291 NA
ATOM     15  C   LIG    1        2.572   1.151  -1.632  0.00  0.00    +0.085 C 
ATOM     16  C   LIG    1        2.634   0.188  -2.770  0.00  0.00    +0.015 C 
ATOM     17  C   LIG    1        1.274   0.075  -3.385  0.00  0.00    +0.003 C 
ATOM     18  C   LIG    1        0.151   0.264  -2.420  0.00  0.00    +0.028 C 
BRANCH  14  19
ATOM     19  C   LIG    1        2.248   0.579   0.634  0.00  0.00    +0.085 C 
BRANCH  19  20
ATOM     20  C   LIG    1        3.011  -0.717   0.703  0.00  0.00    +0.015 C 
BRANCH  20  21
ATOM     21  C   LIG    1        3.636  -0.900   2.077  0.00  0.00    -0.002 C 
ATOM     22  C   LIG    1        4.598   0.223   2.398  0.00  0.00    +0.004 C 
ENDBRANCH  20  21
ENDBRANCH  19  20
ENDBRANCH  14  19
ENDBRANCH   1  13
TORSDOF 5
