REMARK  Name = molecules/LEBVLXFERQHONN-INIZCTEOSA-N.pdb
REMARK                            x       y       z     vdW  Elec       q    Type
REMARK                         _______ _______ _______ _____ _____    ______ ____
ROOT
ATOM      1  C   LIG    1       -0.702  -0.013  -0.247  0.00  0.00    +0.234 C 
ATOM      2  N   LIG    1       -1.764  -0.038   0.689  0.00  0.00    -0.284 N 
ATOM      3  H   LIG    1       -1.599   0.052   1.727  0.00  0.00    +0.155 HD
ATOM      4  O   LIG    1       -0.949  -0.125  -1.467  0.00  0.00    -0.274 OA
ENDROOT
BRANCH   2   5
ATOM      5  C   LIG    1       -3.128  -0.187   0.321  0.00  0.00    +0.039 A 
ATOM      6  C   LIG    1       -3.660  -1.457   0.232  0.00  0.00    -0.029 A 
ATOM      7  C   LIG    1       -2.855  -2.668   0.509  0.00  0.00    +0.045 C 
ATOM      8  C   LIG    1       -4.992  -1.661  -0.124  0.00  0.00    +0.005 A 
ATOM      9  C   LIG    1       -5.828  -0.599  -0.403  0.00  0.00    +0.001 A 
ATOM     10  C   LIG    1       -5.298   0.670  -0.315  0.00  0.00    +0.005 A 
ATOM     11  C   LIG    1       -3.979   0.859   0.039  0.00  0.00    -0.029 A 
ATOM     12  C   LIG    1       -3.447   2.240   0.123  0.00  0.00    +0.045 C 
ENDBRANCH   2   5
BRANCH   1  13
ATOM     13  C   LIG    1        0.678   0.147   0.262  0.00  0.00    +0.143 C 
ATOM     14  C   LIG    1        0.737   1.408   1.073  0.00  0.00    +0.028 C 
ATOM     15  C   LIG    1        0.436   2.581   0.196  0.00  0.00    +0.003 C 
ATOM     16  C   LIG    1        1.381   2.562  -0.966  0.00  0.00    +0.015 C 
ATOM     17  C   LIG    1        2.335   1.390  -0.911  0.00  0.00    +0.085 C 
ATOM     18  N   LIG    1        1.664   0.115  -0.795  0.00  0.00    -0.291 NA
BRANCH  18  19
ATOM     19  C   LIG    1        2.656  -0.872  -0.419  0.00  0.00    +0.085 C 
BRANCH  19  20
ATOM     20  C   LIG    1        3.750  -1.008  -1.446  0.00  0.00    +0.015 C 
BRANCH  20  21
ATOM     21  C   LIG    1        4.771  -2.055  -1.015  0.00  0.00    -0.002 C 
ATOM     22  C   LIG    1        5.412  -1.682   0.300  0.00  0.00    +0.004 C 
ENDBRANCH  20  21
ENDBRANCH  19  20
ENDBRANCH  18  19
ENDBRANCH   1  13
TORSDOF 5
