REMARK  Name = molecules/LENZDBCJOHFCAS-UHFFFAOYSA-N.pdb
REMARK                            x       y       z     vdW  Elec       q    Type
REMARK                         _______ _______ _______ _____ _____    ______ ____
ROOT
ATOM      1  C   LIG    1       -0.156   0.004   0.156  0.00  0.00    +0.086 C 
ENDROOT
BRANCH   1   2
ATOM      2  N   LIG    1       -0.858   0.408   1.340  0.00  0.00    -0.319 NA
ATOM      3  H   LIG    1       -0.826  -0.376   2.030  0.00  0.00    +0.119 HD
ATOM      4  H   LIG    1       -0.311   1.195   1.794  0.00  0.00    +0.119 HD
ENDBRANCH   1   2
BRANCH   1   5
ATOM      5  C   LIG    1        1.134  -0.656   0.597  0.00  0.00    +0.182 C 
BRANCH   5   6
ATOM      6  O   LIG    1        1.848  -1.065  -0.520  0.00  0.00    -0.393 OA
ATOM      7  H   LIG    1        2.818  -1.206  -0.333  0.00  0.00    +0.209 HD
ENDBRANCH   5   6
ENDBRANCH   1   5
BRANCH   1   8
ATOM      8  C   LIG    1       -0.938  -1.043  -0.600  0.00  0.00    +0.182 C 
BRANCH   8   9
ATOM      9  O   LIG    1       -2.165  -0.461  -0.939  0.00  0.00    -0.393 OA
ATOM     10  H   LIG    1       -2.825  -0.818  -0.290  0.00  0.00    +0.209 HD
ENDBRANCH   8   9
ENDBRANCH   1   8
BRANCH   1  11
ATOM     11  C   LIG    1        0.096   1.188  -0.751  0.00  0.00    +0.182 C 
BRANCH  11  12
ATOM     12  O   LIG    1        0.861   2.168  -0.125  0.00  0.00    -0.393 OA
ATOM     13  H   LIG    1        0.718   3.023  -0.623  0.00  0.00    +0.209 HD
ENDBRANCH  11  12
ENDBRANCH   1  11
TORSDOF 7
