REMARK  Name = molecules/LERNTVKEWCAPOY-VOGVJGKGSA-N.pdb
REMARK                            x       y       z     vdW  Elec       q    Type
REMARK                         _______ _______ _______ _____ _____    ______ ____
ROOT
ATOM      1  C   LIG    1        1.433   0.013   0.251  0.00  0.00    +0.350 C 
ATOM      2  O   LIG    1        1.500  -0.183   1.491  0.00  0.00    -0.247 OA
ENDROOT
BRANCH   1   3
ATOM      3  O   LIG    1        0.192   0.109  -0.300  0.00  0.00    -0.459 OA
BRANCH   3  10
ATOM      4  N   LIG    1       -3.769  -0.083  -0.403  0.00  0.00    +0.384 N 
ATOM      5  C   LIG    1       -3.321   1.021   0.398  0.00  0.00    -0.030 C 
ATOM      6  C   LIG    1       -3.724   0.612   1.806  0.00  0.00    +0.133 C 
ATOM      7  O   LIG    1       -4.763  -0.300   1.962  0.00  0.00    -0.372 OA
ATOM      8  C   LIG    1       -3.504  -0.876   1.765  0.00  0.00    +0.133 C 
ATOM      9  C   LIG    1       -1.848   1.239   0.384  0.00  0.00    +0.032 C 
ATOM     10  C   LIG    1       -1.014   0.003   0.423  0.00  0.00    +0.174 C 
ATOM     11  C   LIG    1       -1.748  -1.255   0.019  0.00  0.00    +0.032 C 
ATOM     12  C   LIG    1       -3.207  -1.215   0.336  0.00  0.00    -0.030 C 
ATOM     13  C   LIG    1       -5.199  -0.106  -0.453  0.00  0.00    -0.091 C 
ATOM     14  C   LIG    1       -3.261  -0.070  -1.745  0.00  0.00    -0.091 C 
ENDBRANCH   3  10
ENDBRANCH   1   3
BRANCH   1  15
ATOM     15  C   LIG    1        2.713   0.119  -0.478  0.00  0.00    +0.226 C 
BRANCH  15  16
ATOM     16  C   LIG    1        3.406   1.350   0.059  0.00  0.00    +0.037 A 
ATOM     17  S   LIG    1        2.990   2.381   1.349  0.00  0.00    -0.098 S 
ATOM     18  C   LIG    1        4.289   3.480   1.254  0.00  0.00    +0.045 A 
ATOM     19  C   LIG    1        5.021   3.001   0.199  0.00  0.00    +0.008 A 
ATOM     20  C   LIG    1        4.564   1.903  -0.416  0.00  0.00    +0.015 A 
ENDBRANCH  15  16
BRANCH  15  21
ATOM     21  C   LIG    1        3.567  -1.085  -0.303  0.00  0.00    +0.037 A 
ATOM     22  C   LIG    1        4.015  -1.711   0.827  0.00  0.00    +0.015 A 
ATOM     23  C   LIG    1        4.782  -2.796   0.672  0.00  0.00    +0.008 A 
ATOM     24  C   LIG    1        5.059  -3.197  -0.610  0.00  0.00    +0.045 A 
ATOM     25  S   LIG    1        4.232  -2.034  -1.551  0.00  0.00    -0.098 S 
ENDBRANCH  15  21
BRANCH  15  26
ATOM     26  O   LIG    1        2.485   0.337  -1.816  0.00  0.00    -0.369 OA
ATOM     27  H   LIG    1        1.909  -0.387  -2.195  0.00  0.00    +0.212 HD
ENDBRANCH  15  26
ENDBRANCH   1  15
TORSDOF 6
