REMARK  Name = molecules/LEROTMJVBFSIMP-SSDOTTSWSA-N.pdb
REMARK                            x       y       z     vdW  Elec       q    Type
REMARK                         _______ _______ _______ _____ _____    ______ ____
ROOT
ATOM      1  C   LIG    1       -0.756  -0.062  -0.162  0.00  0.00    +0.039 C 
ATOM      2  C   LIG    1       -2.024  -0.086  -0.995  0.00  0.00    +0.018 C 
ENDROOT
BRANCH   1   3
ATOM      3  C   LIG    1       -0.607  -1.369   0.520  0.00  0.00    -0.002 C 
ATOM      4  C   LIG    1        0.546  -1.428   1.500  0.00  0.00    +0.008 C 
BRANCH   3   5
ATOM      5  C   LIG    1       -0.389  -2.464  -0.478  0.00  0.00    +0.000 C 
ATOM      6  C   LIG    1       -0.239  -3.821   0.217  0.00  0.00    +0.004 C 
ENDBRANCH   3   5
ENDBRANCH   1   3
BRANCH   1   7
ATOM      7  C   LIG    1       -0.969   1.082   0.843  0.00  0.00    +0.244 C 
BRANCH   7   8
ATOM      8  O   LIG    1       -1.094   2.254   0.021  0.00  0.00    -0.450 OA
BRANCH   8   9
ATOM      9  C   LIG    1       -1.298   3.507   0.554  0.00  0.00    +0.398 C 
ATOM     10  O   LIG    1       -1.377   3.620   1.792  0.00  0.00    -0.227 OA
ATOM     11  N   LIG    1       -1.411   4.612  -0.319  0.00  0.00    -0.295 N 
ATOM     12  H   LIG    1       -0.751   5.417  -0.171  0.00  0.00    +0.148 HD
ATOM     13  H   LIG    1       -2.090   4.690  -1.089  0.00  0.00    +0.148 HD
ENDBRANCH   8   9
ENDBRANCH   7   8
ENDBRANCH   1   7
BRANCH   1  14
ATOM     14  C   LIG    1        0.451   0.293  -0.956  0.00  0.00    +0.244 C 
BRANCH  14  15
ATOM     15  O   LIG    1        1.594   0.369  -0.112  0.00  0.00    -0.450 OA
BRANCH  15  16
ATOM     16  C   LIG    1        2.832   0.689  -0.653  0.00  0.00    +0.398 C 
ATOM     17  N   LIG    1        4.014   0.784   0.122  0.00  0.00    -0.295 N 
ATOM     18  H   LIG    1        4.051   1.169   1.090  0.00  0.00    +0.148 HD
ATOM     19  H   LIG    1        4.895   0.446  -0.310  0.00  0.00    +0.148 HD
ATOM     20  O   LIG    1        2.872   0.900  -1.897  0.00  0.00    -0.227 OA
ENDBRANCH  15  16
ENDBRANCH  14  15
ENDBRANCH   1  14
TORSDOF 8
