REMARK  Name = molecules/LEVWYRKDKASIDU-IMJSIDKUSA-N.pdb
REMARK                            x       y       z     vdW  Elec       q    Type
REMARK                         _______ _______ _______ _____ _____    ______ ____
ROOT
ATOM      1  SG  CYS A  1        0.720  -0.195   1.587  0.00  0.00    -0.091 S 
ENDROOT
BRANCH   1   2
ATOM      2  CB  CYS A  1        2.122   0.745   1.074  0.00  0.00    +0.111 C 
BRANCH   2   3
ATOM      3  CA  CYS A  1        3.303   0.022   0.548  0.00  0.00    +0.171 C 
BRANCH   3   4
ATOM      4  N   CYS A  1        4.253   1.075   0.122  0.00  0.00    -0.318 NA
ATOM      5  H1  CYS A  1        4.504   1.628   0.981  0.00  0.00    +0.119 HD
ATOM      6  H2  CYS A  1        3.710   1.725  -0.521  0.00  0.00    +0.119 HD
ENDBRANCH   3   4
BRANCH   3   7
ATOM      7  C   CYS A  1        3.037  -0.799  -0.652  0.00  0.00    +0.323 C 
ATOM      8  O   CYS A  1        3.504  -0.488  -1.789  0.00  0.00    -0.249 OA
BRANCH   7   9
ATOM      9  OXT CYS A  1        2.271  -1.948  -0.615  0.00  0.00    -0.480 OA
ATOM     10  HXT CYS A  1        2.599  -2.808  -0.218  0.00  0.00    +0.295 HD
ENDBRANCH   7   9
ENDBRANCH   3   7
ENDBRANCH   2   3
ENDBRANCH   1   2
BRANCH   1  11
ATOM     11  SG  CYS A  1       -0.329  -1.175   0.061  0.00  0.00    -0.091 S 
BRANCH  11  12
ATOM     12  CB  CYS A  1       -1.635  -0.212  -0.675  0.00  0.00    +0.111 C 
BRANCH  12  13
ATOM     13  CA  CYS A  1       -2.787   0.093   0.244  0.00  0.00    +0.171 C 
BRANCH  13  14
ATOM     14  N   CYS A  1       -3.391  -1.078   0.801  0.00  0.00    -0.318 NA
ATOM     15  H1  CYS A  1       -4.143  -0.827   1.476  0.00  0.00    +0.119 HD
ATOM     16  H2  CYS A  1       -2.739  -1.807   1.094  0.00  0.00    +0.119 HD
ENDBRANCH  13  14
BRANCH  13  17
ATOM     17  C   CYS A  1       -3.760   0.899  -0.556  0.00  0.00    +0.323 C 
ATOM     18  O   CYS A  1       -3.445   1.969  -1.122  0.00  0.00    -0.249 OA
BRANCH  17  19
ATOM     19  OXT CYS A  1       -5.088   0.448  -0.688  0.00  0.00    -0.480 OA
ATOM     20  HXT CYS A  1       -5.208  -0.334  -1.332  0.00  0.00    +0.295 HD
ENDBRANCH  17  19
ENDBRANCH  13  17
ENDBRANCH  12  13
ENDBRANCH  11  12
ENDBRANCH   1  11
TORSDOF 11
