REMARK  Name = molecules/LEZWWPYKPKIXLL-GOSISDBHSA-N.pdb
REMARK                            x       y       z     vdW  Elec       q    Type
REMARK                         _______ _______ _______ _____ _____    ______ ____
ROOT
ATOM      1  C   LIG    1       -1.188   0.172   0.268  0.00  0.00    +0.170 C 
ENDROOT
BRANCH   1   2
ATOM      2  C   LIG    1       -1.915   1.439   0.113  0.00  0.00    +0.001 A 
ATOM      3  C   LIG    1       -1.228   2.630   0.110  0.00  0.00    +0.048 A 
ATOM      4 CL   LIG    1        0.530   2.745   0.138  0.00  0.00    -0.083 Cl
ATOM      5  C   LIG    1       -1.916   3.830   0.038  0.00  0.00    +0.040 A 
ATOM      6  C   LIG    1       -3.283   3.855  -0.034  0.00  0.00    +0.042 A 
ATOM      7  C   LIG    1       -4.009   2.694  -0.037  0.00  0.00    +0.020 A 
ATOM      8 CL   LIG    1       -4.123   5.391  -0.118  0.00  0.00    -0.083 Cl
ATOM      9  C   LIG    1       -3.285   1.508   0.038  0.00  0.00    +0.009 A 
ENDBRANCH   1   2
BRANCH   1  10
ATOM     10  C   LIG    1       -2.051  -0.964  -0.267  0.00  0.00    +0.159 C 
BRANCH  10  11
ATOM     11  N   LIG    1       -1.412  -2.245  -0.066  0.00  0.00    -0.334 N 
ATOM     12  C   LIG    1       -1.499  -3.033   0.995  0.00  0.00    +0.107 A 
ATOM     13  C   LIG    1       -0.743  -4.163   0.750  0.00  0.00    +0.130 A 
ATOM     14  N   LIG    1       -0.222  -4.012  -0.467  0.00  0.00    -0.244 NA
ATOM     15  C   LIG    1       -0.627  -2.845  -0.965  0.00  0.00    +0.199 A 
ENDBRANCH  10  11
ENDBRANCH   1  10
BRANCH   1  16
ATOM     16  O   LIG    1        0.063   0.179  -0.311  0.00  0.00    -0.366 OA
BRANCH  16  17
ATOM     17  C   LIG    1        1.044  -0.169   0.631  0.00  0.00    +0.196 C 
BRANCH  17  18
ATOM     18  C   LIG    1        2.412  -0.174   0.068  0.00  0.00    -0.022 A 
ATOM     19  C   LIG    1        3.485   0.352   0.774  0.00  0.00    +0.007 A 
ATOM     20  C   LIG    1        4.759   0.327   0.235  0.00  0.00    +0.020 A 
ATOM     21  C   LIG    1        5.014  -0.214  -1.008  0.00  0.00    +0.041 A 
ATOM     22 CL   LIG    1        6.657  -0.230  -1.667  0.00  0.00    -0.084 Cl
ATOM     23  C   LIG    1        3.947  -0.735  -1.708  0.00  0.00    +0.020 A 
ATOM     24  C   LIG    1        2.673  -0.712  -1.173  0.00  0.00    +0.007 A 
ENDBRANCH  17  18
ENDBRANCH  16  17
ENDBRANCH   1  16
TORSDOF 6
