REMARK  Name = molecules/LFQDNHWZDQTITF-UHFFFAOYSA-N.pdb
REMARK                            x       y       z     vdW  Elec       q    Type
REMARK                         _______ _______ _______ _____ _____    ______ ____
ROOT
ATOM      1  C   LIG    1        0.842   1.302  -0.477  0.00  0.00    +0.000 A 
ATOM      2  C   LIG    1        2.102   0.759  -0.194  0.00  0.00    +0.000 A 
ATOM      3  C   LIG    1        2.200  -0.541   0.258  0.00  0.00    +0.000 A 
ATOM      4  F   LIG    1        3.425  -1.059   0.530  0.00  0.00    +0.000 F 
ATOM      5  C   LIG    1        1.046  -1.314   0.433  0.00  0.00    +0.000 A 
ATOM      6  C   LIG    1       -0.180  -0.756   0.147  0.00  0.00    +0.000 A 
ATOM      7  C   LIG    1       -1.526  -1.359   0.249  0.00  0.00    +0.000 C 
ATOM      8  O   LIG    1       -2.408  -0.543  -0.403  0.00  0.00    +0.000 OA
ATOM      9  B   LIG    1       -1.825   0.774  -0.503  0.00  0.00    +0.000 B 
ATOM     10  C   LIG    1       -0.279   0.542  -0.304  0.00  0.00    +0.000 A 
ENDROOT
BRANCH   9  11
ATOM     11  O   LIG    1       -2.466   2.081  -0.618  0.00  0.00    +0.000 OA
ATOM     12  H   LIG    1       -2.376   2.598   0.245  0.00  0.00    +0.000 HD
ENDBRANCH   9  11
TORSDOF 1
