REMARK  Name = molecules/LFQSCWFLJHTTHZ-UHFFFAOYSA-N.pdb
REMARK                            x       y       z     vdW  Elec       q    Type
REMARK                         _______ _______ _______ _____ _____    ______ ____
ROOT
ATOM      1  C   LIG    1       -0.940  -0.187  -0.052  0.00  0.00    +0.034 C 
ATOM      2  C   LIG    1        0.418   0.492  -0.004  0.00  0.00    +0.152 C 
ENDROOT
BRANCH   2   3
ATOM      3  O   LIG    1        1.281  -0.453   0.591  0.00  0.00    -0.395 OA
ATOM      4  H   LIG    1        1.799  -0.935  -0.085  0.00  0.00    +0.209 HD
ENDBRANCH   2   3
TORSDOF 1
