REMARK  Name = molecules/LFTFGCDECFPSQD-NSHDSACASA-N.pdb
REMARK                            x       y       z     vdW  Elec       q    Type
REMARK                         _______ _______ _______ _____ _____    ______ ____
ROOT
ATOM      1  C   LIG    1       -0.253   0.233  -1.329  0.00  0.00    +0.261 C 
ENDROOT
BRANCH   1   2
ATOM      2  O   LIG    1       -1.400  -0.370  -0.965  0.00  0.00    -0.486 OA
BRANCH   2   3
ATOM      3  C   LIG    1       -2.449  -0.929  -0.633  0.00  0.00    +0.162 A 
ATOM      4  C   LIG    1       -3.243   0.212  -0.013  0.00  0.00    +0.161 A 
ATOM      5  C   LIG    1       -4.450  -0.009   0.450  0.00  0.00    +0.049 A 
ATOM      6  C   LIG    1       -5.092  -1.264   0.393  0.00  0.00    +0.004 A 
ATOM      7  C   LIG    1       -4.412  -2.306  -0.170  0.00  0.00    +0.004 A 
ATOM      8  C   LIG    1       -3.107  -2.079  -0.641  0.00  0.00    +0.049 A 
BRANCH   4   9
ATOM      9  O   LIG    1       -2.608   1.369  -0.018  0.00  0.00    -0.491 OA
ATOM     10  C   LIG    1       -2.826   2.680   0.297  0.00  0.00    +0.277 C 
ENDBRANCH   4   9
ENDBRANCH   2   3
ENDBRANCH   1   2
BRANCH   1  11
ATOM     11  C   LIG    1        0.857  -0.166  -0.402  0.00  0.00    +0.166 C 
BRANCH  11  12
ATOM     12  O   LIG    1        0.286  -0.343   0.911  0.00  0.00    -0.387 OA
ATOM     13  H   LIG    1       -0.036  -1.299   0.878  0.00  0.00    +0.210 HD
ENDBRANCH  11  12
BRANCH  11  14
ATOM     14  C   LIG    1        1.844  -1.140  -0.826  0.00  0.00    +0.115 C 
BRANCH  14  15
ATOM     15  N   LIG    1        2.969  -0.969   0.171  0.00  0.00    -0.311 NA
ATOM     16  H   LIG    1        3.602  -1.786  -0.067  0.00  0.00    +0.122 HD
BRANCH  15  17
ATOM     17  C   LIG    1        3.664   0.256  -0.146  0.00  0.00    +0.048 C 
ATOM     18  C   LIG    1        3.770   1.240   0.924  0.00  0.00    +0.023 C 
ATOM     19  C   LIG    1        5.012  -0.063  -0.847  0.00  0.00    +0.023 C 
ENDBRANCH  15  17
ENDBRANCH  14  15
ENDBRANCH  11  14
ENDBRANCH   1  11
TORSDOF 8
