REMARK  Name = molecules/LFVVNPBBFUSSHL-SZPZYZBQSA-N.pdb
REMARK                            x       y       z     vdW  Elec       q    Type
REMARK                         _______ _______ _______ _____ _____    ______ ____
ROOT
ATOM      1  C   LIG    1        0.095  -0.297   1.823  0.00  0.00    +0.003 C 
ENDROOT
BRANCH   1   2
ATOM      2  C   LIG    1       -0.374   0.881   1.019  0.00  0.00    +0.037 C 
BRANCH   2   3
ATOM      3  C   LIG    1       -1.719   1.386   1.490  0.00  0.00    +0.196 C 
BRANCH   3   4
ATOM      4  N   LIG    1       -2.764   0.414   1.409  0.00  0.00    -0.276 N 
ATOM      5  H   LIG    1       -2.584  -0.535   1.047  0.00  0.00    +0.258 HD
BRANCH   4   6
ATOM      6  C   LIG    1       -4.068   0.757   1.830  0.00  0.00    +0.388 C 
ATOM      7  N   LIG    1       -4.276   1.202   3.019  0.00  0.00    -0.129 NA
ATOM      8  H   LIG    1       -3.464   1.304   3.659  0.00  0.00    +0.306 HD
BRANCH   6   9
ATOM      9  N   LIG    1       -5.140   0.588   0.890  0.00  0.00    -0.186 N 
ATOM     10  H   LIG    1       -5.702   1.438   0.674  0.00  0.00    +0.271 HD
BRANCH   9  11
ATOM     11  C   LIG    1       -5.386  -0.672   0.311  0.00  0.00    +0.388 C 
ATOM     12  N   LIG    1       -4.425  -1.303  -0.248  0.00  0.00    -0.129 NA
ATOM     13  H   LIG    1       -4.538  -2.246  -0.701  0.00  0.00    +0.306 HD
BRANCH  11  14
ATOM     14  N   LIG    1       -6.726  -1.194   0.378  0.00  0.00    -0.275 N 
ATOM     15  H   LIG    1       -6.898  -1.980   0.996  0.00  0.00    +0.258 HD
BRANCH  14  16
ATOM     16  C   LIG    1       -7.742  -0.601  -0.419  0.00  0.00    +0.199 C 
BRANCH  16  17
ATOM     17  C   LIG    1       -9.064  -1.283  -0.200  0.00  0.00    +0.022 C 
BRANCH  17  18
ATOM     18  C   LIG    1       -9.428  -1.523   1.221  0.00  0.00    +0.003 C 
ATOM     19  C   LIG    1       -9.532  -0.346   2.112  0.00  0.00    +0.004 C 
ENDBRANCH  17  18
BRANCH  17  20
ATOM     20  C   LIG    1      -10.098  -0.648  -1.059  0.00  0.00    +0.006 C 
BRANCH  20  21
ATOM     21  C   LIG    1      -10.303   0.818  -0.801  0.00  0.00    +0.000 C 
BRANCH  21  22
ATOM     22  C   LIG    1      -11.369   1.388  -1.720  0.00  0.00    -0.003 C 
ATOM     23  C   LIG    1      -12.702   0.713  -1.536  0.00  0.00    +0.004 C 
ENDBRANCH  21  22
ENDBRANCH  20  21
ENDBRANCH  17  20
ENDBRANCH  16  17
ENDBRANCH  14  16
ENDBRANCH  11  14
ENDBRANCH   9  11
ENDBRANCH   6   9
ENDBRANCH   4   6
ENDBRANCH   3   4
ENDBRANCH   2   3
ENDBRANCH   1   2
BRANCH   1  24
ATOM     24  C   LIG    1        1.427  -0.822   1.397  0.00  0.00    +0.003 C 
BRANCH  24  25
ATOM     25  C   LIG    1        1.496  -1.293  -0.024  0.00  0.00    +0.037 C 
BRANCH  25  26
ATOM     26  C   LIG    1        2.920  -1.788  -0.247  0.00  0.00    +0.196 C 
BRANCH  26  27
ATOM     27  N   LIG    1        3.892  -0.734  -0.027  0.00  0.00    -0.276 N 
ATOM     28  H   LIG    1        4.531  -0.783   0.798  0.00  0.00    +0.258 HD
BRANCH  27  29
ATOM     29  C   LIG    1        4.024   0.376  -0.874  0.00  0.00    +0.388 C 
ATOM     30  N   LIG    1        3.094   0.525  -1.788  0.00  0.00    -0.129 NA
ATOM     31  H   LIG    1        3.130   1.319  -2.446  0.00  0.00    +0.306 HD
BRANCH  29  32
ATOM     32  N   LIG    1        5.075   1.315  -0.806  0.00  0.00    -0.186 N 
ATOM     33  H   LIG    1        5.330   1.888  -1.635  0.00  0.00    +0.271 HD
BRANCH  32  34
ATOM     34  C   LIG    1        5.793   1.492   0.391  0.00  0.00    +0.388 C 
ATOM     35  N   LIG    1        5.197   1.474   1.515  0.00  0.00    -0.129 NA
ATOM     36  H   LIG    1        5.617   1.591   2.448  0.00  0.00    +0.306 HD
BRANCH  34  37
ATOM     37  N   LIG    1        7.193   1.704   0.332  0.00  0.00    -0.275 N 
ATOM     38  H   LIG    1        7.640   2.332   1.003  0.00  0.00    +0.258 HD
BRANCH  37  39
ATOM     39  C   LIG    1        8.025   1.058  -0.680  0.00  0.00    +0.199 C 
BRANCH  39  40
ATOM     40  C   LIG    1        8.204  -0.405  -0.527  0.00  0.00    +0.022 C 
BRANCH  40  41
ATOM     41  C   LIG    1        8.665  -0.850   0.856  0.00  0.00    +0.003 C 
ATOM     42  C   LIG    1        7.742  -0.523   1.951  0.00  0.00    +0.004 C 
ENDBRANCH  40  41
BRANCH  40  43
ATOM     43  C   LIG    1        8.988  -1.091  -1.573  0.00  0.00    +0.006 C 
BRANCH  43  44
ATOM     44  C   LIG    1       10.382  -0.819  -1.865  0.00  0.00    +0.000 C 
BRANCH  44  45
ATOM     45  C   LIG    1       10.855   0.509  -2.309  0.00  0.00    -0.003 C 
ATOM     46  C   LIG    1       12.386   0.310  -2.587  0.00  0.00    +0.004 C 
ENDBRANCH  44  45
ENDBRANCH  43  44
ENDBRANCH  40  43
ENDBRANCH  39  40
ENDBRANCH  37  39
ENDBRANCH  34  37
ENDBRANCH  32  34
ENDBRANCH  29  32
ENDBRANCH  27  29
ENDBRANCH  26  27
ENDBRANCH  25  26
ENDBRANCH  24  25
ENDBRANCH   1  24
TORSDOF 27
