REMARK  Name = molecules/LGCMKPRGGJRYGM-UHFFFAOYSA-N.pdb
REMARK                            x       y       z     vdW  Elec       q    Type
REMARK                         _______ _______ _______ _____ _____    ______ ____
ROOT
ATOM      1  C   LIG    1       -0.614   0.450  -0.143  0.00  0.00    +0.252 C 
ATOM      2  N   LIG    1        0.300  -0.576   0.154  0.00  0.00    -0.281 N 
ATOM      3  H   LIG    1       -0.008  -1.562   0.441  0.00  0.00    +0.155 HD
ATOM      4  O   LIG    1       -0.098   1.576  -0.486  0.00  0.00    -0.270 OA
ENDROOT
BRANCH   2   5
ATOM      5  C   LIG    1        1.710  -0.340   0.085  0.00  0.00    +0.034 A 
ATOM      6  C   LIG    1        2.275   0.841   0.389  0.00  0.00    +0.027 A 
ATOM      7  C   LIG    1        3.658   1.047   0.351  0.00  0.00    +0.047 A 
ATOM      8  C   LIG    1        4.494   0.030  -0.004  0.00  0.00    +0.117 A 
ATOM      9  C   LIG    1        3.911  -1.185  -0.316  0.00  0.00    +0.047 A 
ATOM     10  C   LIG    1        2.557  -1.387  -0.279  0.00  0.00    +0.027 A 
BRANCH   8  11
ATOM     11  O   LIG    1        5.879   0.156  -0.066  0.00  0.00    -0.507 OA
ATOM     12  H   LIG    1        6.364   1.010   0.148  0.00  0.00    +0.292 HD
ENDBRANCH   8  11
ENDBRANCH   2   5
BRANCH   1  13
ATOM     13  C   LIG    1       -2.062   0.356  -0.098  0.00  0.00    +0.078 A 
ATOM     14  C   LIG    1       -2.710  -0.802   0.258  0.00  0.00    +0.129 A 
ATOM     15  C   LIG    1       -4.111  -0.821   0.279  0.00  0.00    +0.046 A 
ATOM     16  C   LIG    1       -4.835   0.303  -0.050  0.00  0.00    +0.004 A 
ATOM     17  C   LIG    1       -4.175   1.473  -0.409  0.00  0.00    +0.001 A 
ATOM     18  C   LIG    1       -2.797   1.493  -0.431  0.00  0.00    +0.017 A 
BRANCH  14  19
ATOM     19  O   LIG    1       -2.100  -1.965   0.600  0.00  0.00    -0.506 OA
ATOM     20  H   LIG    1       -2.511  -2.817   0.861  0.00  0.00    +0.292 HD
ENDBRANCH  14  19
ENDBRANCH   1  13
TORSDOF 4
