REMARK  Name = molecules/LGGDXXJAGWBUSL-BKRJIHRRSA-N.pdb
REMARK                            x       y       z     vdW  Elec       q    Type
REMARK                         _______ _______ _______ _____ _____    ______ ____
ROOT
ATOM      1  C   LIG    1        1.220  -1.923  -0.192  0.00  0.00    +0.218 C 
ATOM      2  C   LIG    1        0.373  -2.409   0.920  0.00  0.00    +0.049 C 
ATOM      3  C   LIG    1       -0.639  -1.382   1.434  0.00  0.00    +0.010 C 
ATOM      4  C   LIG    1       -1.500  -1.068   0.232  0.00  0.00    +0.021 C 
ATOM      5  C   LIG    1       -2.705  -0.255   0.561  0.00  0.00    +0.065 C 
ATOM      6  C   LIG    1       -2.461   1.126   1.056  0.00  0.00    +0.054 C 
ATOM      7  C   LIG    1       -1.082   1.596   0.860  0.00  0.00    -0.038 A 
ATOM      8  C   LIG    1       -0.557   2.714   1.484  0.00  0.00    +0.008 A 
ATOM      9  C   LIG    1        0.753   3.100   1.259  0.00  0.00    +0.050 A 
ATOM     10  C   LIG    1        1.561   2.362   0.397  0.00  0.00    +0.162 A 
ATOM     11  C   LIG    1        1.044   1.232  -0.239  0.00  0.00    +0.167 A 
ATOM     12  O   LIG    1        1.531   0.291  -1.125  0.00  0.00    -0.480 OA
ATOM     13  C   LIG    1       -0.244   0.921   0.032  0.00  0.00    +0.011 A 
ATOM     14  N   LIG    1       -3.556  -0.183  -0.610  0.00  0.00    -0.302 NA
ATOM     15  C   LIG    1       -4.590  -1.193  -0.483  0.00  0.00    +0.105 C 
ATOM     16  C   LIG    1       -2.850  -0.433  -1.833  0.00  0.00    +0.085 C 
ATOM     17  C   LIG    1       -1.472   0.145  -1.895  0.00  0.00    +0.031 C 
ATOM     18  C   LIG    1       -0.641  -0.302  -0.723  0.00  0.00    +0.045 C 
ATOM     19  C   LIG    1        0.678  -0.878  -1.065  0.00  0.00    +0.225 C 
ENDROOT
BRANCH  10  20
ATOM     20  O   LIG    1        2.880   2.697   0.130  0.00  0.00    -0.491 OA
ATOM     21  C   LIG    1        3.519   3.814   0.709  0.00  0.00    +0.277 C 
ENDBRANCH  10  20
BRANCH   1  22
ATOM     22  O   LIG    1        2.441  -1.434   0.383  0.00  0.00    -0.458 OA
BRANCH  22  23
ATOM     23  C   LIG    1        3.668  -2.043   0.161  0.00  0.00    +0.304 C 
ATOM     24  C   LIG    1        4.932  -1.535   0.756  0.00  0.00    +0.136 C 
ATOM     25  O   LIG    1        3.650  -3.069  -0.589  0.00  0.00    -0.251 OA
ENDBRANCH  22  23
ENDBRANCH   1  22
TORSDOF 3
