REMARK  Name = molecules/LGYTZKPVOAIUKX-UHFFFAOYSA-N.pdb
REMARK                            x       y       z     vdW  Elec       q    Type
REMARK                         _______ _______ _______ _____ _____    ______ ____
ROOT
ATOM      1  O   LIG    1        0.758  -2.530  -2.253  0.00  0.00    -0.273 OA
ATOM      2  C   LIG    1        0.640  -1.381  -1.756  0.00  0.00    +0.249 C 
ATOM      3  N   LIG    1       -0.458  -0.906  -0.946  0.00  0.00    -0.180 N 
ATOM      4  N   LIG    1       -0.391   0.487  -0.933  0.00  0.00    -0.180 N 
ATOM      5  C   LIG    1        0.735   0.903  -1.723  0.00  0.00    +0.249 C 
ATOM      6  O   LIG    1        0.909   2.047  -2.169  0.00  0.00    -0.273 OA
ATOM      7  C   LIG    1        1.634  -0.253  -1.909  0.00  0.00    +0.165 C 
ENDROOT
BRANCH   3   8
ATOM      8  C   LIG    1       -1.394  -1.763  -0.311  0.00  0.00    +0.057 A 
ATOM      9  C   LIG    1       -0.996  -2.998   0.203  0.00  0.00    +0.025 A 
ATOM     10  C   LIG    1       -1.844  -3.866   0.822  0.00  0.00    +0.002 A 
ATOM     11  C   LIG    1       -3.170  -3.544   0.969  0.00  0.00    +0.000 A 
ATOM     12  C   LIG    1       -3.604  -2.324   0.471  0.00  0.00    +0.002 A 
ATOM     13  C   LIG    1       -2.728  -1.459  -0.154  0.00  0.00    +0.025 A 
ENDBRANCH   3   8
BRANCH   4  14
ATOM     14  C   LIG    1       -1.300   1.330  -0.242  0.00  0.00    +0.057 A 
ATOM     15  C   LIG    1       -1.339   1.332   1.137  0.00  0.00    +0.025 A 
ATOM     16  C   LIG    1       -2.199   2.133   1.860  0.00  0.00    +0.002 A 
ATOM     17  C   LIG    1       -3.055   2.964   1.158  0.00  0.00    +0.000 A 
ATOM     18  C   LIG    1       -3.045   2.990  -0.213  0.00  0.00    +0.002 A 
ATOM     19  C   LIG    1       -2.170   2.174  -0.892  0.00  0.00    +0.025 A 
ENDBRANCH   4  14
BRANCH   7  20
ATOM     20  C   LIG    1        2.571  -0.411  -0.706  0.00  0.00    +0.030 C 
BRANCH  20  21
ATOM     21  C   LIG    1        3.612   0.684  -0.767  0.00  0.00    +0.075 C 
BRANCH  21  22
ATOM     22  C   LIG    1        4.561   0.612   0.358  0.00  0.00    +0.130 C 
ATOM     23  C   LIG    1        4.473   1.450   1.578  0.00  0.00    +0.086 C 
ATOM     24  O   LIG    1        5.484  -0.183   0.289  0.00  0.00    -0.298 OA
ENDBRANCH  21  22
ENDBRANCH  20  21
ENDBRANCH   7  20
TORSDOF 5
