REMARK  Name = molecules/LHGVFZTZFXWLCP-UHFFFAOYSA-N.pdb
REMARK                            x       y       z     vdW  Elec       q    Type
REMARK                         _______ _______ _______ _____ _____    ______ ____
ROOT
ATOM      1  C   LIG    1       -0.303  -0.280   0.152  0.00  0.00    +0.161 A 
ATOM      2  C   LIG    1        0.733  -1.200   0.340  0.00  0.00    +0.158 A 
ATOM      3  C   LIG    1        2.026  -0.727   0.339  0.00  0.00    +0.049 A 
ATOM      4  C   LIG    1        2.330   0.607   0.161  0.00  0.00    +0.004 A 
ATOM      5  C   LIG    1        1.272   1.484  -0.022  0.00  0.00    +0.004 A 
ATOM      6  C   LIG    1       -0.023   1.057  -0.028  0.00  0.00    +0.049 A 
ENDROOT
BRANCH   1   8
ATOM      7  C   LIG    1       -2.647   0.182  -0.038  0.00  0.00    +0.277 C 
ATOM      8  O   LIG    1       -1.609  -0.758   0.153  0.00  0.00    -0.491 OA
ENDBRANCH   1   8
BRANCH   2   9
ATOM      9  O   LIG    1        0.502  -2.548   0.524  0.00  0.00    -0.503 OA
ATOM     10  H   LIG    1       -0.390  -2.983   0.541  0.00  0.00    +0.292 HD
ENDBRANCH   2   9
TORSDOF 2
