REMARK  Name = molecules/LIRYPHYGHXZJBZ-UHFFFAOYSA-N.pdb
REMARK                            x       y       z     vdW  Elec       q    Type
REMARK                         _______ _______ _______ _____ _____    ______ ____
ROOT
ATOM      1  C   LIG    1       -2.201   0.736  -0.453  0.00  0.00    +0.120 A 
ATOM      2  C   LIG    1       -1.179  -0.093   0.030  0.00  0.00    +0.102 A 
ATOM      3  C   LIG    1        0.096   0.413   0.349  0.00  0.00    +0.075 A 
ATOM      4  N   LIG    1        1.014  -0.400   0.820  0.00  0.00    -0.261 N 
ATOM      5  C   LIG    1        0.695  -1.735   0.990  0.00  0.00    +0.337 A 
ATOM      6  O   LIG    1        1.596  -2.483   1.441  0.00  0.00    -0.246 OA
ATOM      7  N   LIG    1       -0.489  -2.237   0.703  0.00  0.00    -0.257 N 
ATOM      8  C   LIG    1        0.375   1.762   0.193  0.00  0.00    +0.039 A 
ATOM      9  C   LIG    1        1.669   2.402   0.493  0.00  0.00    +0.051 C 
ATOM     10  C   LIG    1       -0.690   2.502  -0.286  0.00  0.00    +0.257 A 
ATOM     11  O   LIG    1       -0.473   3.755  -0.442  0.00  0.00    -0.267 OA
ATOM     12  C   LIG    1       -1.449  -1.409   0.215  0.00  0.00    +0.268 A 
ATOM     13  O   LIG    1       -2.582  -1.926  -0.046  0.00  0.00    -0.267 OA
ATOM     14  N   LIG    1       -1.900   2.030  -0.594  0.00  0.00    -0.299 N 
ATOM     15  C   LIG    1       -2.799   3.023  -1.190  0.00  0.00    +0.154 C 
ENDROOT
BRANCH   4  16
ATOM     16  C   LIG    1        2.320  -0.061   1.187  0.00  0.00    +0.053 A 
ATOM     17  C   LIG    1        2.569   0.491   2.388  0.00  0.00    +0.026 A 
ATOM     18  C   LIG    1        3.851   0.748   2.815  0.00  0.00    +0.004 A 
ATOM     19  C   LIG    1        4.898   0.411   1.948  0.00  0.00    +0.023 A 
ATOM     20  C   LIG    1        4.674  -0.154   0.718  0.00  0.00    +0.035 A 
ATOM     21  C   LIG    1        3.337  -0.379   0.366  0.00  0.00    +0.049 A 
BRANCH  20  22
ATOM     22  N   LIG    1        5.704  -0.504  -0.201  0.00  0.00    -0.286 N 
ATOM     23  C   LIG    1        7.065  -0.489   0.049  0.00  0.00    +0.214 C 
ATOM     24  O   LIG    1        7.552  -0.159   1.144  0.00  0.00    -0.276 OA
ATOM     25  C   LIG    1        8.029  -0.883  -1.028  0.00  0.00    +0.109 C 
ATOM     26  H   LIG    1        5.409  -0.806  -1.183  0.00  0.00    +0.155 HD
ENDBRANCH  20  22
ENDBRANCH   4  16
BRANCH   7  27
ATOM     27  C   LIG    1       -0.820  -3.626   0.881  0.00  0.00    +0.095 C 
ATOM     28  C   LIG    1       -0.158  -4.697   0.101  0.00  0.00    +0.027 C 
ATOM     29  C   LIG    1       -1.564  -4.255  -0.284  0.00  0.00    +0.027 C 
ENDBRANCH   7  27
BRANCH   1  30
ATOM     30  N   LIG    1       -3.413   0.231  -0.936  0.00  0.00    -0.298 N 
ATOM     31  H   LIG    1       -3.317  -0.714  -1.470  0.00  0.00    +0.154 HD
BRANCH  30  32
ATOM     32  C   LIG    1       -4.706   0.772  -0.902  0.00  0.00    +0.068 A 
ATOM     33  C   LIG    1       -5.142   1.640   0.050  0.00  0.00    +0.027 A 
ATOM     34  C   LIG    1       -6.463   2.073   0.114  0.00  0.00    +0.016 A 
ATOM     35  C   LIG    1       -7.392   1.635  -0.793  0.00  0.00    +0.016 A 
ATOM     36  I   LIG    1       -9.367   2.299  -0.678  0.00  0.00    -0.044 I 
ATOM     37  C   LIG    1       -6.971   0.759  -1.761  0.00  0.00    +0.054 A 
ATOM     38  C   LIG    1       -5.668   0.337  -1.817  0.00  0.00    +0.145 A 
ATOM     39  F   LIG    1       -5.234  -0.536  -2.780  0.00  0.00    -0.204 F 
ENDBRANCH  30  32
ENDBRANCH   1  30
TORSDOF 5
