REMARK  Name = molecules/LJOQGZACKSYWCH-LHHVKLHASA-N.pdb
REMARK                            x       y       z     vdW  Elec       q    Type
REMARK                         _______ _______ _______ _____ _____    ______ ____
ROOT
ATOM      1  C   LIG    1        0.386  -0.422  -0.257  0.00  0.00    +0.162 C 
ENDROOT
BRANCH   1   2
ATOM      2  C   LIG    1        1.398  -1.028   0.618  0.00  0.00    -0.007 A 
ATOM      3  C   LIG    1        1.198  -2.144   1.399  0.00  0.00    +0.026 A 
ATOM      4  C   LIG    1        2.171  -2.692   2.228  0.00  0.00    +0.112 A 
ATOM      5  N   LIG    1        3.367  -2.130   2.289  0.00  0.00    -0.255 NA
ATOM      6  C   LIG    1        3.612  -1.039   1.544  0.00  0.00    +0.072 A 
ATOM      7  C   LIG    1        4.886  -0.505   1.648  0.00  0.00    +0.032 A 
ATOM      8  C   LIG    1        5.266   0.608   0.929  0.00  0.00    +0.048 A 
ATOM      9  C   LIG    1        4.322   1.182   0.090  0.00  0.00    +0.121 A 
ATOM     10  C   LIG    1        3.051   0.640  -0.005  0.00  0.00    +0.056 A 
ATOM     11  C   LIG    1        2.655  -0.463   0.700  0.00  0.00    +0.010 A 
BRANCH   9  12
ATOM     12  O   LIG    1        4.664   2.300  -0.648  0.00  0.00    -0.495 OA
ATOM     13  C   LIG    1        5.948   2.860  -0.561  0.00  0.00    +0.277 C 
ENDBRANCH   9  12
ENDBRANCH   1   2
BRANCH   1  14
ATOM     14  C   LIG    1       -0.925  -1.111  -0.362  0.00  0.00    +0.090 C 
ATOM     15  C   LIG    1       -1.871  -0.885   0.809  0.00  0.00    +0.025 C 
ATOM     16  C   LIG    1       -3.317  -1.075   0.298  0.00  0.00    -0.004 C 
ATOM     17  C   LIG    1       -3.694   0.223  -0.369  0.00  0.00    +0.006 C 
ATOM     18  C   LIG    1       -2.412   0.670  -1.091  0.00  0.00    +0.088 C 
ATOM     19  C   LIG    1       -3.298  -2.130  -0.817  0.00  0.00    +0.019 C 
ATOM     20  C   LIG    1       -2.543  -1.529  -1.991  0.00  0.00    +0.085 C 
ATOM     21  N   LIG    1       -1.649  -0.490  -1.491  0.00  0.00    -0.296 NA
BRANCH  17  22
ATOM     22  C   LIG    1       -4.146   1.267   0.624  0.00  0.00    +0.002 C 
ATOM     23  C   LIG    1       -4.426   2.575  -0.107  0.00  0.00    +0.004 C 
ENDBRANCH  17  22
ENDBRANCH   1  14
BRANCH   1  24
ATOM     24  O   LIG    1        0.280   0.927   0.037  0.00  0.00    -0.386 OA
ATOM     25  H   LIG    1        0.355   1.121   0.996  0.00  0.00    +0.210 HD
ENDBRANCH   1  24
TORSDOF 5
