REMARK  Name = molecules/LJOQGZACKSYWCH-WZBLMQSHSA-N.pdb
REMARK                            x       y       z     vdW  Elec       q    Type
REMARK                         _______ _______ _______ _____ _____    ______ ____
ROOT
ATOM      1  C   LIG    1       -0.659   0.325   0.476  0.00  0.00    +0.162 C 
ENDROOT
BRANCH   1   2
ATOM      2  C   LIG    1       -1.551  -0.817   0.304  0.00  0.00    -0.007 A 
ATOM      3  C   LIG    1       -1.120  -2.110   0.517  0.00  0.00    +0.026 A 
ATOM      4  C   LIG    1       -2.016  -3.140   0.333  0.00  0.00    +0.112 A 
ATOM      5  N   LIG    1       -3.278  -2.879  -0.044  0.00  0.00    -0.255 NA
ATOM      6  C   LIG    1       -3.730  -1.630  -0.259  0.00  0.00    +0.072 A 
ATOM      7  C   LIG    1       -5.048  -1.393  -0.650  0.00  0.00    +0.032 A 
ATOM      8  C   LIG    1       -5.502  -0.112  -0.868  0.00  0.00    +0.048 A 
ATOM      9  C   LIG    1       -4.642   0.976  -0.699  0.00  0.00    +0.121 A 
ATOM     10  C   LIG    1       -3.349   0.701  -0.312  0.00  0.00    +0.056 A 
ATOM     11  C   LIG    1       -2.867  -0.570  -0.087  0.00  0.00    +0.010 A 
BRANCH   9  12
ATOM     12  O   LIG    1       -5.123   2.256  -0.923  0.00  0.00    -0.495 OA
ATOM     13  C   LIG    1       -4.252   3.358  -0.750  0.00  0.00    +0.277 C 
ENDBRANCH   9  12
ENDBRANCH   1   2
BRANCH   1  14
ATOM     14  C   LIG    1        0.773  -0.035   0.739  0.00  0.00    +0.090 C 
ATOM     15  C   LIG    1        1.666   1.168   0.795  0.00  0.00    +0.025 C 
ATOM     16  C   LIG    1        2.783   1.130  -0.246  0.00  0.00    -0.004 C 
ATOM     17  C   LIG    1        3.563  -0.129  -0.269  0.00  0.00    +0.006 C 
ATOM     18  C   LIG    1        2.651  -1.251   0.183  0.00  0.00    +0.088 C 
ATOM     19  C   LIG    1        1.963   1.139  -1.557  0.00  0.00    +0.019 C 
ATOM     20  C   LIG    1        1.339  -0.263  -1.588  0.00  0.00    +0.085 C 
ATOM     21  N   LIG    1        1.320  -0.896  -0.309  0.00  0.00    -0.296 NA
BRANCH  17  22
ATOM     22  C   LIG    1        4.872  -0.125   0.449  0.00  0.00    +0.002 C 
ATOM     23  C   LIG    1        4.835   0.032   1.909  0.00  0.00    +0.004 C 
ENDBRANCH  17  22
ENDBRANCH   1  14
BRANCH   1  24
ATOM     24  O   LIG    1       -1.118   1.141   1.504  0.00  0.00    -0.386 OA
ATOM     25  H   LIG    1       -0.404   1.522   2.058  0.00  0.00    +0.210 HD
ENDBRANCH   1  24
TORSDOF 5
