REMARK  Name = molecules/LJQWYEFHNLTPBZ-UHFFFAOYSA-N.pdb
REMARK                            x       y       z     vdW  Elec       q    Type
REMARK                         _______ _______ _______ _____ _____    ______ ____
ROOT
ATOM      1  C   LIG    1       -1.321   1.005   1.460  0.00  0.00    +0.102 A 
ATOM      2  C   LIG    1       -1.224   0.929   2.856  0.00  0.00    +0.019 A 
ATOM      3  C   LIG    1       -2.100   1.557   3.689  0.00  0.00    +0.003 A 
ATOM      4  C   LIG    1       -3.127   2.301   3.144  0.00  0.00    +0.026 A 
ATOM      5  C   LIG    1       -3.260   2.401   1.779  0.00  0.00    +0.068 A 
ATOM      6  C   LIG    1       -2.345   1.742   0.952  0.00  0.00    +0.155 A 
ENDROOT
BRANCH   5   7
ATOM      7  N   LIG    1       -4.311   3.163   1.222  0.00  0.00    -0.355 N 
ATOM      8  H   LIG    1       -5.262   2.776   1.101  0.00  0.00    +0.142 HD
ATOM      9  H   LIG    1       -4.119   4.135   0.929  0.00  0.00    +0.142 HD
ENDBRANCH   5   7
BRANCH   1  10
ATOM     10  C   LIG    1       -0.287   0.385   0.644  0.00  0.00    +0.343 C 
ATOM     11  O   LIG    1       -0.252   0.549  -0.586  0.00  0.00    -0.245 OA
BRANCH  10  12
ATOM     12  O   LIG    1        0.695  -0.410   1.210  0.00  0.00    -0.460 OA
BRANCH  12  13
ATOM     13  C   LIG    1        1.741  -1.053   0.532  0.00  0.00    +0.248 C 
BRANCH  13  14
ATOM     14  C   LIG    1        2.612  -0.014  -0.122  0.00  0.00    +0.125 C 
BRANCH  14  15
ATOM     15  N   LIG    1        3.673  -0.686  -0.806  0.00  0.00    -0.300 NA
BRANCH  15  16
ATOM     16  C   LIG    1        4.223  -1.821  -0.154  0.00  0.00    +0.081 C 
ATOM     17  C   LIG    1        5.334  -2.393  -1.010  0.00  0.00    +0.020 C 
ENDBRANCH  15  16
BRANCH  15  18
ATOM     18  C   LIG    1        4.580   0.191  -1.459  0.00  0.00    +0.081 C 
ATOM     19  C   LIG    1        5.416   1.020  -0.544  0.00  0.00    +0.020 C 
ENDBRANCH  15  18
ENDBRANCH  14  15
ENDBRANCH  13  14
ENDBRANCH  12  13
ENDBRANCH  10  12
ENDBRANCH   1  10
BRANCH   6  20
ATOM     20  O   LIG    1       -2.528   1.859  -0.410  0.00  0.00    -0.489 OA
BRANCH  20  21
ATOM     21  C   LIG    1       -3.458   1.041  -1.058  0.00  0.00    +0.229 C 
BRANCH  21  22
ATOM     22  C   LIG    1       -3.258  -0.439  -0.959  0.00  0.00    +0.041 C 
BRANCH  22  23
ATOM     23  C   LIG    1       -4.425  -1.071  -1.718  0.00  0.00    -0.000 C 
ATOM     24  C   LIG    1       -4.254  -2.561  -1.641  0.00  0.00    +0.004 C 
ENDBRANCH  22  23
ENDBRANCH  21  22
ENDBRANCH  20  21
ENDBRANCH   6  20
TORSDOF 12
