REMARK  Name = molecules/LJVAJPDWBABPEJ-PNUFFHFMSA-N.pdb
REMARK                            x       y       z     vdW  Elec       q    Type
REMARK                         _______ _______ _______ _____ _____    ______ ____
ROOT
ATOM      1  C   LIG    1        2.531  -4.122   0.915  0.00  0.00    +0.062 C 
ATOM      2  C   LIG    1        1.870  -3.371  -0.221  0.00  0.00    +0.168 C 
ATOM      3  C   LIG    1        1.863  -1.883   0.027  0.00  0.00    +0.136 C 
ATOM      4  C   LIG    1        1.641  -1.436   1.412  0.00  0.00    +0.077 C 
ATOM      5  C   LIG    1        2.847  -1.243   2.290  0.00  0.00    +0.017 C 
ATOM      6  C   LIG    1        0.779  -0.193   1.557  0.00  0.00    +0.141 C 
ATOM      7  C   LIG    1       -0.409  -0.170   2.372  0.00  0.00    +0.055 C 
ATOM      8  C   LIG    1       -0.568  -1.511   3.089  0.00  0.00    +0.015 C 
ATOM      9  C   LIG    1       -1.687   0.377   1.901  0.00  0.00    +0.048 C 
ATOM     10  C   LIG    1       -1.891   0.826   0.512  0.00  0.00    +0.094 C 
ATOM     11  C   LIG    1       -1.867   2.365   0.526  0.00  0.00    +0.044 C 
ATOM     12  C   LIG    1       -3.255   0.461  -0.088  0.00  0.00    +0.163 C 
ATOM     13  C   LIG    1       -3.468  -1.029  -0.063  0.00  0.00    +0.085 C 
ATOM     14  C   LIG    1       -4.860  -1.334   0.443  0.00  0.00    +0.018 C 
ATOM     15  C   LIG    1       -3.324  -1.701  -1.372  0.00  0.00    +0.152 C 
ATOM     16  C   LIG    1       -2.478  -2.906  -1.587  0.00  0.00    +0.161 C 
ATOM     17  C   LIG    1       -1.872  -3.377  -0.318  0.00  0.00    +0.318 C 
ATOM     18  O   LIG    1       -2.756  -3.880   0.478  0.00  0.00    -0.250 OA
ATOM     19  O   LIG    1       -0.546  -3.284  -0.037  0.00  0.00    -0.457 OA
ATOM     20  C   LIG    1       -1.517  -2.581  -2.676  0.00  0.00    +0.027 C 
ATOM     21  O   LIG    1       -3.911  -1.264  -2.325  0.00  0.00    -0.296 OA
ATOM     22  O   LIG    1        1.153   0.779   0.951  0.00  0.00    -0.297 OA
ATOM     23  N   LIG    1        2.860  -1.335  -0.801  0.00  0.00    -0.260 N 
ATOM     24  C   LIG    1        2.849  -2.302  -1.935  0.00  0.00    +0.404 C 
ATOM     25  O   LIG    1        2.916  -2.041  -3.152  0.00  0.00    -0.226 OA
ATOM     26  C   LIG    1        0.523  -3.954  -0.579  0.00  0.00    +0.221 C 
ATOM     27  O   LIG    1        2.751  -3.538  -1.326  0.00  0.00    -0.438 OA
ENDROOT
BRANCH  10  28
ATOM     28  O   LIG    1       -0.870   0.453  -0.301  0.00  0.00    -0.374 OA
ATOM     29  C   LIG    1       -0.866   0.833  -1.596  0.00  0.00    +0.194 C 
ENDBRANCH  10  28
BRANCH  26  30
ATOM     30  C   LIG    1        0.532  -5.443  -0.351  0.00  0.00    +0.045 C 
ATOM     31  C   LIG    1        1.492  -6.232  -1.155  0.00  0.00    +0.007 C 
ENDBRANCH  26  30
BRANCH  12  32
ATOM     32  O   LIG    1       -4.249   1.055   0.596  0.00  0.00    -0.342 OA
BRANCH  32  33
ATOM     33  C   LIG    1       -4.995   2.049  -0.044  0.00  0.00    +0.281 C 
ATOM     34  O   LIG    1       -4.902   3.151   0.704  0.00  0.00    -0.346 OA
ATOM     35  C   LIG    1       -5.942   4.010   0.795  0.00  0.00    +0.120 C 
ATOM     36  C   LIG    1       -6.798   3.713   2.015  0.00  0.00    +0.038 C 
ATOM     37  C   LIG    1       -6.756   4.122  -0.453  0.00  0.00    +0.053 C 
ATOM     38  C   LIG    1       -7.266   2.748  -0.794  0.00  0.00    +0.092 C 
ATOM     39  C   LIG    1       -6.384   1.618  -0.378  0.00  0.00    +0.187 C 
BRANCH  38  40
ATOM     40  N   LIG    1       -8.620   2.632  -0.259  0.00  0.00    -0.303 NA
ATOM     41  C   LIG    1       -8.912   1.289   0.233  0.00  0.00    +0.105 C 
ATOM     42  C   LIG    1       -9.593   2.831  -1.339  0.00  0.00    +0.105 C 
ENDBRANCH  38  40
BRANCH  39  43
ATOM     43  O   LIG    1       -6.300   0.777  -1.542  0.00  0.00    -0.385 OA
ATOM     44  H   LIG    1       -5.583   1.167  -2.136  0.00  0.00    +0.210 HD
ENDBRANCH  39  43
ENDBRANCH  32  33
ENDBRANCH  12  32
BRANCH  23  45
ATOM     45  C   LIG    1        3.748  -0.225  -0.972  0.00  0.00    +0.111 C 
BRANCH  45  46
ATOM     46  C   LIG    1        5.194  -0.443  -0.745  0.00  0.00    +0.021 C 
BRANCH  46  47
ATOM     47  C   LIG    1        5.686  -0.887   0.583  0.00  0.00    +0.023 C 
BRANCH  47  48
ATOM     48  C   LIG    1        7.208  -1.081   0.458  0.00  0.00    +0.123 C 
BRANCH  48  49
ATOM     49  N   LIG    1        7.892   0.106   0.044  0.00  0.00    -0.336 N 
ATOM     50  C   LIG    1        8.426   1.088   0.781  0.00  0.00    +0.115 A 
ATOM     51  C   LIG    1        9.008   2.030  -0.033  0.00  0.00    +0.090 A 
ATOM     52  N   LIG    1        8.812   1.594  -1.283  0.00  0.00    -0.236 NA
ATOM     53  C   LIG    1        8.144   0.441  -1.257  0.00  0.00    +0.199 A 
BRANCH  51  54
ATOM     54  C   LIG    1        9.716   3.257   0.342  0.00  0.00    +0.020 A 
ATOM     55  C   LIG    1        9.865   3.604   1.657  0.00  0.00    +0.120 A 
ATOM     56  N   LIG    1       10.523   4.731   2.041  0.00  0.00    -0.263 NA
ATOM     57  C   LIG    1       11.053   5.545   1.107  0.00  0.00    +0.111 A 
ATOM     58  C   LIG    1       10.922   5.225  -0.238  0.00  0.00    +0.020 A 
ATOM     59  C   LIG    1       10.248   4.073  -0.614  0.00  0.00    +0.013 A 
ENDBRANCH  51  54
ENDBRANCH  48  49
ENDBRANCH  47  48
ENDBRANCH  46  47
ENDBRANCH  45  46
ENDBRANCH  23  45
TORSDOF 12
