REMARK  Name = molecules/LKACJLUUJRMGFK-UHFFFAOYSA-N.pdb
REMARK                            x       y       z     vdW  Elec       q    Type
REMARK                         _______ _______ _______ _____ _____    ______ ____
ROOT
ATOM      1  C   LIG    1        0.418   0.506   0.213  0.00  0.00    +0.199 C 
ATOM      2  C   LIG    1        0.551   0.749  -1.254  0.00  0.00    +0.060 C 
ENDROOT
BRANCH   1   3
ATOM      3  S   LIG    1        1.954  -0.121   0.918  0.00  0.00    -0.006 S 
ATOM      4  O   LIG    1        1.675  -0.265   2.402  0.00  0.00    -0.172 OA
ATOM      5  O   LIG    1        2.976   0.959   0.690  0.00  0.00    -0.172 OA
BRANCH   3   6
ATOM      6  C   LIG    1        2.470  -1.637   0.243  0.00  0.00    +0.165 C 
ATOM      7  C   LIG    1        2.737  -1.576  -1.229  0.00  0.00    +0.028 C 
ENDBRANCH   3   6
ENDBRANCH   1   3
BRANCH   1   8
ATOM      8  S   LIG    1       -0.877  -0.676   0.478  0.00  0.00    -0.006 S 
ATOM      9  O   LIG    1       -0.923  -0.959   1.949  0.00  0.00    -0.172 OA
ATOM     10  O   LIG    1       -0.475  -1.950  -0.237  0.00  0.00    -0.172 OA
BRANCH   8  11
ATOM     11  C   LIG    1       -2.424  -0.187  -0.173  0.00  0.00    +0.165 C 
ATOM     12  C   LIG    1       -3.494  -1.266   0.081  0.00  0.00    +0.028 C 
ENDBRANCH   8  11
ENDBRANCH   1   8
BRANCH   1  13
ATOM     13  C   LIG    1        0.193   1.785   1.000  0.00  0.00    +0.049 C 
ATOM     14  C   LIG    1       -1.009   2.564   0.658  0.00  0.00    +0.008 C 
ENDBRANCH   1  13
TORSDOF 5
