REMARK  Name = molecules/LKCWBDHBTVXHDL-RMDFUYIESA-N.pdb
REMARK                            x       y       z     vdW  Elec       q    Type
REMARK                         _______ _______ _______ _____ _____    ______ ____
ROOT
ATOM      1  C   LIG    1       -1.178  -0.325   0.722  0.00  0.00    +0.173 C 
ATOM      2  C   LIG    1       -0.192  -0.564   1.813  0.00  0.00    +0.175 C 
ATOM      3  C   LIG    1        0.919   0.483   1.633  0.00  0.00    +0.169 C 
ATOM      4  C   LIG    1        0.372   1.779   2.140  0.00  0.00    +0.084 C 
ATOM      5  C   LIG    1       -1.118   1.770   2.110  0.00  0.00    +0.046 C 
ATOM      6  C   LIG    1       -1.698   1.090   0.889  0.00  0.00    +0.106 C 
ENDROOT
BRANCH   6   7
ATOM      7  N   LIG    1       -1.459   1.915  -0.250  0.00  0.00    -0.308 N 
ATOM      8  H   LIG    1       -0.475   2.076  -0.615  0.00  0.00    +0.149 HD
ATOM      9  C   LIG    1       -2.496   2.577  -0.978  0.00  0.00    +0.242 C 
ATOM     10  O   LIG    1       -3.668   2.398  -0.560  0.00  0.00    -0.273 OA
BRANCH   9  11
ATOM     11  C   LIG    1       -2.261   3.423  -2.144  0.00  0.00    +0.201 C 
BRANCH  11  12
ATOM     12  O   LIG    1       -3.470   3.923  -2.623  0.00  0.00    -0.383 OA
ATOM     13  H   LIG    1       -4.187   3.248  -2.473  0.00  0.00    +0.210 HD
ENDBRANCH  11  12
BRANCH  11  14
ATOM     14  C   LIG    1       -1.379   4.625  -1.850  0.00  0.00    +0.056 C 
BRANCH  14  15
ATOM     15  C   LIG    1       -1.240   5.390  -3.165  0.00  0.00    +0.080 C 
BRANCH  15  16
ATOM     16  N   LIG    1       -2.544   5.819  -3.642  0.00  0.00    -0.330 NA
ATOM     17  H   LIG    1       -2.742   6.793  -3.304  0.00  0.00    +0.118 HD
ATOM     18  H   LIG    1       -2.560   5.770  -4.679  0.00  0.00    +0.118 HD
ENDBRANCH  15  16
ENDBRANCH  14  15
ENDBRANCH  11  14
ENDBRANCH   9  11
ENDBRANCH   6   7
BRANCH   4  19
ATOM     19  N   LIG    1        0.956   2.894   1.430  0.00  0.00    -0.325 NA
ATOM     20  H   LIG    1        1.519   3.522   2.045  0.00  0.00    +0.119 HD
ATOM     21  H   LIG    1        1.534   2.553   0.612  0.00  0.00    +0.119 HD
ENDBRANCH   4  19
BRANCH   2  22
ATOM     22  O   LIG    1        0.434  -1.778   1.792  0.00  0.00    -0.387 OA
ATOM     23  H   LIG    1        0.320  -2.233   0.913  0.00  0.00    +0.210 HD
ENDBRANCH   2  22
BRANCH   3  24
ATOM     24  O   LIG    1        2.101   0.093   2.212  0.00  0.00    -0.341 OA
BRANCH  24  25
ATOM     25  C   LIG    1        3.094  -0.039   1.246  0.00  0.00    +0.282 C 
ATOM     26  O   LIG    1        4.081   0.884   1.494  0.00  0.00    -0.342 OA
ATOM     27  C   LIG    1        5.281   0.355   1.909  0.00  0.00    +0.166 C 
ATOM     28  C   LIG    1        5.923  -0.522   0.854  0.00  0.00    +0.176 C 
ATOM     29  C   LIG    1        4.889  -1.469   0.336  0.00  0.00    +0.179 C 
ATOM     30  C   LIG    1        3.607  -1.452   1.148  0.00  0.00    +0.201 C 
BRANCH  28  31
ATOM     31  O   LIG    1        6.966  -1.258   1.436  0.00  0.00    -0.387 OA
ATOM     32  H   LIG    1        6.551  -2.017   1.901  0.00  0.00    +0.210 HD
ENDBRANCH  28  31
BRANCH  29  33
ATOM     33  O   LIG    1        4.618  -1.194  -0.994  0.00  0.00    -0.386 OA
ATOM     34  H   LIG    1        4.607  -1.987  -1.572  0.00  0.00    +0.210 HD
ENDBRANCH  29  33
BRANCH  30  35
ATOM     35  O   LIG    1        3.825  -2.035   2.387  0.00  0.00    -0.384 OA
ATOM     36  H   LIG    1        3.043  -1.805   2.966  0.00  0.00    +0.210 HD
ENDBRANCH  30  35
BRANCH  27  37
ATOM     37  C   LIG    1        6.223   1.525   2.177  0.00  0.00    +0.112 C 
BRANCH  37  38
ATOM     38  N   LIG    1        7.507   1.055   2.618  0.00  0.00    -0.328 NA
ATOM     39  H   LIG    1        7.401   0.203   3.215  0.00  0.00    +0.118 HD
ATOM     40  H   LIG    1        8.143   0.891   1.817  0.00  0.00    +0.118 HD
ENDBRANCH  37  38
ENDBRANCH  27  37
ENDBRANCH  24  25
ENDBRANCH   3  24
BRANCH   1  41
ATOM     41  O   LIG    1       -2.226  -1.162   0.640  0.00  0.00    -0.341 OA
BRANCH  41  42
ATOM     42  C   LIG    1       -2.447  -1.853  -0.505  0.00  0.00    +0.281 C 
ATOM     43  O   LIG    1       -2.259  -3.207  -0.239  0.00  0.00    -0.341 OA
ATOM     44  C   LIG    1       -3.430  -3.875   0.067  0.00  0.00    +0.177 C 
ATOM     45  C   LIG    1       -4.364  -3.984  -1.125  0.00  0.00    +0.165 C 
ATOM     46  C   LIG    1       -4.022  -2.846  -2.054  0.00  0.00    +0.116 C 
ATOM     47  C   LIG    1       -3.776  -1.624  -1.157  0.00  0.00    +0.189 C 
BRANCH  46  48
ATOM     48  N   LIG    1       -2.728  -3.157  -2.648  0.00  0.00    -0.323 NA
ATOM     49  H   LIG    1       -2.435  -4.138  -2.486  0.00  0.00    +0.119 HD
ATOM     50  H   LIG    1       -2.710  -2.986  -3.669  0.00  0.00    +0.119 HD
ENDBRANCH  46  48
BRANCH  47  51
ATOM     51  O   LIG    1       -4.821  -1.489  -0.253  0.00  0.00    -0.385 OA
ATOM     52  H   LIG    1       -5.412  -0.740  -0.466  0.00  0.00    +0.210 HD
ENDBRANCH  47  51
BRANCH  45  53
ATOM     53  O   LIG    1       -5.692  -3.888  -0.776  0.00  0.00    -0.388 OA
ATOM     54  H   LIG    1       -6.230  -3.294  -1.336  0.00  0.00    +0.210 HD
ENDBRANCH  45  53
BRANCH  44  55
ATOM     55  C   LIG    1       -3.037  -5.299   0.425  0.00  0.00    +0.190 C 
BRANCH  55  56
ATOM     56  O   LIG    1       -2.166  -5.312   1.526  0.00  0.00    -0.392 OA
ATOM     57  H   LIG    1       -2.472  -4.686   2.225  0.00  0.00    +0.210 HD
ENDBRANCH  55  56
ENDBRANCH  44  55
ENDBRANCH  41  42
ENDBRANCH   1  41
TORSDOF 22
