REMARK  Name = molecules/LKDRXBCSQODPBY-ZXXMMSQZSA-N.pdb
REMARK                            x       y       z     vdW  Elec       q    Type
REMARK                         _______ _______ _______ _____ _____    ______ ____
ROOT
ATOM      1  C   LIG    1        0.904  -1.627  -0.037  0.00  0.00    +0.197 C 
ATOM      2  C   LIG    1        1.829  -0.455   0.201  0.00  0.00    +0.171 C 
ATOM      3  C   LIG    1        0.956   0.692   0.696  0.00  0.00    +0.179 C 
ATOM      4  C   LIG    1       -0.201   0.929  -0.216  0.00  0.00    +0.207 C 
ATOM      5  C   LIG    1       -0.913  -0.324  -0.642  0.00  0.00    +0.220 C 
ATOM      6  O   LIG    1       -0.025  -1.307  -0.991  0.00  0.00    -0.342 OA
ENDROOT
BRANCH   3   7
ATOM      7  O   LIG    1        1.778   1.842   0.626  0.00  0.00    -0.386 OA
ATOM      8  H   LIG    1        2.071   1.877  -0.339  0.00  0.00    +0.210 HD
ENDBRANCH   3   7
BRANCH   4   9
ATOM      9  O   LIG    1       -1.045   1.870   0.332  0.00  0.00    -0.384 OA
ATOM     10  H   LIG    1       -0.611   2.765   0.223  0.00  0.00    +0.210 HD
ENDBRANCH   4   9
BRANCH   5  11
ATOM     11  O   LIG    1       -1.628   0.018  -1.816  0.00  0.00    -0.361 OA
ATOM     12  H   LIG    1       -2.163   0.828  -1.543  0.00  0.00    +0.213 HD
ENDBRANCH   5  11
BRANCH   2  13
ATOM     13  O   LIG    1        2.418  -0.065  -1.006  0.00  0.00    -0.387 OA
ATOM     14  H   LIG    1        3.206  -0.644  -1.219  0.00  0.00    +0.210 HD
ENDBRANCH   2  13
BRANCH   5  15
ATOM     15  C   LIG    1       -1.938  -0.794   0.352  0.00  0.00    +0.223 C 
BRANCH  15  16
ATOM     16  O   LIG    1       -2.806   0.226   0.670  0.00  0.00    -0.390 OA
ATOM     17  H   LIG    1       -3.275   0.070   1.538  0.00  0.00    +0.210 HD
ENDBRANCH  15  16
ENDBRANCH   5  15
TORSDOF 6
