REMARK  Name = molecules/LKJPYSCBVHEWIU-KRWDZBQOSA-N.pdb
REMARK                            x       y       z     vdW  Elec       q    Type
REMARK                         _______ _______ _______ _____ _____    ______ ____
ROOT
ATOM      1  N   LIG    1        1.440  -0.737  -0.201  0.00  0.00    -0.283 N 
ATOM      2  C   LIG    1        0.818  -1.647   0.651  0.00  0.00    +0.250 C 
ATOM      3  O   LIG    1        1.333  -2.063   1.691  0.00  0.00    -0.272 OA
ATOM      4  H   LIG    1        0.880  -0.461  -1.069  0.00  0.00    +0.155 HD
ENDROOT
BRANCH   1   9
ATOM      5  C   LIG    1        4.353   1.361  -0.851  0.00  0.00    +0.074 A 
ATOM      6  C   LIG    1        5.203   1.042   0.196  0.00  0.00    +0.064 A 
ATOM      7  C   LIG    1        4.779   0.115   1.119  0.00  0.00    +0.021 A 
ATOM      8  C   LIG    1        3.519  -0.490   1.001  0.00  0.00    +0.024 A 
ATOM      9  C   LIG    1        2.685  -0.177  -0.026  0.00  0.00    +0.034 A 
ATOM     10  C   LIG    1        3.122   0.769  -0.965  0.00  0.00    +0.037 A 
BRANCH   5  11
ATOM     11  C   LIG    1        4.812   2.364  -1.848  0.00  0.00    +0.419 C 
ATOM     12  F   LIG    1        5.067   3.570  -1.241  0.00  0.00    -0.166 F 
ATOM     13  F   LIG    1        5.909   1.840  -2.490  0.00  0.00    -0.166 F 
ATOM     14  F   LIG    1        3.811   2.563  -2.774  0.00  0.00    -0.166 F 
ENDBRANCH   5  11
BRANCH   6  15
ATOM     15  C   LIG    1        6.478   1.661   0.308  0.00  0.00    +0.100 C 
ATOM     16  N   LIG    1        7.510   2.165   0.410  0.00  0.00    -0.191 NA
ENDBRANCH   6  15
ENDBRANCH   1   9
BRANCH   2  17
ATOM     17  C   LIG    1       -0.558  -2.192   0.345  0.00  0.00    +0.158 C 
ATOM     18  C   LIG    1       -0.563  -2.890  -0.988  0.00  0.00    +0.053 C 
BRANCH  17  19
ATOM     19  O   LIG    1       -0.904  -3.056   1.354  0.00  0.00    -0.378 OA
ATOM     20  H   LIG    1       -0.528  -2.714   2.214  0.00  0.00    +0.211 HD
ENDBRANCH  17  19
BRANCH  17  21
ATOM     21  C   LIG    1       -1.472  -0.986   0.301  0.00  0.00    +0.215 C 
BRANCH  21  22
ATOM     22  S   LIG    1       -3.145  -1.430  -0.048  0.00  0.00    +0.000 S 
ATOM     23  O   LIG    1       -3.633  -2.365   1.016  0.00  0.00    -0.169 OA
ATOM     24  O   LIG    1       -3.159  -2.087  -1.409  0.00  0.00    -0.169 OA
BRANCH  22  25
ATOM     25  C   LIG    1       -4.088   0.055  -0.070  0.00  0.00    +0.088 A 
ATOM     26  C   LIG    1       -4.679   0.539   1.079  0.00  0.00    +0.030 A 
ATOM     27  C   LIG    1       -5.419   1.702   1.072  0.00  0.00    +0.040 A 
ATOM     28  C   LIG    1       -5.601   2.434  -0.083  0.00  0.00    +0.124 A 
ATOM     29  F   LIG    1       -6.333   3.584  -0.092  0.00  0.00    -0.205 F 
ATOM     30  C   LIG    1       -5.010   1.949  -1.232  0.00  0.00    +0.040 A 
ATOM     31  C   LIG    1       -4.268   0.785  -1.226  0.00  0.00    +0.030 A 
ENDBRANCH  22  25
ENDBRANCH  21  22
ENDBRANCH  17  21
ENDBRANCH   2  17
TORSDOF 8
