REMARK  Name = molecules/LLEMOWNGBBNAJR-UHFFFAOYSA-N.pdb
REMARK                            x       y       z     vdW  Elec       q    Type
REMARK                         _______ _______ _______ _____ _____    ______ ____
ROOT
ATOM      1  C   LIG    1       -1.530  -0.749   0.074  0.00  0.00    +0.125 A 
ATOM      2  C   LIG    1       -2.888  -0.561   0.254  0.00  0.00    +0.046 A 
ATOM      3  C   LIG    1       -3.403   0.697   0.451  0.00  0.00    +0.004 A 
ATOM      4  C   LIG    1       -2.518   1.755   0.461  0.00  0.00    +0.001 A 
ATOM      5  C   LIG    1       -1.153   1.557   0.279  0.00  0.00    +0.012 A 
ATOM      6  C   LIG    1       -0.637   0.306   0.083  0.00  0.00    +0.024 A 
ENDROOT
BRANCH   6   7
ATOM      7  C   LIG    1        0.786   0.067  -0.109  0.00  0.00    -0.014 A 
ATOM      8  C   LIG    1        1.404  -0.962   0.569  0.00  0.00    +0.008 A 
ATOM      9  C   LIG    1        2.753  -1.242   0.429  0.00  0.00    +0.001 A 
ATOM     10  C   LIG    1        3.518  -0.479  -0.410  0.00  0.00    +0.000 A 
ATOM     11  C   LIG    1        2.923   0.547  -1.093  0.00  0.00    +0.001 A 
ATOM     12  C   LIG    1        1.574   0.822  -0.949  0.00  0.00    +0.008 A 
ENDBRANCH   6   7
BRANCH   1  13
ATOM     13  O   LIG    1       -0.985  -2.014  -0.127  0.00  0.00    -0.506 OA
ATOM     14  H   LIG    1       -1.636  -2.787  -0.134  0.00  0.00    +0.292 HD
ENDBRANCH   1  13
TORSDOF 2
