REMARK  Name = molecules/LLJFMFZYVVLQKT-UHFFFAOYSA-N.pdb
REMARK                            x       y       z     vdW  Elec       q    Type
REMARK                         _______ _______ _______ _____ _____    ______ ____
ROOT
ATOM      1  C   LIG    1       -0.635   0.030   1.201  0.00  0.00    -0.046 A 
ATOM      2  C   LIG    1       -0.036   0.753   2.197  0.00  0.00    +0.005 A 
ATOM      3  C   LIG    1        1.281   0.520   2.539  0.00  0.00    +0.029 A 
ATOM      4  C   LIG    1        2.054  -0.435   1.910  0.00  0.00    +0.109 A 
ATOM      5  C   LIG    1        1.452  -1.165   0.906  0.00  0.00    +0.029 A 
ATOM      6  C   LIG    1        0.131  -0.934   0.561  0.00  0.00    +0.005 A 
ENDROOT
BRANCH   4   7
ATOM      7  S   LIG    1        3.728  -0.689   2.386  0.00  0.00    +0.076 S 
ATOM      8  O   LIG    1        3.914  -0.323   3.853  0.00  0.00    -0.150 OA
ATOM      9  O   LIG    1        4.134  -2.112   2.252  0.00  0.00    -0.150 OA
BRANCH   7  10
ATOM     10  N   LIG    1        4.724   0.333   1.449  0.00  0.00    -0.169 N 
ATOM     11  H   LIG    1        4.418   1.303   1.211  0.00  0.00    +0.178 HD
ATOM     12  C   LIG    1        5.989  -0.085   0.962  0.00  0.00    +0.319 C 
ATOM     13  O   LIG    1        6.373  -1.253   1.238  0.00  0.00    -0.251 OA
ATOM     14  N   LIG    1        6.834   0.736   0.188  0.00  0.00    -0.295 N 
ATOM     15  H   LIG    1        6.481   1.709  -0.025  0.00  0.00    +0.151 HD
BRANCH  14  16
ATOM     16  C   LIG    1        8.104   0.300  -0.294  0.00  0.00    +0.074 C 
ATOM     17  C   LIG    1        9.246   1.170   0.231  0.00  0.00    +0.022 C 
ATOM     18  C   LIG    1       10.531   0.418  -0.053  0.00  0.00    +0.002 C 
ATOM     19  C   LIG    1       10.704   0.300  -1.553  0.00  0.00    +0.000 C 
ATOM     20  C   LIG    1        9.494  -0.335  -2.200  0.00  0.00    +0.002 C 
ATOM     21  C   LIG    1        8.213   0.345  -1.809  0.00  0.00    +0.022 C 
ENDBRANCH  14  16
ENDBRANCH   7  10
ENDBRANCH   4   7
BRANCH   1  22
ATOM     22  C   LIG    1       -2.036   0.204   0.760  0.00  0.00    +0.054 C 
BRANCH  22  23
ATOM     23  C   LIG    1       -3.015  -0.663   1.507  0.00  0.00    +0.121 C 
BRANCH  23  28
ATOM     24  C   LIG    1       -6.489   0.991   0.905  0.00  0.00    +0.067 C 
ATOM     25  C   LIG    1       -7.519   0.947   2.008  0.00  0.00    +0.025 C 
ATOM     26  C   LIG    1       -5.162   0.651   1.456  0.00  0.00    +0.232 C 
ATOM     27  O   LIG    1       -4.757   1.315   2.443  0.00  0.00    -0.274 OA
ATOM     28  N   LIG    1       -4.325  -0.364   0.948  0.00  0.00    -0.237 N 
ATOM     29  C   LIG    1       -4.771  -1.134  -0.158  0.00  0.00    +0.253 C 
ATOM     30  O   LIG    1       -4.038  -2.049  -0.627  0.00  0.00    -0.270 OA
ATOM     31  C   LIG    1       -6.070  -0.873  -0.752  0.00  0.00    +0.045 A 
ATOM     32  C   LIG    1       -6.505  -1.623  -1.822  0.00  0.00    +0.059 A 
ATOM     33  C   LIG    1       -7.729  -1.405  -2.403  0.00  0.00    +0.121 A 
ATOM     34  C   LIG    1       -8.527  -0.411  -1.893  0.00  0.00    +0.046 A 
ATOM     35  C   LIG    1       -8.109   0.357  -0.816  0.00  0.00    +0.009 A 
ATOM     36  C   LIG    1       -6.383   2.411   0.355  0.00  0.00    +0.025 C 
ATOM     37  C   LIG    1       -6.869   0.124  -0.241  0.00  0.00    -0.021 A 
BRANCH  33  38
ATOM     38  O   LIG    1       -8.107  -2.196  -3.479  0.00  0.00    -0.495 OA
ATOM     39  C   LIG    1       -9.350  -2.035  -4.132  0.00  0.00    +0.277 C 
ENDBRANCH  33  38
ENDBRANCH  23  28
ENDBRANCH  22  23
ENDBRANCH   1  22
TORSDOF 7
