REMARK  Name = molecules/LMBWSYZSUOEYSN-UHFFFAOYSA-N.pdb
REMARK                            x       y       z     vdW  Elec       q    Type
REMARK                         _______ _______ _______ _____ _____    ______ ____
ROOT
ATOM      1  N   LIG    1        0.057   0.295  -0.395  0.00  0.00    -0.320 N 
ENDROOT
BRANCH   1   3
ATOM      2  C   LIG    1        2.218  -0.898  -0.395  0.00  0.00    +0.024 C 
ATOM      3  C   LIG    1        0.844  -0.768  -0.937  0.00  0.00    +0.102 C 
ENDBRANCH   1   3
BRANCH   1   4
ATOM      4  C   LIG    1        0.553   1.378   0.285  0.00  0.00    +0.106 C 
ATOM      5  S   LIG    1        2.113   1.655   0.544  0.00  0.00    -0.028 S 
BRANCH   4   6
ATOM      6  S   LIG    1       -0.573   2.645   0.932  0.00  0.00    -0.120 S 
ATOM      7  H   LIG    1       -1.049   3.420  -0.130  0.00  0.00    +0.109 HD
ENDBRANCH   4   6
ENDBRANCH   1   4
BRANCH   1   8
ATOM      8  C   LIG    1       -1.422   0.267  -0.619  0.00  0.00    +0.102 C 
ATOM      9  C   LIG    1       -2.011  -0.858   0.191  0.00  0.00    +0.024 C 
ENDBRANCH   1   8
TORSDOF 4
