REMARK  Name = molecules/LMEKQMALGUDUQG-UHFFFAOYSA-N.pdb
REMARK                            x       y       z     vdW  Elec       q    Type
REMARK                         _______ _______ _______ _____ _____    ______ ____
ROOT
ATOM      1  C   LIG    1       -1.009  -0.563  -0.742  0.00  0.00    +0.132 A 
ATOM      2  C   LIG    1       -2.136   0.112  -0.322  0.00  0.00    +0.118 A 
ATOM      3  C   LIG    1       -3.227  -0.650   0.100  0.00  0.00    +0.182 A 
ATOM      4  N   LIG    1       -4.235   0.196   0.434  0.00  0.00    -0.216 NA
ATOM      5  C   LIG    1       -3.783   1.430   0.220  0.00  0.00    +0.199 A 
ATOM      6  N   LIG    1       -3.170  -1.965   0.092  0.00  0.00    -0.214 NA
ATOM      7  C   LIG    1       -2.057  -2.610  -0.329  0.00  0.00    +0.224 A 
ATOM      8  N   LIG    1       -2.507   1.408  -0.243  0.00  0.00    -0.341 N 
ATOM      9  H   LIG    1       -1.919   2.220  -0.518  0.00  0.00    +0.167 HD
ATOM     10  N   LIG    1       -0.970  -1.883  -0.746  0.00  0.00    -0.227 NA
ENDROOT
BRANCH   1  11
ATOM     11  S   LIG    1        0.394   0.469  -1.275  0.00  0.00    -0.046 S 
BRANCH  11  12
ATOM     12  C   LIG    1        1.631   0.463   0.027  0.00  0.00    +0.133 A 
ATOM     13  C   LIG    1        1.701   1.157   1.170  0.00  0.00    +0.247 A 
ATOM     14  N   LIG    1        2.880   0.811   1.781  0.00  0.00    -0.212 NA
ATOM     15  C   LIG    1        3.491  -0.084   0.987  0.00  0.00    +0.202 A 
ATOM     16  N   LIG    1        2.743  -0.319  -0.104  0.00  0.00    -0.326 N 
ATOM     17  C   LIG    1        3.078  -1.188  -1.216  0.00  0.00    +0.151 C 
BRANCH  13  18
ATOM     18  N   LIG    1        0.745   2.080   1.731  0.00  0.00    +0.078 N 
ATOM     19  O   LIG    1        0.625   2.120   3.124  0.00  0.00    -0.125 OA
ATOM     20  O   LIG    1        0.043   2.823   1.076  0.00  0.00    -0.125 OA
ENDBRANCH  13  18
ENDBRANCH  11  12
ENDBRANCH   1  11
TORSDOF 3
