REMARK  Name = molecules/LMINNBXUMGNKMM-UHFFFAOYSA-N.pdb
REMARK                            x       y       z     vdW  Elec       q    Type
REMARK                         _______ _______ _______ _____ _____    ______ ____
ROOT
ATOM      1  C   LIG    1       -0.765  -2.002   0.669  0.00  0.00    +0.130 C 
ATOM      2  N   LIG    1       -0.966  -0.655   0.151  0.00  0.00    -0.316 N 
ATOM      3  C   LIG    1       -2.287  -0.121   0.219  0.00  0.00    +0.044 A 
ATOM      4  C   LIG    1       -3.269  -0.820   0.926  0.00  0.00    +0.024 A 
ATOM      5  C   LIG    1       -4.548  -0.345   1.105  0.00  0.00    +0.002 A 
ATOM      6  C   LIG    1       -4.868   0.880   0.558  0.00  0.00    +0.001 A 
ATOM      7  C   LIG    1       -3.937   1.598  -0.143  0.00  0.00    +0.017 A 
ATOM      8  C   LIG    1       -2.667   1.087  -0.300  0.00  0.00    +0.034 A 
ATOM      9  S   LIG    1       -1.496   2.031  -1.252  0.00  0.00    -0.089 S 
ATOM     10  C   LIG    1        0.086   1.220  -1.088  0.00  0.00    +0.020 C 
ATOM     11  C   LIG    1        1.217   1.796  -1.568  0.00  0.00    +0.013 C 
ATOM     12  C   LIG    1        2.441   1.183  -1.443  0.00  0.00    +0.005 C 
ATOM     13  C   LIG    1        2.563  -0.035  -0.827  0.00  0.00    -0.038 C 
ATOM     14  C   LIG    1        1.391  -0.606  -0.346  0.00  0.00    +0.011 C 
ATOM     15  C   LIG    1        0.139  -0.002  -0.464  0.00  0.00    +0.115 C 
ENDROOT
BRANCH  13  16
ATOM     16  C   LIG    1        3.853  -0.710  -0.568  0.00  0.00    +0.155 C 
BRANCH  16  17
ATOM     17  C   LIG    1        4.678   0.058   0.376  0.00  0.00    +0.309 C 
ATOM     18  O   LIG    1        5.263   1.106  -0.065  0.00  0.00    -0.251 OA
BRANCH  17  19
ATOM     19  O   LIG    1        4.846  -0.283   1.684  0.00  0.00    -0.480 OA
ATOM     20  H   LIG    1        4.627   0.346   2.470  0.00  0.00    +0.295 HD
ENDBRANCH  17  19
ENDBRANCH  16  17
ENDBRANCH  13  16
TORSDOF 3
