REMARK  Name = molecules/LMJSLTNSBFUCMU-QMMMGPOBSA-N.pdb
REMARK                            x       y       z     vdW  Elec       q    Type
REMARK                         _______ _______ _______ _____ _____    ______ ____
ROOT
ATOM      1  O   LIG    1       -0.952   1.999  -2.416  0.00  0.00    -0.153 OA
ATOM      2  S   LIG    1       -1.411   0.856  -1.562  0.00  0.00    +0.062 S 
ATOM      3  N   LIG    1       -2.541   1.369  -0.388  0.00  0.00    -0.167 NA
ATOM      4  C   LIG    1       -2.711   0.451   0.665  0.00  0.00    +0.192 C 
ATOM      5  N   LIG    1       -1.743  -0.554   0.878  0.00  0.00    -0.324 N 
ATOM      6  H   LIG    1       -2.069  -1.447   1.363  0.00  0.00    +0.148 HD
ATOM      7  C   LIG    1       -0.382  -0.472   0.509  0.00  0.00    +0.057 A 
ATOM      8  C   LIG    1        0.624  -1.034   1.283  0.00  0.00    +0.047 A 
ATOM      9  C   LIG    1        1.920  -0.902   0.845  0.00  0.00    +0.069 A 
ATOM     10 CL   LIG    1        3.209  -1.605   1.806  0.00  0.00    -0.081 Cl
ATOM     11  C   LIG    1        2.251  -0.238  -0.320  0.00  0.00    +0.125 A 
ATOM     12  C   LIG    1        1.230   0.308  -1.065  0.00  0.00    +0.060 A 
ATOM     13  H   LIG    1       -3.445   1.691  -0.794  0.00  0.00    +0.150 HD
ATOM     14  C   LIG    1       -0.060   0.188  -0.650  0.00  0.00    +0.128 A 
ATOM     15  O   LIG    1       -1.973  -0.268  -2.377  0.00  0.00    -0.153 OA
ENDROOT
BRANCH  11  16
ATOM     16  S   LIG    1        3.926  -0.111  -0.812  0.00  0.00    +0.057 S 
ATOM     17  O   LIG    1        4.556  -1.445  -1.037  0.00  0.00    -0.153 OA
ATOM     18  O   LIG    1        3.990   0.671  -2.089  0.00  0.00    -0.153 OA
BRANCH  16  19
ATOM     19  N   LIG    1        4.870   0.717   0.383  0.00  0.00    -0.203 NA
ATOM     20  H   LIG    1        5.081   0.005   1.124  0.00  0.00    +0.144 HD
ATOM     21  H   LIG    1        4.306   1.520   0.745  0.00  0.00    +0.144 HD
ENDBRANCH  16  19
ENDBRANCH  11  16
BRANCH   4  22
ATOM     22  C   LIG    1       -4.106  -0.157   0.535  0.00  0.00    +0.207 C 
ATOM     23 CL   LIG    1       -4.379  -1.334   1.851  0.00  0.00    -0.101 Cl
ATOM     24 CL   LIG    1       -4.347  -0.993  -0.991  0.00  0.00    -0.101 Cl
ENDBRANCH   4  22
TORSDOF 3
