REMARK  Name = molecules/LMKPHJYTFHAGHK-KRWDZBQOSA-N.pdb
REMARK                            x       y       z     vdW  Elec       q    Type
REMARK                         _______ _______ _______ _____ _____    ______ ____
ROOT
ATOM      1  C   LIG    1       -1.844   0.424  -0.130  0.00  0.00    +0.159 C 
ENDROOT
BRANCH   1   2
ATOM      2  C   LIG    1       -2.494   0.979   1.084  0.00  0.00    -0.031 A 
ATOM      3  C   LIG    1       -2.644   0.231   2.243  0.00  0.00    +0.004 A 
ATOM      4  C   LIG    1       -3.250   0.790   3.348  0.00  0.00    +0.000 A 
ATOM      5  C   LIG    1       -3.728   2.086   3.368  0.00  0.00    +0.000 A 
ATOM      6  C   LIG    1       -3.583   2.832   2.223  0.00  0.00    +0.000 A 
ATOM      7  C   LIG    1       -2.976   2.273   1.115  0.00  0.00    +0.004 A 
ENDBRANCH   1   2
BRANCH   1   8
ATOM      8  C   LIG    1       -2.620  -0.724  -0.718  0.00  0.00    +0.083 C 
ATOM      9  C   LIG    1       -4.060  -0.414  -1.009  0.00  0.00    +0.036 C 
ATOM     10  C   LIG    1       -4.333  -1.099  -2.361  0.00  0.00    +0.003 C 
ATOM     11  C   LIG    1       -3.024  -0.906  -3.053  0.00  0.00    +0.003 C 
ATOM     12  C   LIG    1       -1.992  -1.143  -2.006  0.00  0.00    +0.036 C 
BRANCH   8  13
ATOM     13  O   LIG    1       -2.614  -1.796   0.191  0.00  0.00    -0.387 OA
ATOM     14  H   LIG    1       -2.093  -2.555  -0.156  0.00  0.00    +0.210 HD
ENDBRANCH   8  13
ENDBRANCH   1   8
BRANCH   1  15
ATOM     15  C   LIG    1       -0.447   0.010   0.134  0.00  0.00    +0.317 C 
ATOM     16  O   LIG    1       -0.130  -1.182  -0.073  0.00  0.00    -0.250 OA
BRANCH  15  17
ATOM     17  O   LIG    1        0.511   0.883   0.598  0.00  0.00    -0.463 OA
BRANCH  17  18
ATOM     18  C   LIG    1        1.825   0.494   0.846  0.00  0.00    +0.247 C 
BRANCH  18  19
ATOM     19  C   LIG    1        2.578  -0.010  -0.362  0.00  0.00    +0.125 C 
BRANCH  19  20
ATOM     20  N   LIG    1        3.897  -0.375   0.024  0.00  0.00    -0.300 NA
BRANCH  20  21
ATOM     21  C   LIG    1        4.072  -1.494   0.841  0.00  0.00    +0.081 C 
ATOM     22  C   LIG    1        5.523  -1.732   1.171  0.00  0.00    +0.020 C 
ENDBRANCH  20  21
BRANCH  20  23
ATOM     23  C   LIG    1        4.973   0.229  -0.644  0.00  0.00    +0.081 C 
ATOM     24  C   LIG    1        4.981   1.713  -0.233  0.00  0.00    +0.020 C 
ENDBRANCH  20  23
ENDBRANCH  19  20
ENDBRANCH  18  19
ENDBRANCH  17  18
ENDBRANCH  15  17
ENDBRANCH   1  15
TORSDOF 10
