REMARK  Name = molecules/LMOINURANNBYCM-LLVKDONJSA-N.pdb
REMARK                            x       y       z     vdW  Elec       q    Type
REMARK                         _______ _______ _______ _____ _____    ______ ____
ROOT
ATOM      1  C   LIG    1       -1.272  -0.565  -0.045  0.00  0.00    -0.011 A 
ATOM      2  C   LIG    1       -2.159  -0.978   0.944  0.00  0.00    +0.051 A 
ATOM      3  C   LIG    1       -3.186  -0.183   1.407  0.00  0.00    +0.121 A 
ATOM      4  C   LIG    1       -3.373   1.071   0.897  0.00  0.00    +0.090 A 
ATOM      5  C   LIG    1       -2.512   1.512  -0.084  0.00  0.00    +0.121 A 
ATOM      6  C   LIG    1       -1.484   0.705  -0.542  0.00  0.00    +0.051 A 
ENDROOT
BRANCH   3   7
ATOM      7  O   LIG    1       -4.052  -0.657   2.411  0.00  0.00    -0.507 OA
ATOM      8  H   LIG    1       -3.820  -0.492   3.400  0.00  0.00    +0.292 HD
ENDBRANCH   3   7
BRANCH   5   9
ATOM      9  O   LIG    1       -2.722   2.793  -0.588  0.00  0.00    -0.507 OA
ATOM     10  H   LIG    1       -3.357   2.831  -1.400  0.00  0.00    +0.292 HD
ENDBRANCH   5   9
BRANCH   1  11
ATOM     11  C   LIG    1       -0.178  -1.356  -0.572  0.00  0.00    +0.158 C 
BRANCH  11  12
ATOM     12  O   LIG    1       -0.664  -2.660  -0.819  0.00  0.00    -0.386 OA
ATOM     13  H   LIG    1       -0.914  -2.797  -1.747  0.00  0.00    +0.210 HD
ENDBRANCH  11  12
BRANCH  11  14
ATOM     14  C   LIG    1        1.044  -1.452   0.267  0.00  0.00    +0.117 C 
BRANCH  14  15
ATOM     15  N   LIG    1        1.662  -0.201   0.610  0.00  0.00    -0.311 NA
ATOM     16  H   LIG    1        1.066   0.435   1.148  0.00  0.00    +0.122 HD
BRANCH  15  17
ATOM     17  C   LIG    1        2.260   0.506  -0.478  0.00  0.00    +0.048 C 
ATOM     18  C   LIG    1        2.863   1.780   0.143  0.00  0.00    +0.023 C 
ATOM     19  C   LIG    1        3.390  -0.218  -1.146  0.00  0.00    +0.023 C 
ENDBRANCH  15  17
ENDBRANCH  14  15
ENDBRANCH  11  14
ENDBRANCH   1  11
TORSDOF 7
