REMARK  Name = molecules/LNPDTQAFDNKSHK-UHFFFAOYSA-N.pdb
REMARK                            x       y       z     vdW  Elec       q    Type
REMARK                         _______ _______ _______ _____ _____    ______ ____
ROOT
ATOM      1  C   LIG    1       -0.291  -2.896   2.990  0.00  0.00    +0.090 C 
ATOM      2  C   LIG    1       -1.235  -2.080   2.200  0.00  0.00    +0.142 A 
ATOM      3  O   LIG    1       -2.551  -2.148   2.344  0.00  0.00    -0.359 OA
ATOM      4  N   LIG    1       -3.147  -1.341   1.544  0.00  0.00    -0.077 NA
ATOM      5  C   LIG    1       -2.219  -0.680   0.812  0.00  0.00    +0.121 A 
ATOM      6  C   LIG    1       -1.000  -1.148   1.227  0.00  0.00    +0.052 A 
ENDROOT
BRANCH   5   7
ATOM      7  C   LIG    1       -2.540   0.314  -0.196  0.00  0.00    +0.004 A 
ATOM      8  C   LIG    1       -3.195   1.464   0.181  0.00  0.00    +0.010 A 
ATOM      9  C   LIG    1       -3.489   2.399  -0.811  0.00  0.00    +0.001 A 
ATOM     10  C   LIG    1       -3.138   2.180  -2.126  0.00  0.00    +0.000 A 
ATOM     11  C   LIG    1       -2.480   1.013  -2.463  0.00  0.00    +0.001 A 
ATOM     12  C   LIG    1       -2.177   0.070  -1.496  0.00  0.00    +0.010 A 
ENDBRANCH   5   7
BRANCH   6  13
ATOM     13  C   LIG    1        0.285  -0.738   0.736  0.00  0.00    -0.012 A 
ATOM     14  C   LIG    1        0.703   0.583   0.907  0.00  0.00    +0.010 A 
ATOM     15  C   LIG    1        1.906   1.050   0.475  0.00  0.00    +0.029 A 
ATOM     16  C   LIG    1        2.774   0.192  -0.169  0.00  0.00    +0.105 A 
ATOM     17  C   LIG    1        2.406  -1.123  -0.362  0.00  0.00    +0.029 A 
ATOM     18  C   LIG    1        1.167  -1.579   0.091  0.00  0.00    +0.010 A 
BRANCH  16  19
ATOM     19  S   LIG    1        4.303   0.857  -0.699  0.00  0.00    +0.056 S 
ATOM     20  O   LIG    1        4.708   1.967   0.211  0.00  0.00    -0.153 OA
ATOM     21  O   LIG    1        5.317  -0.255  -0.667  0.00  0.00    -0.153 OA
BRANCH  19  22
ATOM     22  N   LIG    1        4.093   1.481  -2.279  0.00  0.00    -0.204 NA
ATOM     23  H   LIG    1        4.897   2.009  -2.641  0.00  0.00    +0.144 HD
ATOM     24  H   LIG    1        3.643   0.834  -2.935  0.00  0.00    +0.144 HD
ENDBRANCH  19  22
ENDBRANCH  16  19
ENDBRANCH   6  13
TORSDOF 4
