REMARK  Name = molecules/LNZMRLHZGOBKAN-KAWPREARSA-N.pdb
REMARK                            x       y       z     vdW  Elec       q    Type
REMARK                         _______ _______ _______ _____ _____    ______ ____
ROOT
ATOM      1  CA  LIG    1        2.454  -0.667  -0.168  0.00  0.00    +0.124 C 
ATOM      2  C   LIG    1        2.439   0.469   0.485  0.00  0.00    -0.014 C 
ATOM      3  C   LIG    1        1.016   1.079   0.719  0.00  0.00    +0.105 C 
ATOM      4  S   LIG    1        0.169   1.228  -0.877  0.00  0.00    -0.131 S 
ATOM      5  C   LIG    1        0.366  -0.404  -1.657  0.00  0.00    +0.169 C 
ATOM      6  CA  LIG    1       -0.753  -1.376  -1.501  0.00  0.00    +0.191 C 
ATOM      7  C   LIG    1        0.250  -2.226  -0.833  0.00  0.00    +0.244 C 
ATOM      8  O   LIG    1        0.266  -3.455  -0.467  0.00  0.00    -0.273 OA
ATOM      9  N   LIG    1        1.205  -1.185  -0.728  0.00  0.00    -0.249 N 
ENDROOT
BRANCH   6  10
ATOM     10  N   LIG    1       -1.880  -0.947  -0.734  0.00  0.00    -0.300 N 
ATOM     11  H   LIG    1       -1.728  -0.485   0.186  0.00  0.00    +0.150 HD
ATOM     12  C   LIG    1       -3.225  -1.121  -1.165  0.00  0.00    +0.239 C 
ATOM     13  O   LIG    1       -3.394  -1.684  -2.269  0.00  0.00    -0.273 OA
BRANCH  12  14
ATOM     14  CA  LIG    1       -4.403  -0.680  -0.402  0.00  0.00    +0.190 C 
BRANCH  14  15
ATOM     15  C   LIG    1       -4.233   0.815  -0.208  0.00  0.00    -0.018 A 
ATOM     16  C   LIG    1       -3.640   1.317   0.934  0.00  0.00    +0.006 A 
ATOM     17  C   LIG    1       -3.458   2.652   1.124  0.00  0.00    +0.000 A 
ATOM     18  C   LIG    1       -3.870   3.576   0.165  0.00  0.00    +0.000 A 
ATOM     19  C   LIG    1       -4.459   3.074  -0.968  0.00  0.00    +0.000 A 
ATOM     20  C   LIG    1       -4.642   1.728  -1.164  0.00  0.00    +0.006 A 
ENDBRANCH  14  15
BRANCH  14  21
ATOM     21  N   LIG    1       -5.643  -0.970  -1.025  0.00  0.00    -0.295 N 
ATOM     22  C   LIG    1       -6.823  -1.224  -0.260  0.00  0.00    +0.266 C 
ATOM     23  O   LIG    1       -6.699  -1.153   0.987  0.00  0.00    -0.268 OA
ATOM     24  H   LIG    1       -5.683  -0.999  -2.080  0.00  0.00    +0.150 HD
BRANCH  22  25
ATOM     25  C   LIG    1       -8.080  -1.544  -0.918  0.00  0.00    +0.157 A 
ATOM     26  CA  LIG    1       -9.342  -1.507  -0.421  0.00  0.00    +0.156 A 
ATOM     27  N   LIG    1      -10.216  -1.957  -1.379  0.00  0.00    -0.339 N 
ATOM     28  H   LIG    1      -11.263  -2.036  -1.274  0.00  0.00    +0.167 HD
ATOM     29  C   LIG    1       -9.490  -2.264  -2.456  0.00  0.00    +0.197 A 
ATOM     30  N   LIG    1       -8.195  -2.025  -2.212  0.00  0.00    -0.230 NA
BRANCH  26  31
ATOM     31  C   LIG    1       -9.803  -1.049   0.907  0.00  0.00    +0.356 C 
ATOM     32  O   LIG    1      -11.046  -1.084   1.161  0.00  0.00    -0.243 OA
BRANCH  31  33
ATOM     33  OXT LIG    1       -8.980  -0.593   1.885  0.00  0.00    -0.476 OA
ATOM     34  HXT LIG    1       -9.236  -0.442   2.842  0.00  0.00    +0.295 HD
ENDBRANCH  31  33
ENDBRANCH  26  31
ENDBRANCH  22  25
ENDBRANCH  14  21
ENDBRANCH  12  14
ENDBRANCH   6  10
BRANCH   1  35
ATOM     35  C   LIG    1        3.611  -1.473  -0.437  0.00  0.00    +0.351 C 
ATOM     36  O   LIG    1        3.506  -2.587  -1.066  0.00  0.00    -0.244 OA
BRANCH  35  37
ATOM     37  OXT LIG    1        4.883  -1.196  -0.086  0.00  0.00    -0.476 OA
ATOM     38  HXT LIG    1        5.681  -1.801  -0.064  0.00  0.00    +0.295 HD
ENDBRANCH  35  37
ENDBRANCH   1  35
BRANCH   2  39
ATOM     39  C   LIG    1        3.451   1.232   1.086  0.00  0.00    +0.143 C 
BRANCH  39  40
ATOM     40  N   LIG    1        4.825   1.067   1.217  0.00  0.00    -0.309 N 
ATOM     41  C   LIG    1        5.402   0.413   2.262  0.00  0.00    +0.072 C 
ATOM     42  C   LIG    1        6.763   0.313   2.425  0.00  0.00    +0.000 C 
ATOM     43  C   LIG    1        7.609   0.887   1.509  0.00  0.00    +0.024 C 
ATOM     44  C   LIG    1        7.022   1.547   0.451  0.00  0.00    +0.000 C 
ATOM     45  C   LIG    1        5.661   1.637   0.305  0.00  0.00    +0.072 C 
BRANCH  43  46
ATOM     46  C   LIG    1        9.074   0.807   1.637  0.00  0.00    +0.041 C 
BRANCH  46  47
ATOM     47  C   LIG    1        9.693  -0.379   0.949  0.00  0.00    +0.202 C 
BRANCH  47  48
ATOM     48  S   LIG    1        9.367  -0.382  -0.806  0.00  0.00    +0.110 S 
ATOM     49  O   LIG    1        7.926  -0.584  -1.091  0.00  0.00    -0.048 OA
ATOM     50  O   LIG    1       10.155  -1.533  -1.394  0.00  0.00    -0.145 OA
ATOM     51  O   LIG    1        9.998   1.030  -1.446  0.00  0.00    -0.145 OA
ENDBRANCH  47  48
ENDBRANCH  46  47
ENDBRANCH  43  46
ENDBRANCH  39  40
ENDBRANCH   2  39
TORSDOF 14
