REMARK  Name = molecules/LOHNHQLZFYCAEQ-UHFFFAOYSA-N.pdb
REMARK                            x       y       z     vdW  Elec       q    Type
REMARK                         _______ _______ _______ _____ _____    ______ ____
ROOT
ATOM      1  N   LIG    1       -3.096  -0.690   0.218  0.00  0.00    -0.313 N 
ATOM      2  C   LIG    1       -3.860   0.496   0.424  0.00  0.00    +0.045 A 
ATOM      3  C   LIG    1       -3.332   1.504   1.220  0.00  0.00    +0.036 A 
ATOM      4  C   LIG    1       -4.018   2.695   1.456  0.00  0.00    +0.057 A 
ATOM      5  C   LIG    1       -5.252   2.901   0.895  0.00  0.00    +0.013 A 
ATOM      6  C   LIG    1       -5.766   1.909   0.113  0.00  0.00    +0.017 A 
ATOM      7  C   LIG    1       -5.088   0.752  -0.109  0.00  0.00    +0.034 A 
ATOM      8  S   LIG    1       -5.882  -0.437  -1.157  0.00  0.00    -0.089 S 
ATOM      9  C   LIG    1       -4.747  -1.812  -1.270  0.00  0.00    +0.020 C 
ATOM     10  C   LIG    1       -5.173  -2.855  -2.047  0.00  0.00    +0.013 C 
ATOM     11  C   LIG    1       -4.352  -3.958  -2.175  0.00  0.00    +0.001 C 
ATOM     12  C   LIG    1       -3.143  -3.966  -1.519  0.00  0.00    -0.002 C 
ATOM     13  C   LIG    1       -2.717  -2.910  -0.735  0.00  0.00    +0.007 C 
ATOM     14  C   LIG    1       -3.535  -1.787  -0.595  0.00  0.00    +0.115 C 
ENDROOT
BRANCH   4  15
ATOM     15  C   LIG    1       -3.405   3.751   2.317  0.00  0.00    +0.417 C 
ATOM     16  F   LIG    1       -3.268   3.261   3.619  0.00  0.00    -0.166 F 
ATOM     17  F   LIG    1       -4.231   4.862   2.305  0.00  0.00    -0.166 F 
ATOM     18  F   LIG    1       -2.184   4.175   1.815  0.00  0.00    -0.166 F 
ENDBRANCH   4  15
BRANCH   1  19
ATOM     19  C   LIG    1       -1.783  -0.838   0.813  0.00  0.00    +0.108 C 
BRANCH  19  20
ATOM     20  C   LIG    1       -0.674  -0.628  -0.196  0.00  0.00    +0.034 C 
BRANCH  20  21
ATOM     21  C   LIG    1        0.624  -0.866   0.529  0.00  0.00    +0.086 C 
BRANCH  21  25
ATOM     22  N   LIG    1        4.450   0.942  -0.486  0.00  0.00    -0.299 NA
ATOM     23  C   LIG    1        3.164   1.353  -0.050  0.00  0.00    +0.100 C 
ATOM     24  C   LIG    1        1.995   0.636  -0.672  0.00  0.00    +0.099 C 
ATOM     25  N   LIG    1        1.808  -0.715  -0.252  0.00  0.00    -0.301 NA
ATOM     26  C   LIG    1        2.912  -1.185   0.584  0.00  0.00    +0.085 C 
ATOM     27  C   LIG    1        4.136  -1.478  -0.246  0.00  0.00    +0.031 C 
ATOM     28  C   LIG    1        4.474  -0.326  -1.169  0.00  0.00    +0.086 C 
BRANCH  22  29
ATOM     29  C   LIG    1        5.467   1.057   0.539  0.00  0.00    +0.112 C 
BRANCH  29  30
ATOM     30  C   LIG    1        6.864   1.112  -0.028  0.00  0.00    +0.171 C 
BRANCH  30  31
ATOM     31  O   LIG    1        7.041   2.213  -0.889  0.00  0.00    -0.394 OA
ATOM     32  H   LIG    1        7.204   1.810  -1.800  0.00  0.00    +0.209 HD
ENDBRANCH  30  31
ENDBRANCH  29  30
ENDBRANCH  22  29
ENDBRANCH  21  25
ENDBRANCH  20  21
ENDBRANCH  19  20
ENDBRANCH   1  19
TORSDOF 8
