REMARK  Name = molecules/LOMDVEFCNVDZMZ-UHFFFAOYSA-N.pdb
REMARK                            x       y       z     vdW  Elec       q    Type
REMARK                         _______ _______ _______ _____ _____    ______ ____
ROOT
ATOM      1  C   LIG    1       -0.183  -0.001  -0.035  0.00  0.00    +0.050 C 
ENDROOT
BRANCH   1   2
ATOM      2  C   LIG    1        0.313  -0.918  -1.096  0.00  0.00    +0.217 C 
ATOM      3  N   LIG    1        0.597  -2.273  -0.806  0.00  0.00    -0.329 N 
ATOM      4  H   LIG    1        1.122  -2.582   0.041  0.00  0.00    +0.145 HD
ATOM      5  H   LIG    1        0.264  -3.002  -1.472  0.00  0.00    +0.145 HD
ATOM      6  O   LIG    1        0.494  -0.522  -2.277  0.00  0.00    -0.275 OA
ENDBRANCH   1   2
BRANCH   1   8
ATOM      7  C   LIG    1       -0.857   2.409   0.272  0.00  0.00    +0.005 C 
ATOM      8  C   LIG    1       -0.389   1.343  -0.636  0.00  0.00    +0.013 C 
ENDBRANCH   1   8
BRANCH   1   9
ATOM      9  C   LIG    1       -1.391  -0.623   0.581  0.00  0.00    +0.013 C 
ATOM     10  C   LIG    1       -2.521  -0.825  -0.399  0.00  0.00    +0.005 C 
ENDBRANCH   1   9
BRANCH   1  11
ATOM     11  C   LIG    1        0.902   0.051   1.030  0.00  0.00    +0.042 C 
BRANCH  11  12
ATOM     12  C   LIG    1        2.192   0.497   0.472  0.00  0.00    -0.033 C 
ATOM     13  C   LIG    1        3.244  -0.289   0.540  0.00  0.00    +0.004 C 
ENDBRANCH  11  12
ENDBRANCH   1  11
TORSDOF 5
