REMARK  Name = molecules/LOVMMUBRQUFEAH-UIEAZXIASA-N.pdb
REMARK                            x       y       z     vdW  Elec       q    Type
REMARK                         _______ _______ _______ _____ _____    ______ ____
ROOT
ATOM      1  C   LIG    1       -1.646   0.142   0.540  0.00  0.00    +0.024 C 
ATOM      2  C   LIG    1       -2.619  -0.306   1.563  0.00  0.00    +0.120 C 
ATOM      3  C   LIG    1       -2.397  -1.802   1.723  0.00  0.00    +0.063 C 
ATOM      4  C   LIG    1       -1.146  -2.124   0.971  0.00  0.00    +0.121 C 
ATOM      5  C   LIG    1       -0.440  -0.822   0.723  0.00  0.00    +0.027 C 
ENDROOT
BRANCH   2   6
ATOM      6  O   LIG    1       -2.426   0.343   2.802  0.00  0.00    -0.391 OA
ATOM      7  H   LIG    1       -2.705   1.280   2.679  0.00  0.00    +0.210 HD
ENDBRANCH   2   6
BRANCH   4   8
ATOM      8  O   LIG    1       -0.369  -2.979   1.772  0.00  0.00    -0.391 OA
ATOM      9  H   LIG    1       -0.898  -3.744   2.093  0.00  0.00    +0.210 HD
ENDBRANCH   4   8
BRANCH   5  10
ATOM     10  C   LIG    1        0.393  -0.475   1.914  0.00  0.00    +0.033 C 
BRANCH  10  11
ATOM     11  C   LIG    1        0.979   0.872   1.861  0.00  0.00    -0.031 C 
ATOM     12  C   LIG    1        2.267   1.104   1.878  0.00  0.00    -0.031 C 
BRANCH  12  13
ATOM     13  C   LIG    1        3.307   0.071   1.951  0.00  0.00    +0.027 C 
BRANCH  13  14
ATOM     14  C   LIG    1        4.168   0.217   3.180  0.00  0.00    +0.015 C 
BRANCH  14  15
ATOM     15  C   LIG    1        5.208  -0.846   3.241  0.00  0.00    +0.121 C 
BRANCH  15  16
ATOM     16  C   LIG    1        6.145  -0.759   2.103  0.00  0.00    +0.307 C 
ATOM     17  O   LIG    1        7.035  -1.685   1.972  0.00  0.00    -0.251 OA
BRANCH  16  18
ATOM     18  O   LIG    1        6.190   0.211   1.141  0.00  0.00    -0.465 OA
BRANCH  18  19
ATOM     19  C   LIG    1        7.129   0.245   0.057  0.00  0.00    +0.232 C 
BRANCH  19  20
ATOM     20  C   LIG    1        7.041  -0.945  -0.836  0.00  0.00    +0.044 C 
BRANCH  20  21
ATOM     21  C   LIG    1        8.060  -0.887  -1.921  0.00  0.00    +0.047 C 
BRANCH  21  22
ATOM     22  C   LIG    1        7.971   0.272  -2.860  0.00  0.00    +0.267 C 
BRANCH  22  23
ATOM     23  O   LIG    1        8.122   1.528  -2.282  0.00  0.00    -0.352 OA
BRANCH  23  24
ATOM     24  N   LIG    1        8.065   2.677  -3.007  0.00  0.00    +0.217 N 
ATOM     25  O   LIG    1        8.070   3.916  -2.431  0.00  0.00    -0.090 OA
ATOM     26  O   LIG    1        8.001   2.646  -4.272  0.00  0.00    -0.090 OA
ENDBRANCH  23  24
ENDBRANCH  22  23
ENDBRANCH  21  22
ENDBRANCH  20  21
ENDBRANCH  19  20
ENDBRANCH  18  19
ENDBRANCH  16  18
ENDBRANCH  15  16
ENDBRANCH  14  15
ENDBRANCH  13  14
ENDBRANCH  12  13
ENDBRANCH  10  11
ENDBRANCH   5  10
BRANCH   1  27
ATOM     27  C   LIG    1       -2.103  -0.094  -0.851  0.00  0.00    +0.009 C 
BRANCH  27  28
ATOM     28  C   LIG    1       -3.197   0.660  -1.444  0.00  0.00    +0.032 C 
BRANCH  28  29
ATOM     29  C   LIG    1       -4.581   0.606  -0.944  0.00  0.00    +0.115 C 
BRANCH  29  30
ATOM     30  O   LIG    1       -5.346   1.360  -1.911  0.00  0.00    -0.392 OA
ATOM     31  H   LIG    1       -4.819   2.191  -2.128  0.00  0.00    +0.210 HD
ENDBRANCH  29  30
BRANCH  29  32
ATOM     32  C   LIG    1       -5.202  -0.760  -0.982  0.00  0.00    +0.036 C 
BRANCH  32  33
ATOM     33  C   LIG    1       -6.636  -0.719  -0.569  0.00  0.00    +0.037 C 
BRANCH  33  34
ATOM     34  C   LIG    1       -7.472   0.139  -1.416  0.00  0.00    -0.047 A 
ATOM     35  C   LIG    1       -7.815   1.451  -1.101  0.00  0.00    +0.003 A 
ATOM     36  C   LIG    1       -8.598   2.199  -1.937  0.00  0.00    +0.000 A 
ATOM     37  C   LIG    1       -9.073   1.677  -3.116  0.00  0.00    +0.000 A 
ATOM     38  C   LIG    1       -8.756   0.367  -3.472  0.00  0.00    +0.000 A 
ATOM     39  C   LIG    1       -7.965  -0.363  -2.612  0.00  0.00    +0.003 A 
ENDBRANCH  33  34
ENDBRANCH  32  33
ENDBRANCH  29  32
ENDBRANCH  28  29
ENDBRANCH  27  28
ENDBRANCH   1  27
TORSDOF 22
