REMARK  Name = molecules/LOXCOAXRHYDLOW-LJQANCHMSA-N.pdb
REMARK                            x       y       z     vdW  Elec       q    Type
REMARK                         _______ _______ _______ _____ _____    ______ ____
ROOT
ATOM      1  C   LIG    1       -0.917   0.572  -0.090  0.00  0.00    +0.080 C 
ENDROOT
BRANCH   1   2
ATOM      2  C   LIG    1       -0.746  -0.238   1.115  0.00  0.00    -0.030 A 
ATOM      3  C   LIG    1       -0.891   0.305   2.404  0.00  0.00    +0.005 A 
ATOM      4  C   LIG    1       -0.714  -0.453   3.534  0.00  0.00    +0.000 A 
ATOM      5  C   LIG    1       -0.386  -1.784   3.453  0.00  0.00    +0.000 A 
ATOM      6  C   LIG    1       -0.240  -2.334   2.223  0.00  0.00    +0.000 A 
ATOM      7  C   LIG    1       -0.421  -1.557   1.077  0.00  0.00    +0.005 A 
ENDBRANCH   1   2
BRANCH   1   8
ATOM      8  C   LIG    1       -1.747   1.768   0.390  0.00  0.00    -0.030 A 
ATOM      9  C   LIG    1       -3.039   1.458   0.714  0.00  0.00    +0.005 A 
ATOM     10  C   LIG    1       -3.885   2.435   1.160  0.00  0.00    +0.000 A 
ATOM     11  C   LIG    1       -3.459   3.744   1.292  0.00  0.00    +0.000 A 
ATOM     12  C   LIG    1       -2.156   4.031   0.960  0.00  0.00    +0.000 A 
ATOM     13  C   LIG    1       -1.275   3.033   0.500  0.00  0.00    +0.005 A 
ENDBRANCH   1   8
BRANCH   1  14
ATOM     14  C   LIG    1       -1.768  -0.004  -1.154  0.00  0.00    +0.148 C 
ATOM     15  O   LIG    1       -2.726   0.691  -1.580  0.00  0.00    -0.296 OA
BRANCH  14  16
ATOM     16  C   LIG    1       -1.662  -1.308  -1.811  0.00  0.00    +0.072 C 
ATOM     17  C   LIG    1       -2.622  -1.404  -3.024  0.00  0.00    +0.012 C 
ENDBRANCH  14  16
ENDBRANCH   1  14
BRANCH   1  18
ATOM     18  C   LIG    1        0.322   1.216  -0.599  0.00  0.00    +0.042 C 
BRANCH  18  19
ATOM     19  C   LIG    1        1.298   0.415  -1.360  0.00  0.00    +0.055 C 
ATOM     20  C   LIG    1        2.479   1.344  -1.758  0.00  0.00    +0.024 C 
BRANCH  19  21
ATOM     21  N   LIG    1        1.928  -0.665  -0.644  0.00  0.00    -0.295 NA
ATOM     22  C   LIG    1        2.719  -0.295   0.462  0.00  0.00    +0.113 C 
ATOM     23  C   LIG    1        3.561  -1.476   0.938  0.00  0.00    +0.175 C 
ATOM     24  O   LIG    1        4.378  -1.802  -0.143  0.00  0.00    -0.377 OA
ATOM     25  C   LIG    1        3.598  -2.431  -1.091  0.00  0.00    +0.175 C 
ATOM     26  C   LIG    1        2.361  -1.714  -1.472  0.00  0.00    +0.113 C 
ENDBRANCH  19  21
ENDBRANCH  18  19
ENDBRANCH   1  18
TORSDOF 7
