REMARK  Name = molecules/LPEPZBJOKDYZAD-UHFFFAOYSA-N.pdb
REMARK                            x       y       z     vdW  Elec       q    Type
REMARK                         _______ _______ _______ _____ _____    ______ ____
ROOT
ATOM      1  N   LIG    1       -0.384   0.412  -1.210  0.00  0.00    -0.314 N 
ATOM      2  H   LIG    1       -0.552   0.884  -2.117  0.00  0.00    +0.152 HD
ENDROOT
BRANCH   1   3
ATOM      3  C   LIG    1       -1.371   0.122  -0.236  0.00  0.00    +0.045 A 
ATOM      4  C   LIG    1       -1.101  -0.886   0.707  0.00  0.00    +0.024 A 
ATOM      5  C   LIG    1       -2.050  -1.261   1.629  0.00  0.00    +0.002 A 
ATOM      6  C   LIG    1       -3.297  -0.680   1.678  0.00  0.00    +0.001 A 
ATOM      7  C   LIG    1       -3.576   0.297   0.772  0.00  0.00    +0.017 A 
ATOM      8  C   LIG    1       -2.618   0.699  -0.183  0.00  0.00    +0.080 A 
BRANCH   8   9
ATOM      9  C   LIG    1       -2.967   1.768  -1.097  0.00  0.00    +0.339 C 
ATOM     10  O   LIG    1       -2.172   2.199  -1.936  0.00  0.00    -0.245 OA
BRANCH   9  11
ATOM     11  O   LIG    1       -4.255   2.358  -1.048  0.00  0.00    -0.477 OA
ATOM     12  H   LIG    1       -4.331   3.343  -0.847  0.00  0.00    +0.295 HD
ENDBRANCH   9  11
ENDBRANCH   8   9
ENDBRANCH   1   3
BRANCH   1  13
ATOM     13  C   LIG    1        0.965   0.021  -0.976  0.00  0.00    +0.032 A 
ATOM     14  C   LIG    1        1.614   0.121   0.232  0.00  0.00    +0.035 A 
ATOM     15  C   LIG    1        2.907  -0.292   0.407  0.00  0.00    +0.057 A 
ATOM     16  C   LIG    1        3.567  -0.826  -0.679  0.00  0.00    +0.012 A 
ATOM     17  C   LIG    1        2.931  -0.938  -1.916  0.00  0.00    +0.002 A 
ATOM     18  C   LIG    1        1.636  -0.519  -2.071  0.00  0.00    +0.023 A 
BRANCH  15  19
ATOM     19  C   LIG    1        3.608  -0.185   1.708  0.00  0.00    +0.417 C 
ATOM     20  F   LIG    1        2.711  -0.188   2.745  0.00  0.00    -0.166 F 
ATOM     21  F   LIG    1        4.527  -1.212   1.830  0.00  0.00    -0.166 F 
ATOM     22  F   LIG    1        4.341   0.991   1.666  0.00  0.00    -0.166 F 
ENDBRANCH  15  19
ENDBRANCH   1  13
TORSDOF 5
