REMARK  Name = molecules/LPQZKKCYTLCDGQ-WEDXCCLWSA-N.pdb
REMARK                            x       y       z     vdW  Elec       q    Type
REMARK                         _______ _______ _______ _____ _____    ______ ____
ROOT
ATOM      1  N   LIG    1       -2.163   0.199  -0.234  0.00  0.00    -0.263 N 
ATOM      2  C   LIG    1       -1.849  -0.403   1.056  0.00  0.00    +0.229 C 
ATOM      3  C   LIG    1       -3.024  -1.315   0.977  0.00  0.00    +0.142 C 
ATOM      4  S   LIG    1       -0.276  -1.151   0.577  0.00  0.00    -0.002 S 
ATOM      5  O   LIG    1        0.591  -1.422   1.738  0.00  0.00    -0.172 OA
ATOM      6  O   LIG    1       -0.519  -2.324  -0.320  0.00  0.00    -0.172 OA
ATOM      7  C   LIG    1        0.222   0.306  -0.339  0.00  0.00    +0.135 C 
ATOM      8  C   LIG    1        0.762   1.253   0.753  0.00  0.00    +0.040 C 
ATOM      9  C   LIG    1       -3.482  -0.268  -0.002  0.00  0.00    +0.221 C 
ATOM     10  O   LIG    1       -4.651  -0.004  -0.389  0.00  0.00    -0.275 OA
ATOM     11  C   LIG    1       -1.071   0.812  -0.862  0.00  0.00    +0.215 C 
ENDROOT
BRANCH  11  12
ATOM     12  C   LIG    1       -1.074   2.308  -0.683  0.00  0.00    +0.328 C 
ATOM     13  O   LIG    1       -0.134   2.942  -1.211  0.00  0.00    -0.249 OA
BRANCH  12  14
ATOM     14  O   LIG    1       -2.049   2.971   0.020  0.00  0.00    -0.479 OA
ATOM     15  H   LIG    1       -2.215   3.948  -0.166  0.00  0.00    +0.295 HD
ENDBRANCH  12  14
ENDBRANCH  11  12
BRANCH   7  16
ATOM     16  C   LIG    1        1.273   0.031  -1.362  0.00  0.00    +0.177 C 
BRANCH  16  17
ATOM     17  N   LIG    1        2.465  -0.492  -0.701  0.00  0.00    -0.250 N 
ATOM     18  N   LIG    1        3.476   0.230  -0.211  0.00  0.00    -0.066 NA
ATOM     19  N   LIG    1        4.394  -0.569   0.327  0.00  0.00    -0.138 NA
ATOM     20  C   LIG    1        3.997  -1.845   0.200  0.00  0.00    +0.156 A 
ATOM     21  C   LIG    1        2.773  -1.776  -0.454  0.00  0.00    +0.130 A 
ENDBRANCH  16  17
ENDBRANCH   7  16
TORSDOF 4
