REMARK  Name = molecules/LQBVNQSMGBZMKD-UHFFFAOYSA-N.pdb
REMARK                            x       y       z     vdW  Elec       q    Type
REMARK                         _______ _______ _______ _____ _____    ______ ____
ROOT
ATOM      1  C   LIG    1        1.536  -0.247  -0.028  0.00  0.00    +0.018 A 
ATOM      2  C   LIG    1        1.735  -1.635   0.106  0.00  0.00    +0.080 A 
ATOM      3  C   LIG    1        0.634  -2.456  -0.017  0.00  0.00    +0.142 A 
ATOM      4  C   LIG    1       -0.653  -1.839  -0.271  0.00  0.00    +0.070 A 
ATOM      5  C   LIG    1       -0.801  -0.504  -0.392  0.00  0.00    +0.033 A 
ATOM      6  C   LIG    1        0.309   0.283  -0.268  0.00  0.00    +0.024 A 
ENDROOT
BRANCH   5   7
ATOM      7  N   LIG    1       -2.078   0.075  -0.650  0.00  0.00    -0.327 N 
ATOM      8  C   LIG    1       -3.241  -0.765  -0.451  0.00  0.00    +0.120 C 
ATOM      9  C   LIG    1       -4.411   0.157  -0.046  0.00  0.00    +0.103 C 
ATOM     10  N   LIG    1       -4.703   1.025  -1.111  0.00  0.00    -0.295 NA
ATOM     11  C   LIG    1       -3.600   1.536  -1.839  0.00  0.00    +0.103 C 
ATOM     12  C   LIG    1       -2.288   1.436  -1.081  0.00  0.00    +0.120 C 
BRANCH  10  13
ATOM     13  C   LIG    1       -5.937   1.676  -1.205  0.00  0.00    +0.115 C 
BRANCH  13  14
ATOM     14  C   LIG    1       -7.061   1.181  -0.428  0.00  0.00    -0.052 C 
ATOM     15  C   LIG    1       -7.654   1.920   0.483  0.00  0.00    -0.039 C 
ATOM     16  C   LIG    1       -8.814   1.304   1.223  0.00  0.00    +0.042 C 
ATOM     17  C   LIG    1       -9.731   0.529   0.340  0.00  0.00    -0.031 C 
ATOM     18  C   LIG    1      -10.181  -0.717   1.116  0.00  0.00    +0.011 C 
ATOM     19  C   LIG    1      -11.001   1.262  -0.027  0.00  0.00    +0.011 C 
ATOM     20  C   LIG    1       -9.106   0.049  -0.950  0.00  0.00    +0.011 C 
ATOM     21  C   LIG    1       -7.612  -0.176  -0.627  0.00  0.00    +0.033 C 
BRANCH  15  22
ATOM     22  C   LIG    1       -7.263   3.266   0.866  0.00  0.00    -0.022 A 
ATOM     23  C   LIG    1       -5.987   3.668   1.121  0.00  0.00    +0.009 A 
ATOM     24  C   LIG    1       -5.724   4.973   1.455  0.00  0.00    +0.020 A 
ATOM     25  C   LIG    1       -6.731   5.922   1.545  0.00  0.00    +0.041 A 
ATOM     26 CL   LIG    1       -6.438   7.588   1.966  0.00  0.00    -0.084 Cl
ATOM     27  C   LIG    1       -8.020   5.527   1.291  0.00  0.00    +0.020 A 
ATOM     28  C   LIG    1       -8.275   4.218   0.957  0.00  0.00    +0.009 A 
ENDBRANCH  15  22
ENDBRANCH  13  14
ENDBRANCH  10  13
ENDBRANCH   5   7
BRANCH   2  29
ATOM     29  C   LIG    1        3.071  -2.081   0.428  0.00  0.00    +0.267 C 
ATOM     30  N   LIG    1        3.538  -3.362   0.724  0.00  0.00    -0.181 N 
ATOM     31  H   LIG    1        2.922  -4.179   0.773  0.00  0.00    +0.177 HD
ATOM     32  O   LIG    1        3.979  -1.168   0.445  0.00  0.00    -0.268 OA
BRANCH  30  33
ATOM     33  S   LIG    1        5.238  -3.605   1.059  0.00  0.00    +0.075 S 
ATOM     34  O   LIG    1        5.334  -4.096   2.463  0.00  0.00    -0.150 OA
ATOM     35  O   LIG    1        5.816  -4.636   0.160  0.00  0.00    -0.150 OA
BRANCH  33  36
ATOM     36  C   LIG    1        6.132  -2.117   0.862  0.00  0.00    +0.111 A 
ATOM     37  C   LIG    1        6.349  -1.241   1.893  0.00  0.00    +0.063 A 
ATOM     38  C   LIG    1        7.087  -0.057   1.723  0.00  0.00    +0.149 A 
ATOM     39  C   LIG    1        7.622   0.276   0.514  0.00  0.00    +0.058 A 
ATOM     40  C   LIG    1        7.383  -0.640  -0.526  0.00  0.00    +0.027 A 
ATOM     41  C   LIG    1        6.675  -1.790  -0.383  0.00  0.00    +0.031 A 
BRANCH  38  42
ATOM     42  N   LIG    1        7.265   0.801   2.846  0.00  0.00    +0.058 N 
ATOM     43  O   LIG    1        6.228   0.865   3.790  0.00  0.00    -0.126 OA
ATOM     44  O   LIG    1        8.295   1.435   2.996  0.00  0.00    -0.126 OA
ENDBRANCH  38  42
BRANCH  39  45
ATOM     45  N   LIG    1        8.363   1.438   0.240  0.00  0.00    -0.342 N 
ATOM     46  H   LIG    1        8.551   2.148   0.951  0.00  0.00    +0.146 HD
BRANCH  45  47
ATOM     47  C   LIG    1        8.889   1.673  -1.089  0.00  0.00    +0.105 C 
BRANCH  47  48
ATOM     48  C   LIG    1        9.702   2.943  -1.157  0.00  0.00    +0.010 C 
ATOM     49  C   LIG    1       10.892   2.884  -0.204  0.00  0.00    +0.033 C 
ATOM     50  C   LIG    1       11.676   4.163  -0.392  0.00  0.00    +0.160 C 
ATOM     51  O   LIG    1       11.114   4.968  -1.375  0.00  0.00    -0.380 OA
ATOM     52  C   LIG    1        9.828   5.370  -1.062  0.00  0.00    +0.160 C 
ATOM     53  C   LIG    1        8.924   4.174  -0.770  0.00  0.00    +0.033 C 
ENDBRANCH  47  48
ENDBRANCH  45  47
ENDBRANCH  39  45
ENDBRANCH  33  36
ENDBRANCH  30  33
ENDBRANCH   2  29
BRANCH   3  54
ATOM     54  O   LIG    1        0.628  -3.750   0.067  0.00  0.00    -0.454 OA
BRANCH  54  55
ATOM     55  C   LIG    1        0.623  -5.015   0.148  0.00  0.00    +0.147 A 
ATOM     56  C   LIG    1       -0.048  -5.681   1.188  0.00  0.00    +0.159 A 
ATOM     57  N   LIG    1       -0.051  -7.005   1.270  0.00  0.00    -0.234 NA
ATOM     58  C   LIG    1        0.567  -7.787   0.391  0.00  0.00    +0.138 A 
ATOM     59  N   LIG    1        0.685  -9.119   0.291  0.00  0.00    -0.346 N 
ATOM     60  H   LIG    1        0.285  -9.825   0.928  0.00  0.00    +0.167 HD
ATOM     61  C   LIG    1        1.418  -9.448  -0.784  0.00  0.00    +0.085 A 
ATOM     62  C   LIG    1        1.783  -8.263  -1.397  0.00  0.00    +0.029 A 
ATOM     63  C   LIG    1        1.244  -7.210  -0.653  0.00  0.00    +0.022 A 
ATOM     64  C   LIG    1        1.271  -5.851  -0.771  0.00  0.00    +0.059 A 
ENDBRANCH  54  55
ENDBRANCH   3  54
TORSDOF 13
