REMARK  Name = molecules/LQCLVBQBTUVCEQ-QTFUVMRISA-N.pdb
REMARK                            x       y       z     vdW  Elec       q    Type
REMARK                         _______ _______ _______ _____ _____    ______ ____
ROOT
ATOM      1  O   LIG    1       -3.011  -3.481   3.709  0.00  0.00    -0.294 OA
ATOM      2  C   LIG    1       -2.704  -3.785   2.553  0.00  0.00    +0.173 C 
ATOM      3  C   LIG    1       -1.255  -3.558   2.262  0.00  0.00    +0.151 C 
ATOM      4  C   LIG    1       -0.368  -4.665   2.493  0.00  0.00    +0.204 C 
ATOM      5  C   LIG    1       -0.910  -2.102   2.464  0.00  0.00    +0.051 C 
ATOM      6  C   LIG    1        0.543  -1.773   2.535  0.00  0.00    +0.018 C 
ATOM      7  C   LIG    1        0.863  -1.242   3.895  0.00  0.00    +0.010 C 
ATOM      8  C   LIG    1        0.842  -0.790   1.401  0.00  0.00    +0.130 C 
ATOM      9  C   LIG    1        0.319   0.547   1.756  0.00  0.00    +0.045 C 
ATOM     10  C   LIG    1        1.488   1.542   1.865  0.00  0.00    +0.013 C 
ATOM     11  C   LIG    1       -0.724   1.113   0.799  0.00  0.00    +0.140 C 
ATOM     12  C   LIG    1       -2.053   1.233   1.526  0.00  0.00    +0.124 C 
ATOM     13  C   LIG    1       -2.177   2.647   2.094  0.00  0.00    +0.022 C 
ATOM     14  C   LIG    1       -3.221   0.894   0.687  0.00  0.00    +0.313 C 
ATOM     15  O   LIG    1       -4.261   1.628   0.951  0.00  0.00    -0.250 OA
ATOM     16  O   LIG    1       -3.378  -0.011  -0.271  0.00  0.00    -0.461 OA
ATOM     17  C   LIG    1       -3.342  -1.332  -0.539  0.00  0.00    +0.180 C 
ATOM     18  C   LIG    1       -4.252  -2.202   0.316  0.00  0.00    +0.068 C 
ATOM     19  C   LIG    1       -4.502  -1.590   1.644  0.00  0.00    +0.015 C 
ATOM     20  C   LIG    1       -3.891  -3.635   0.319  0.00  0.00    +0.193 C 
ATOM     21  C   LIG    1       -3.623  -1.629  -2.029  0.00  0.00    +0.052 C 
ATOM     22  O   LIG    1       -0.699  -4.233   1.160  0.00  0.00    -0.360 OA
ATOM     23  C   LIG    1       -3.715  -4.300   1.653  0.00  0.00    +0.096 C 
ATOM     24  C   LIG    1       -3.313  -5.753   1.314  0.00  0.00    +0.019 C 
ENDROOT
BRANCH  20  25
ATOM     25  O   LIG    1       -4.902  -4.412  -0.358  0.00  0.00    -0.460 OA
BRANCH  25  26
ATOM     26  C   LIG    1       -4.663  -5.210  -1.447  0.00  0.00    +0.304 C 
ATOM     27  O   LIG    1       -3.506  -5.296  -1.909  0.00  0.00    -0.251 OA
ATOM     28  C   LIG    1       -5.732  -5.998  -2.127  0.00  0.00    +0.136 C 
ENDBRANCH  25  26
ENDBRANCH  20  25
BRANCH  11  29
ATOM     29  O   LIG    1       -0.345   2.434   0.500  0.00  0.00    -0.347 OA
BRANCH  29  30
ATOM     30  C   LIG    1       -0.121   2.687  -0.823  0.00  0.00    +0.254 C 
ATOM     31  O   LIG    1        1.143   3.194  -1.083  0.00  0.00    -0.345 OA
ATOM     32  C   LIG    1        1.318   4.463  -0.532  0.00  0.00    +0.161 C 
ATOM     33  C   LIG    1        2.760   4.841  -0.738  0.00  0.00    +0.042 C 
ATOM     34  C   LIG    1        0.464   5.398  -1.363  0.00  0.00    +0.233 C 
ATOM     35  C   LIG    1       -0.982   5.058  -0.979  0.00  0.00    +0.166 C 
ATOM     36  C   LIG    1       -1.211   3.622  -1.319  0.00  0.00    +0.096 C 
BRANCH  35  37
ATOM     37  O   LIG    1       -1.865   5.851  -1.669  0.00  0.00    -0.376 OA
ATOM     38  C   LIG    1       -2.619   6.651  -0.833  0.00  0.00    +0.194 C 
ENDBRANCH  35  37
BRANCH  34  39
ATOM     39  O   LIG    1        0.771   6.747  -1.186  0.00  0.00    -0.456 OA
BRANCH  39  40
ATOM     40  C   LIG    1        1.185   7.477  -2.309  0.00  0.00    +0.304 C 
ATOM     41  C   LIG    1        1.536   8.905  -2.248  0.00  0.00    +0.136 C 
ATOM     42  O   LIG    1        1.264   6.896  -3.423  0.00  0.00    -0.251 OA
ENDBRANCH  39  40
ENDBRANCH  34  39
ENDBRANCH  29  30
ENDBRANCH  11  29
BRANCH   8  43
ATOM     43  O   LIG    1        2.149  -0.841   1.009  0.00  0.00    -0.344 OA
BRANCH  43  44
ATOM     44  C   LIG    1        2.411  -1.497  -0.181  0.00  0.00    +0.293 C 
ATOM     45  O   LIG    1        3.181  -2.598   0.196  0.00  0.00    -0.345 OA
ATOM     46  C   LIG    1        3.914  -3.072  -0.838  0.00  0.00    +0.120 C 
ATOM     47  C   LIG    1        4.366  -4.509  -0.671  0.00  0.00    +0.038 C 
ATOM     48  C   LIG    1        5.141  -2.168  -0.954  0.00  0.00    +0.054 C 
ATOM     49  C   LIG    1        4.675  -0.709  -0.901  0.00  0.00    +0.104 C 
ATOM     50  C   LIG    1        3.179  -0.658  -1.145  0.00  0.00    +0.249 C 
BRANCH  49  51
ATOM     51  N   LIG    1        4.926  -0.223   0.432  0.00  0.00    -0.302 NA
ATOM     52  C   LIG    1        6.076  -0.734   1.089  0.00  0.00    +0.105 C 
ATOM     53  C   LIG    1        5.084   1.239   0.364  0.00  0.00    +0.105 C 
ENDBRANCH  49  51
BRANCH  50  54
ATOM     54  O   LIG    1        2.798  -0.999  -2.433  0.00  0.00    -0.455 OA
BRANCH  54  55
ATOM     55  C   LIG    1        2.212  -0.183  -3.343  0.00  0.00    +0.304 C 
ATOM     56  O   LIG    1        2.006   0.982  -2.974  0.00  0.00    -0.251 OA
ATOM     57  C   LIG    1        1.826  -0.607  -4.697  0.00  0.00    +0.136 C 
ENDBRANCH  54  55
ENDBRANCH  50  54
ENDBRANCH  43  44
ENDBRANCH   8  43
TORSDOF 12
