REMARK  Name = molecules/LQGIXNQCOXNCRP-UHFFFAOYSA-N.pdb
REMARK                            x       y       z     vdW  Elec       q    Type
REMARK                         _______ _______ _______ _____ _____    ______ ____
ROOT
ATOM      1  C   LIG    1       -0.854  -0.016   0.091  0.00  0.00    +0.119 C 
ENDROOT
BRANCH   1   2
ATOM      2  C   LIG    1       -1.595  -0.124   1.416  0.00  0.00    -0.026 A 
ATOM      3  C   LIG    1       -1.299  -1.244   2.173  0.00  0.00    +0.005 A 
ATOM      4  C   LIG    1       -1.902  -1.459   3.406  0.00  0.00    +0.000 A 
ATOM      5  C   LIG    1       -2.805  -0.502   3.832  0.00  0.00    +0.000 A 
ATOM      6  C   LIG    1       -3.093   0.619   3.061  0.00  0.00    +0.000 A 
ATOM      7  C   LIG    1       -2.484   0.814   1.838  0.00  0.00    +0.005 A 
ENDBRANCH   1   2
BRANCH   1   8
ATOM      8  C   LIG    1       -1.289  -1.203  -0.661  0.00  0.00    -0.026 A 
ATOM      9  C   LIG    1       -0.506  -2.301  -0.898  0.00  0.00    +0.005 A 
ATOM     10  C   LIG    1       -0.978  -3.381  -1.608  0.00  0.00    +0.000 A 
ATOM     11  C   LIG    1       -2.253  -3.406  -2.108  0.00  0.00    +0.000 A 
ATOM     12  C   LIG    1       -3.063  -2.336  -1.894  0.00  0.00    +0.000 A 
ATOM     13  C   LIG    1       -2.583  -1.250  -1.178  0.00  0.00    +0.005 A 
ENDBRANCH   1   8
BRANCH   1  14
ATOM     14  C   LIG    1       -1.253   1.212  -0.611  0.00  0.00    +0.322 C 
ATOM     15  O   LIG    1       -1.861   1.138  -1.698  0.00  0.00    -0.249 OA
BRANCH  14  16
ATOM     16  O   LIG    1       -0.985   2.488  -0.123  0.00  0.00    -0.464 OA
BRANCH  16  17
ATOM     17  C   LIG    1       -1.402   3.627  -0.850  0.00  0.00    +0.229 C 
ATOM     18  C   LIG    1       -2.885   3.701  -1.037  0.00  0.00    +0.048 C 
ENDBRANCH  16  17
ENDBRANCH  14  16
ENDBRANCH   1  14
BRANCH   1  19
ATOM     19  C   LIG    1        0.601   0.017   0.453  0.00  0.00    +0.043 C 
BRANCH  19  20
ATOM     20  C   LIG    1        1.541   0.188  -0.714  0.00  0.00    +0.086 C 
BRANCH  20  21
ATOM     21  N   LIG    1        2.907   0.199  -0.239  0.00  0.00    -0.298 NA
ATOM     22  C   LIG    1        3.398  -1.033   0.268  0.00  0.00    +0.112 C 
ATOM     23  C   LIG    1        4.759  -0.717   0.914  0.00  0.00    +0.175 C 
ATOM     24  O   LIG    1        5.608  -0.392  -0.133  0.00  0.00    -0.377 OA
ATOM     25  C   LIG    1        5.221   0.708  -0.863  0.00  0.00    +0.175 C 
ATOM     26  C   LIG    1        3.775   0.645  -1.306  0.00  0.00    +0.112 C 
ENDBRANCH  20  21
ENDBRANCH  19  20
ENDBRANCH   1  19
TORSDOF 8
