REMARK  Name = molecules/LQOLIRLGBULYKD-JKIFEVAISA-N.pdb
REMARK                            x       y       z     vdW  Elec       q    Type
REMARK                         _______ _______ _______ _____ _____    ______ ____
ROOT
ATOM      1  N   LIG    1        0.086  -0.795   0.705  0.00  0.00    -0.298 N 
ATOM      2  C   LIG    1        1.504  -0.741   0.743  0.00  0.00    +0.250 C 
ATOM      3  O   LIG    1        1.989  -0.356   1.833  0.00  0.00    -0.270 OA
ATOM      4  H   LIG    1       -0.364  -1.089  -0.185  0.00  0.00    +0.150 HD
ENDROOT
BRANCH   1   5
ATOM      5  CA  LIG    1       -0.761  -0.451   1.818  0.00  0.00    +0.190 C 
ATOM      6  C   LIG    1       -1.853  -1.442   2.056  0.00  0.00    +0.240 C 
ATOM      7  O   LIG    1       -1.873  -2.532   2.670  0.00  0.00    -0.273 OA
ATOM      8  N   LIG    1       -2.813  -0.671   1.330  0.00  0.00    -0.271 N 
ATOM      9  CA  LIG    1       -3.981  -0.272   0.585  0.00  0.00    +0.201 C 
ATOM     10  C   LIG    1       -3.521   0.376  -0.704  0.00  0.00    +0.042 C 
ATOM     11  S   LIG    1       -1.966   1.147  -0.169  0.00  0.00    -0.127 S 
ATOM     12  C   LIG    1       -4.502   1.397  -1.212  0.00  0.00    +0.025 C 
ATOM     13  C   LIG    1       -3.223  -0.682  -1.746  0.00  0.00    +0.025 C 
ATOM     14  C   LIG    1       -1.915   0.482   1.519  0.00  0.00    +0.165 C 
BRANCH   9  15
ATOM     15  C   LIG    1       -4.775   0.659   1.395  0.00  0.00    +0.327 C 
ATOM     16  OXT LIG    1       -4.474   1.035   2.534  0.00  0.00    -0.249 OA
BRANCH  15  17
ATOM     17  O   LIG    1       -5.964   1.171   0.858  0.00  0.00    -0.479 OA
ATOM     18  H   LIG    1       -6.271   2.123   1.093  0.00  0.00    +0.295 HD
ENDBRANCH  15  17
ENDBRANCH   9  15
ENDBRANCH   1   5
BRANCH   2  19
ATOM     19  C   LIG    1        2.303  -1.109  -0.414  0.00  0.00    +0.106 A 
ATOM     20  C   LIG    1        3.496  -0.564  -0.821  0.00  0.00    +0.127 A 
ATOM     21  N   LIG    1        3.876  -1.387  -1.865  0.00  0.00    -0.077 NA
ATOM     22  O   LIG    1        3.013  -2.304  -2.059  0.00  0.00    -0.359 OA
ATOM     23  C   LIG    1        2.016  -2.227  -1.232  0.00  0.00    +0.147 A 
ATOM     24  C   LIG    1        0.817  -3.073  -1.102  0.00  0.00    +0.090 C 
BRANCH  20  25
ATOM     25  C   LIG    1        4.268   0.559  -0.342  0.00  0.00    +0.023 A 
ATOM     26  C   LIG    1        3.800   1.597   0.405  0.00  0.00    +0.011 A 
ATOM     27  C   LIG    1        4.639   2.655   0.739  0.00  0.00    +0.001 A 
ATOM     28  C   LIG    1        5.953   2.716   0.345  0.00  0.00    +0.001 A 
ATOM     29  C   LIG    1        6.435   1.663  -0.418  0.00  0.00    +0.020 A 
ATOM     30  C   LIG    1        5.611   0.612  -0.752  0.00  0.00    +0.050 A 
ATOM     31 CL   LIG    1        6.314  -0.671  -1.721  0.00  0.00    -0.083 Cl
ENDBRANCH  20  25
ENDBRANCH   2  19
TORSDOF 5
