REMARK  Name = molecules/LQQIVYSCPWCSSD-HSZRJFAPSA-N.pdb
REMARK                            x       y       z     vdW  Elec       q    Type
REMARK                         _______ _______ _______ _____ _____    ______ ____
ROOT
ATOM      1  O   LIG    1       -1.425  -1.487  -2.027  0.00  0.00    -0.274 OA
ATOM      2  C   LIG    1       -2.152  -1.547  -1.013  0.00  0.00    +0.230 C 
ATOM      3  C   LIG    1       -2.074  -0.500   0.054  0.00  0.00    +0.075 C 
ATOM      4  C   LIG    1       -2.897  -0.893   1.251  0.00  0.00    +0.030 C 
ATOM      5  C   LIG    1       -2.884  -2.370   1.540  0.00  0.00    +0.097 C 
ATOM      6  C   LIG    1       -3.422  -3.154   0.377  0.00  0.00    +0.219 C 
ATOM      7  O   LIG    1       -4.125  -4.156   0.538  0.00  0.00    -0.275 OA
ATOM      8  N   LIG    1       -3.054  -2.646  -0.912  0.00  0.00    -0.256 N 
ATOM      9  H   LIG    1       -3.469  -3.110  -1.748  0.00  0.00    +0.157 HD
ENDROOT
BRANCH   3  10
ATOM     10  C   LIG    1       -0.628  -0.271   0.340  0.00  0.00    +0.011 C 
ATOM     11  C   LIG    1       -0.347   0.875   1.278  0.00  0.00    +0.020 C 
ATOM     12  C   LIG    1        0.982   0.642   2.010  0.00  0.00    +0.085 C 
ATOM     13  N   LIG    1        1.971   0.084   1.147  0.00  0.00    -0.298 NA
ATOM     14  C   LIG    1        1.627  -1.158   0.535  0.00  0.00    +0.085 C 
ATOM     15  C   LIG    1        0.143  -1.454   0.824  0.00  0.00    +0.020 C 
BRANCH  13  16
ATOM     16  C   LIG    1        2.588   1.026   0.269  0.00  0.00    +0.119 C 
BRANCH  16  17
ATOM     17  C   LIG    1        3.870   0.568  -0.309  0.00  0.00    -0.033 A 
ATOM     18  C   LIG    1        4.631  -0.443   0.228  0.00  0.00    +0.005 A 
ATOM     19  C   LIG    1        5.841  -0.854  -0.332  0.00  0.00    +0.000 A 
ATOM     20  C   LIG    1        6.307  -0.231  -1.468  0.00  0.00    +0.000 A 
ATOM     21  C   LIG    1        5.553   0.783  -2.014  0.00  0.00    +0.000 A 
ATOM     22  C   LIG    1        4.359   1.189  -1.462  0.00  0.00    +0.005 A 
ENDBRANCH  16  17
ENDBRANCH  13  16
ENDBRANCH   3  10
BRANCH   3  23
ATOM     23  C   LIG    1       -2.637   0.783  -0.452  0.00  0.00    -0.032 A 
ATOM     24  C   LIG    1       -3.493   1.573   0.316  0.00  0.00    +0.004 A 
ATOM     25  C   LIG    1       -4.033   2.755  -0.114  0.00  0.00    +0.000 A 
ATOM     26  C   LIG    1       -3.732   3.216  -1.373  0.00  0.00    +0.000 A 
ATOM     27  C   LIG    1       -2.892   2.481  -2.178  0.00  0.00    +0.000 A 
ATOM     28  C   LIG    1       -2.361   1.286  -1.711  0.00  0.00    +0.004 A 
ENDBRANCH   3  23
TORSDOF 4
