REMARK  Name = molecules/LQZAIAZUDWIVPM-SDDRHHMPSA-N.pdb
REMARK                            x       y       z     vdW  Elec       q    Type
REMARK                         _______ _______ _______ _____ _____    ______ ____
ROOT
ATOM      1  C   LIG    1       -0.261   1.012  -0.082  0.00  0.00    +0.165 C 
ENDROOT
BRANCH   1   2
ATOM      2  C   LIG    1       -0.978   0.267  -1.143  0.00  0.00    +0.237 C 
ATOM      3  N   LIG    1       -2.113  -0.512  -0.871  0.00  0.00    -0.288 N 
ATOM      4  C   LIG    1       -2.791  -0.785   0.389  0.00  0.00    +0.162 C 
ATOM      5  C   LIG    1       -2.774  -2.316   0.349  0.00  0.00    +0.033 C 
ATOM      6  C   LIG    1       -3.204  -2.543  -1.101  0.00  0.00    +0.021 C 
ATOM      7  C   LIG    1       -2.855  -1.280  -1.860  0.00  0.00    +0.109 C 
ATOM      8  O   LIG    1       -0.565   0.315  -2.352  0.00  0.00    -0.274 OA
BRANCH   4   9
ATOM      9  C   LIG    1       -4.195  -0.346   0.429  0.00  0.00    +0.231 C 
ATOM     10  N   LIG    1       -4.859  -0.464   1.684  0.00  0.00    -0.328 N 
ATOM     11  H   LIG    1       -4.541   0.083   2.498  0.00  0.00    +0.145 HD
ATOM     12  H   LIG    1       -5.661  -1.101   1.772  0.00  0.00    +0.145 HD
ATOM     13  O   LIG    1       -4.863   0.118  -0.515  0.00  0.00    -0.274 OA
ENDBRANCH   4   9
ENDBRANCH   1   2
BRANCH   1  16
ATOM     14  C   LIG    1        2.133   0.588   0.388  0.00  0.00    +0.234 C 
ATOM     15  O   LIG    1        1.739   0.009   1.456  0.00  0.00    -0.274 OA
ATOM     16  N   LIG    1        1.169   1.134  -0.462  0.00  0.00    -0.302 N 
ATOM     17  H   LIG    1        1.406   1.626  -1.355  0.00  0.00    +0.150 HD
BRANCH  14  27
ATOM     18  N   LIG    1        4.273  -0.005   1.223  0.00  0.00    -0.287 N 
ATOM     19  H   LIG    1        3.860   0.183   2.173  0.00  0.00    +0.151 HD
ATOM     20  C   LIG    1        5.397  -0.832   1.088  0.00  0.00    +0.309 C 
ATOM     21  O   LIG    1        6.178  -1.005   2.051  0.00  0.00    -0.252 OA
ATOM     22  N   LIG    1        5.618  -1.460  -0.161  0.00  0.00    -0.229 N 
ATOM     23  C   LIG    1        6.752  -2.328  -0.381  0.00  0.00    +0.142 C 
ATOM     24  C   LIG    1        4.676  -1.203  -1.191  0.00  0.00    +0.225 C 
ATOM     25  C   LIG    1        3.941   0.066  -1.226  0.00  0.00    +0.128 C 
ATOM     26  O   LIG    1        4.467  -2.062  -2.080  0.00  0.00    -0.275 OA
ATOM     27  C   LIG    1        3.597   0.642   0.119  0.00  0.00    +0.169 C 
ENDBRANCH  14  27
ENDBRANCH   1  16
BRANCH   1  28
ATOM     28  C   LIG    1       -0.714   2.419   0.109  0.00  0.00    +0.086 C 
BRANCH  28  29
ATOM     29  C   LIG    1       -2.100   2.643   0.499  0.00  0.00    +0.038 A 
ATOM     30  C   LIG    1       -2.507   2.690   1.835  0.00  0.00    +0.133 A 
ATOM     31  N   LIG    1       -3.810   2.935   1.849  0.00  0.00    -0.244 NA
ATOM     32  C   LIG    1       -4.272   3.050   0.598  0.00  0.00    +0.196 A 
ATOM     33  N   LIG    1       -3.214   2.868  -0.214  0.00  0.00    -0.348 N 
ATOM     34  H   LIG    1       -3.233   2.894  -1.244  0.00  0.00    +0.166 HD
ENDBRANCH  28  29
ENDBRANCH   1  28
TORSDOF 6
