REMARK  Name = molecules/LRCXRAABFLIVAI-QMMMGPOBSA-N.pdb
REMARK                            x       y       z     vdW  Elec       q    Type
REMARK                         _______ _______ _______ _____ _____    ______ ____
ROOT
ATOM      1  C   LIG    1        0.023  -0.502   0.059  0.00  0.00    -0.015 A 
ATOM      2  C   LIG    1        0.805   0.598   0.377  0.00  0.00    +0.051 A 
ATOM      3  C   LIG    1        2.036   0.736  -0.233  0.00  0.00    +0.117 A 
ATOM      4  C   LIG    1        2.528  -0.173  -1.150  0.00  0.00    +0.045 A 
ATOM      5  C   LIG    1        1.753  -1.256  -1.461  0.00  0.00    +0.004 A 
ATOM      6  C   LIG    1        0.518  -1.406  -0.857  0.00  0.00    +0.006 A 
ENDROOT
BRANCH   3   7
ATOM      7  O   LIG    1        2.856   1.832   0.061  0.00  0.00    -0.507 OA
ATOM      8  H   LIG    1        3.501   1.675   0.845  0.00  0.00    +0.292 HD
ENDBRANCH   3   7
BRANCH   1   9
ATOM      9  C   LIG    1       -1.295  -0.738   0.651  0.00  0.00    +0.158 C 
BRANCH   9  10
ATOM     10  O   LIG    1       -1.315  -0.531   2.029  0.00  0.00    -0.386 OA
ATOM     11  H   LIG    1       -0.438  -0.765   2.458  0.00  0.00    +0.210 HD
ENDBRANCH   9  10
BRANCH   9  12
ATOM     12  C   LIG    1       -2.384   0.111   0.023  0.00  0.00    +0.114 C 
BRANCH  12  13
ATOM     13  N   LIG    1       -2.181   1.522   0.291  0.00  0.00    -0.327 NA
ATOM     14  H   LIG    1       -2.469   1.799   1.238  0.00  0.00    +0.118 HD
ATOM     15  H   LIG    1       -2.481   2.140  -0.471  0.00  0.00    +0.118 HD
ENDBRANCH  12  13
ENDBRANCH   9  12
ENDBRANCH   1   9
TORSDOF 5
