REMARK  Name = molecules/LREQLEBVOXIEOM-ZETCQYMHSA-N.pdb
REMARK                            x       y       z     vdW  Elec       q    Type
REMARK                         _______ _______ _______ _____ _____    ______ ____
ROOT
ATOM      1  C   LIG    1        0.480   0.518  -0.539  0.00  0.00    +0.004 C 
ENDROOT
BRANCH   1   2
ATOM      2  C   LIG    1        0.914  -0.547   0.417  0.00  0.00    +0.018 C 
BRANCH   2   4
ATOM      3  C   LIG    1        3.165  -0.133  -0.445  0.00  0.00    +0.023 C 
ATOM      4  C   LIG    1        2.346  -0.152   0.805  0.00  0.00    +0.048 C 
BRANCH   4   5
ATOM      5  N   LIG    1        2.884  -1.043   1.790  0.00  0.00    -0.328 NA
ATOM      6  H   LIG    1        2.204  -1.159   2.566  0.00  0.00    +0.118 HD
ATOM      7  H   LIG    1        3.726  -0.583   2.205  0.00  0.00    +0.118 HD
ENDBRANCH   4   5
ENDBRANCH   2   4
ENDBRANCH   1   2
BRANCH   1   8
ATOM      8  C   LIG    1       -0.852   0.423  -1.148  0.00  0.00    +0.034 C 
BRANCH   8   9
ATOM      9  C   LIG    1       -2.050   0.427  -0.283  0.00  0.00    +0.061 C 
ATOM     10  C   LIG    1       -2.175  -0.695   0.698  0.00  0.00    +0.041 C 
ATOM     11  C   LIG    1       -3.282   0.348  -1.213  0.00  0.00    +0.041 C 
BRANCH   9  12
ATOM     12  O   LIG    1       -2.179   1.680   0.344  0.00  0.00    -0.389 OA
ATOM     13  H   LIG    1       -1.530   1.818   1.051  0.00  0.00    +0.210 HD
ENDBRANCH   9  12
ENDBRANCH   8   9
ENDBRANCH   1   8
TORSDOF 6
