REMARK  Name = molecules/LRJOMUJRLNCICJ-JZYPGELDSA-N.pdb
REMARK                            x       y       z     vdW  Elec       q    Type
REMARK                         _______ _______ _______ _____ _____    ______ ____
ROOT
ATOM      1  C   LIG    1       -1.178   0.694   0.710  0.00  0.00    +0.015 C 
ATOM      2  C   LIG    1       -0.835  -0.272  -0.354  0.00  0.00    +0.009 C 
ATOM      3  C   LIG    1       -0.238  -1.501   0.290  0.00  0.00    +0.041 C 
ATOM      4  C   LIG    1        1.119  -1.250   0.868  0.00  0.00    +0.120 C 
ATOM      5  C   LIG    1        2.014  -0.400   0.045  0.00  0.00    +0.035 C 
ATOM      6  C   LIG    1        3.200   0.182   0.798  0.00  0.00    +0.013 C 
ATOM      7  C   LIG    1        3.747  -0.730   1.803  0.00  0.00    -0.012 C 
ATOM      8  C   LIG    1        4.976  -1.164   1.817  0.00  0.00    +0.047 C 
ATOM      9  C   LIG    1        5.912  -0.741   0.785  0.00  0.00    +0.179 C 
ATOM     10  O   LIG    1        7.087  -1.162   0.808  0.00  0.00    -0.288 OA
ATOM     11  C   LIG    1        5.394   0.171  -0.231  0.00  0.00    +0.051 C 
ATOM     12  C   LIG    1        2.824   1.477   1.522  0.00  0.00    +0.020 C 
ATOM     13  C   LIG    1        4.165   0.603  -0.244  0.00  0.00    -0.056 C 
ATOM     14  C   LIG    1        3.686   1.525  -1.289  0.00  0.00    +0.032 C 
ATOM     15  C   LIG    1        2.330   1.193  -1.796  0.00  0.00    +0.008 C 
ATOM     16  C   LIG    1        1.364   0.703  -0.709  0.00  0.00    -0.000 C 
ATOM     17  C   LIG    1       -1.989  -0.634  -1.272  0.00  0.00    +0.133 C 
ATOM     18  C   LIG    1       -1.996   0.495  -2.296  0.00  0.00    +0.043 C 
ATOM     19  C   LIG    1       -0.645   1.207  -2.142  0.00  0.00    +0.008 C 
ATOM     20  C   LIG    1        0.152   0.189  -1.380  0.00  0.00    +0.002 C 
ENDROOT
BRANCH   4  21
ATOM     21  O   LIG    1        0.951  -0.669   2.124  0.00  0.00    -0.391 OA
ATOM     22  H   LIG    1        0.711  -1.376   2.773  0.00  0.00    +0.210 HD
ENDBRANCH   4  21
BRANCH  17  23
ATOM     23  C   LIG    1       -3.264  -0.935  -0.669  0.00  0.00    +0.202 C 
ATOM     24  O   LIG    1       -3.629  -2.137  -0.706  0.00  0.00    -0.291 OA
BRANCH  23  25
ATOM     25  C   LIG    1       -4.230  -0.044  -0.009  0.00  0.00    +0.309 C 
BRANCH  25  26
ATOM     26  O   LIG    1       -5.430  -0.755   0.362  0.00  0.00    -0.457 OA
BRANCH  26  27
ATOM     27  C   LIG    1       -6.431  -0.054   0.991  0.00  0.00    +0.304 C 
ATOM     28  C   LIG    1       -7.715  -0.704   1.416  0.00  0.00    +0.136 C 
ATOM     29  O   LIG    1       -6.264   1.169   1.216  0.00  0.00    -0.251 OA
ENDBRANCH  26  27
ENDBRANCH  25  26
ENDBRANCH  23  25
ENDBRANCH  17  23
BRANCH  17  30
ATOM     30  O   LIG    1       -1.479  -1.777  -1.973  0.00  0.00    -0.380 OA
ATOM     31  H   LIG    1       -2.009  -2.574  -1.721  0.00  0.00    +0.211 HD
ENDBRANCH  17  30
TORSDOF 6
