REMARK  Name = molecules/LRWSFOSWNAQHHW-UHFFFAOYSA-N.pdb
REMARK                            x       y       z     vdW  Elec       q    Type
REMARK                         _______ _______ _______ _____ _____    ______ ____
ROOT
ATOM      1  C   LIG    1       -3.138   0.663   0.994  0.00  0.00    +0.035 C 
ENDROOT
BRANCH   1   2
ATOM      2  C   LIG    1       -1.669   0.783   0.991  0.00  0.00    +0.086 C 
BRANCH   2   6
ATOM      3  N   LIG    1        1.351  -1.659  -0.305  0.00  0.00    -0.297 NA
ATOM      4  C   LIG    1        0.847  -1.961   0.977  0.00  0.00    +0.100 C 
ATOM      5  C   LIG    1       -0.020  -0.842   1.498  0.00  0.00    +0.100 C 
ATOM      6  N   LIG    1       -0.877  -0.272   0.522  0.00  0.00    -0.300 NA
ATOM      7  C   LIG    1       -0.846  -0.674  -0.797  0.00  0.00    +0.100 C 
ATOM      8  C   LIG    1        0.521  -1.118  -1.283  0.00  0.00    +0.100 C 
BRANCH   3   9
ATOM      9  C   LIG    1        2.732  -1.419  -0.456  0.00  0.00    +0.125 C 
BRANCH   9  10
ATOM     10  C   LIG    1        3.292  -2.205  -1.618  0.00  0.00    +0.247 C 
BRANCH  10  11
ATOM     11  O   LIG    1        4.667  -1.943  -1.753  0.00  0.00    -0.463 OA
BRANCH  11  12
ATOM     12  C   LIG    1        5.595  -2.197  -0.780  0.00  0.00    +0.307 C 
ATOM     13  O   LIG    1        5.194  -2.720   0.317  0.00  0.00    -0.251 OA
BRANCH  12  14
ATOM     14  C   LIG    1        7.033  -1.878  -0.969  0.00  0.00    +0.120 C 
BRANCH  14  15
ATOM     15  C   LIG    1        7.790  -1.845   0.337  0.00  0.00    +0.011 C 
BRANCH  15  16
ATOM     16  C   LIG    1        7.199  -0.778   1.238  0.00  0.00    +0.001 C 
BRANCH  16  17
ATOM     17  C   LIG    1        7.229   0.586   0.623  0.00  0.00    -0.000 C 
BRANCH  17  19
ATOM     18  C   LIG    1        8.536   2.407  -0.343  0.00  0.00    +0.004 C 
ATOM     19  C   LIG    1        8.628   1.040   0.288  0.00  0.00    -0.003 C 
ENDBRANCH  17  19
ENDBRANCH  16  17
ENDBRANCH  15  16
ENDBRANCH  14  15
ENDBRANCH  12  14
ENDBRANCH  11  12
ENDBRANCH  10  11
ENDBRANCH   9  10
ENDBRANCH   3   9
ENDBRANCH   2   6
ENDBRANCH   1   2
BRANCH   1  20
ATOM     20  C   LIG    1       -3.849   0.580  -0.320  0.00  0.00    +0.112 C 
BRANCH  20  21
ATOM     21  N   LIG    1       -5.311   0.416  -0.061  0.00  0.00    -0.298 N 
ATOM     22  C   LIG    1       -6.001   1.613   0.226  0.00  0.00    +0.048 A 
ATOM     23  C   LIG    1       -7.323   1.683   0.605  0.00  0.00    +0.034 A 
ATOM     24  S   LIG    1       -8.217   0.157   0.839  0.00  0.00    -0.086 S 
ATOM     25  C   LIG    1       -7.135  -1.163   0.318  0.00  0.00    +0.034 A 
ATOM     26  C   LIG    1       -7.670  -2.425   0.301  0.00  0.00    +0.017 A 
ATOM     27  C   LIG    1       -6.840  -3.477  -0.080  0.00  0.00    +0.001 A 
ATOM     28  C   LIG    1       -5.532  -3.237  -0.423  0.00  0.00    +0.002 A 
ATOM     29  C   LIG    1       -4.983  -1.948  -0.410  0.00  0.00    +0.024 A 
ATOM     30  C   LIG    1       -7.985   2.870   0.838  0.00  0.00    +0.017 A 
ATOM     31  C   LIG    1       -7.369   4.066   0.707  0.00  0.00    +0.013 A 
ATOM     32  C   LIG    1       -6.058   4.069   0.333  0.00  0.00    +0.057 A 
ATOM     33  C   LIG    1       -5.388   2.870   0.098  0.00  0.00    +0.037 A 
ATOM     34  C   LIG    1       -5.838  -0.888  -0.022  0.00  0.00    +0.048 A 
BRANCH  32  35
ATOM     35  C   LIG    1       -5.308   5.343   0.158  0.00  0.00    +0.417 C 
ATOM     36  F   LIG    1       -5.162   6.015   1.326  0.00  0.00    -0.166 F 
ATOM     37  F   LIG    1       -4.076   5.094  -0.404  0.00  0.00    -0.166 F 
ATOM     38  F   LIG    1       -6.037   6.086  -0.771  0.00  0.00    -0.166 F 
ENDBRANCH  32  35
ENDBRANCH  20  21
ENDBRANCH   1  20
TORSDOF 14
