REMARK  Name = molecules/LRXXRIXDSAEIOR-ZDUSSCGKSA-N.pdb
REMARK                            x       y       z     vdW  Elec       q    Type
REMARK                         _______ _______ _______ _____ _____    ______ ____
ROOT
ATOM      1  N   LIG    1        0.807  -0.250   0.643  0.00  0.00    -0.309 NA
ATOM      2  H   LIG    1        0.981   0.403   1.434  0.00  0.00    +0.123 HD
ENDROOT
BRANCH   1   3
ATOM      3  C   LIG    1       -0.567  -0.203   0.179  0.00  0.00    +0.055 C 
ATOM      4  C   LIG    1       -0.921  -1.623  -0.228  0.00  0.00    +0.024 C 
BRANCH   3   5
ATOM      5  C   LIG    1       -1.494   0.304   1.252  0.00  0.00    +0.053 C 
BRANCH   5   6
ATOM      6  C   LIG    1       -2.870   0.353   0.697  0.00  0.00    -0.046 A 
ATOM      7  C   LIG    1       -3.666  -0.760   0.737  0.00  0.00    +0.004 A 
ATOM      8  C   LIG    1       -4.952  -0.711   0.204  0.00  0.00    +0.000 A 
ATOM      9  C   LIG    1       -5.439   0.459  -0.369  0.00  0.00    +0.000 A 
ATOM     10  C   LIG    1       -4.650   1.562  -0.408  0.00  0.00    +0.000 A 
ATOM     11  C   LIG    1       -3.375   1.512   0.120  0.00  0.00    +0.004 A 
ENDBRANCH   5   6
ENDBRANCH   3   5
ENDBRANCH   1   3
BRANCH   1  12
ATOM     12  C   LIG    1        1.627   0.031  -0.508  0.00  0.00    +0.118 C 
BRANCH  12  13
ATOM     13  C   LIG    1        3.071   0.052  -0.257  0.00  0.00    -0.015 A 
ATOM     14  C   LIG    1        3.605  -0.170   0.989  0.00  0.00    +0.006 A 
ATOM     15  C   LIG    1        4.982  -0.143   1.205  0.00  0.00    +0.000 A 
ATOM     16  C   LIG    1        5.801   0.112   0.140  0.00  0.00    +0.001 A 
ATOM     17  C   LIG    1        5.304   0.342  -1.139  0.00  0.00    +0.020 A 
ATOM     18  C   LIG    1        3.935   0.305  -1.302  0.00  0.00    +0.045 A 
ATOM     19 CL   LIG    1        3.264   0.596  -2.887  0.00  0.00    -0.083 Cl
ENDBRANCH  12  13
ENDBRANCH   1  12
TORSDOF 5
