REMARK  Name = molecules/LSAMUAYPDHUBQD-OLKPEBQYSA-N.pdb
REMARK                            x       y       z     vdW  Elec       q    Type
REMARK                         _______ _______ _______ _____ _____    ______ ____
ROOT
ATOM      1  C   LIG    1       -0.960  -0.226   1.106  0.00  0.00    +0.162 C 
ENDROOT
BRANCH   1   2
ATOM      2  C   LIG    1       -2.049  -0.209   0.101  0.00  0.00    +0.236 C 
ATOM      3  O   LIG    1       -3.041  -0.973   0.377  0.00  0.00    -0.274 OA
ATOM      4  N   LIG    1       -2.078   0.552  -1.079  0.00  0.00    -0.306 N 
ATOM      5  C   LIG    1       -1.107   1.523  -1.503  0.00  0.00    +0.131 C 
ATOM      6  C   LIG    1       -3.242   0.372  -1.965  0.00  0.00    +0.131 C 
ENDBRANCH   1   2
BRANCH   1   7
ATOM      7  N   LIG    1        0.364  -0.382   0.540  0.00  0.00    -0.287 N 
ATOM      8  C   LIG    1        1.282   0.726   0.655  0.00  0.00    +0.240 C 
ATOM      9  O   LIG    1        0.866   1.745   1.259  0.00  0.00    -0.271 OA
BRANCH   8  10
ATOM     10  C   LIG    1        2.635   0.669   0.093  0.00  0.00    +0.063 C 
ATOM     11  C   LIG    1        3.462   1.706   0.215  0.00  0.00    -0.025 C 
ATOM     12  C   LIG    1        4.841   1.652  -0.355  0.00  0.00    +0.035 C 
ENDBRANCH   8  10
BRANCH   7  13
ATOM     13  C   LIG    1        0.790  -1.623  -0.076  0.00  0.00    +0.105 C 
ATOM     14  C   LIG    1        0.564  -1.623  -1.548  0.00  0.00    +0.024 C 
ENDBRANCH   7  13
ENDBRANCH   1   7
BRANCH   1  15
ATOM     15  C   LIG    1       -1.152  -1.259   2.183  0.00  0.00    +0.028 C 
ATOM     16  C   LIG    1       -2.522  -1.146   2.828  0.00  0.00    +0.006 C 
ENDBRANCH   1  15
TORSDOF 5
