REMARK  Name = molecules/LSAOZCAKUIANSQ-UHFFFAOYSA-N.pdb
REMARK                            x       y       z     vdW  Elec       q    Type
REMARK                         _______ _______ _______ _____ _____    ______ ____
ROOT
ATOM      1  C   LIG    1       -1.106   2.023  -0.368  0.00  0.00    +0.036 C 
ATOM      2  C   LIG    1       -0.898   0.544  -0.125  0.00  0.00    +0.145 C 
ATOM      3  C   LIG    1       -1.710   0.098   1.009  0.00  0.00    +0.240 C 
ATOM      4  O   LIG    1       -2.095   0.946   1.858  0.00  0.00    -0.274 OA
ATOM      5  N   LIG    1       -2.039  -1.282   1.116  0.00  0.00    -0.239 N 
ATOM      6  H   LIG    1       -2.315  -1.614   2.087  0.00  0.00    +0.159 HD
ATOM      7  C   LIG    1       -2.008  -2.179   0.012  0.00  0.00    +0.312 C 
ATOM      8  O   LIG    1       -2.305  -3.392   0.146  0.00  0.00    -0.252 OA
ATOM      9  N   LIG    1       -1.623  -1.625  -1.242  0.00  0.00    -0.239 N 
ATOM     10  H   LIG    1       -1.577  -2.233  -2.113  0.00  0.00    +0.159 HD
ATOM     11  C   LIG    1       -1.302  -0.246  -1.313  0.00  0.00    +0.240 C 
ATOM     12  O   LIG    1       -1.353   0.352  -2.413  0.00  0.00    -0.274 OA
ENDROOT
BRANCH   2  13
ATOM     13  C   LIG    1        0.561   0.338   0.100  0.00  0.00    -0.024 A 
ATOM     14  C   LIG    1        1.113   0.092   1.324  0.00  0.00    +0.005 A 
ATOM     15  C   LIG    1        2.483  -0.086   1.427  0.00  0.00    +0.000 A 
ATOM     16  C   LIG    1        3.324  -0.023   0.333  0.00  0.00    +0.000 A 
ATOM     17  C   LIG    1        2.750   0.227  -0.893  0.00  0.00    +0.000 A 
ATOM     18  C   LIG    1        1.376   0.406  -1.010  0.00  0.00    +0.005 A 
ENDBRANCH   2  13
TORSDOF 1
