REMARK  Name = molecules/LSLYOANBFKQKPT-PIGZYNQJSA-N.pdb
REMARK                            x       y       z     vdW  Elec       q    Type
REMARK                         _______ _______ _______ _____ _____    ______ ____
ROOT
ATOM      1  C   LIG    1       -0.764  -0.488   0.790  0.00  0.00    +0.117 C 
ENDROOT
BRANCH   1   2
ATOM      2  N   LIG    1        0.592  -0.192   0.466  0.00  0.00    -0.310 NA
ATOM      3  H   LIG    1        0.883   0.747   0.847  0.00  0.00    +0.122 HD
BRANCH   2   4
ATOM      4  C   LIG    1        0.843  -0.196  -0.962  0.00  0.00    +0.055 C 
ATOM      5  C   LIG    1        1.247  -1.621  -1.378  0.00  0.00    +0.024 C 
BRANCH   4   6
ATOM      6  C   LIG    1        1.955   0.731  -1.311  0.00  0.00    +0.053 C 
BRANCH   6   7
ATOM      7  C   LIG    1        3.284   0.475  -0.770  0.00  0.00    -0.046 A 
ATOM      8  C   LIG    1        3.730   0.952   0.434  0.00  0.00    +0.007 A 
ATOM      9  C   LIG    1        5.023   0.699   0.850  0.00  0.00    +0.045 A 
ATOM     10  C   LIG    1        5.913  -0.032   0.087  0.00  0.00    +0.117 A 
ATOM     11  C   LIG    1        5.472  -0.514  -1.124  0.00  0.00    +0.045 A 
ATOM     12  C   LIG    1        4.197  -0.266  -1.536  0.00  0.00    +0.007 A 
BRANCH  10  13
ATOM     13  O   LIG    1        7.214  -0.303   0.474  0.00  0.00    -0.507 OA
ATOM     14  H   LIG    1        7.540   0.040   1.350  0.00  0.00    +0.292 HD
ENDBRANCH  10  13
ENDBRANCH   6   7
ENDBRANCH   4   6
ENDBRANCH   2   4
ENDBRANCH   1   2
BRANCH   1  15
ATOM     15  C   LIG    1       -1.692   0.627   0.485  0.00  0.00    +0.158 C 
BRANCH  15  16
ATOM     16  C   LIG    1       -3.126   0.202   0.740  0.00  0.00    -0.011 A 
ATOM     17  C   LIG    1       -3.479  -0.972   1.311  0.00  0.00    +0.051 A 
ATOM     18  C   LIG    1       -4.805  -1.342   1.499  0.00  0.00    +0.121 A 
ATOM     19  C   LIG    1       -5.809  -0.456   1.078  0.00  0.00    +0.090 A 
ATOM     20  C   LIG    1       -5.464   0.749   0.495  0.00  0.00    +0.121 A 
ATOM     21  C   LIG    1       -4.114   1.066   0.331  0.00  0.00    +0.051 A 
BRANCH  18  22
ATOM     22  O   LIG    1       -5.149  -2.553   2.088  0.00  0.00    -0.507 OA
ATOM     23  H   LIG    1       -5.268  -3.359   1.452  0.00  0.00    +0.292 HD
ENDBRANCH  18  22
BRANCH  20  24
ATOM     24  O   LIG    1       -6.494   1.582   0.101  0.00  0.00    -0.507 OA
ATOM     25  H   LIG    1       -6.883   1.505  -0.848  0.00  0.00    +0.292 HD
ENDBRANCH  20  24
ENDBRANCH  15  16
BRANCH  15  26
ATOM     26  O   LIG    1       -1.721   1.093  -0.811  0.00  0.00    -0.386 OA
ATOM     27  H   LIG    1       -2.373   0.562  -1.322  0.00  0.00    +0.210 HD
ENDBRANCH  15  26
ENDBRANCH   1  15
TORSDOF 10
