REMARK  Name = molecules/LSQZJLSUYDQPKJ-NJBDSQKTSA-N.pdb
REMARK                            x       y       z     vdW  Elec       q    Type
REMARK                         _______ _______ _______ _____ _____    ______ ____
ROOT
ATOM      1  N   LIG    1        0.305  -0.555  -0.275  0.00  0.00    -0.300 N 
ATOM      2  H   LIG    1        0.104   0.119   0.505  0.00  0.00    +0.150 HD
ATOM      3  C   LIG    1        1.589  -1.129  -0.359  0.00  0.00    +0.235 C 
ATOM      4  O   LIG    1        1.833  -1.930  -1.284  0.00  0.00    -0.274 OA
ENDROOT
BRANCH   1  11
ATOM      5  CA  LIG    1       -3.827   0.145  -0.406  0.00  0.00    +0.201 C 
ATOM      6  C   LIG    1       -3.635  -0.050   1.095  0.00  0.00    +0.042 C 
ATOM      7  C   LIG    1       -4.841  -0.704   1.733  0.00  0.00    +0.025 C 
ATOM      8  C   LIG    1       -3.337   1.281   1.696  0.00  0.00    +0.025 C 
ATOM      9  S   LIG    1       -2.200  -1.167   1.117  0.00  0.00    -0.127 S 
ATOM     10  C   LIG    1       -2.029  -1.313  -0.706  0.00  0.00    +0.165 C 
ATOM     11  CA  LIG    1       -0.693  -0.882  -1.227  0.00  0.00    +0.190 C 
ATOM     12  C   LIG    1       -1.422   0.218  -1.861  0.00  0.00    +0.240 C 
ATOM     13  O   LIG    1       -1.079   1.034  -2.777  0.00  0.00    -0.273 OA
ATOM     14  N   LIG    1       -2.563  -0.029  -1.060  0.00  0.00    -0.271 N 
BRANCH   5  15
ATOM     15  C   LIG    1       -4.810  -0.795  -0.979  0.00  0.00    +0.327 C 
ATOM     16  O   LIG    1       -4.510  -1.539  -1.914  0.00  0.00    -0.249 OA
BRANCH  15  17
ATOM     17  OXT LIG    1       -6.122  -0.887  -0.490  0.00  0.00    -0.479 OA
ATOM     18  HXT LIG    1       -6.629  -1.771  -0.476  0.00  0.00    +0.295 HD
ENDBRANCH  15  17
ENDBRANCH   5  15
ENDBRANCH   1  11
BRANCH   3  19
ATOM     19  CA  LIG    1        2.662  -0.823   0.605  0.00  0.00    +0.168 C 
BRANCH  19  20
ATOM     20  C   LIG    1        3.806  -0.082   0.019  0.00  0.00    -0.022 A 
ATOM     21  C   LIG    1        4.701   0.521   0.910  0.00  0.00    +0.009 A 
ATOM     22  C   LIG    1        5.790   1.226   0.448  0.00  0.00    +0.046 A 
ATOM     23  C   LIG    1        6.050   1.371  -0.897  0.00  0.00    +0.117 A 
ATOM     24  C   LIG    1        5.166   0.775  -1.768  0.00  0.00    +0.046 A 
ATOM     25  C   LIG    1        4.064   0.062  -1.311  0.00  0.00    +0.009 A 
BRANCH  23  26
ATOM     26  O   LIG    1        7.161   2.090  -1.341  0.00  0.00    -0.507 OA
ATOM     27  H   LIG    1        7.003   3.090  -1.495  0.00  0.00    +0.292 HD
ENDBRANCH  23  26
ENDBRANCH  19  20
BRANCH  19  28
ATOM     28  N   LIG    1        2.109   0.060   1.641  0.00  0.00    -0.316 NA
ATOM     29  H1  LIG    1        2.647  -0.003   2.519  0.00  0.00    +0.119 HD
ATOM     30  H2  LIG    1        2.209   1.031   1.276  0.00  0.00    +0.119 HD
ENDBRANCH  19  28
ENDBRANCH   3  19
TORSDOF 7
