REMARK  Name = molecules/LTINPJMVDKPJJI-PBXRRBTRSA-N.pdb
REMARK                            x       y       z     vdW  Elec       q    Type
REMARK                         _______ _______ _______ _____ _____    ______ ____
ROOT
ATOM      1  C   LIG    1       -0.733  -0.314   0.279  0.00  0.00    +0.263 C 
ATOM      2  O   LIG    1        0.293   0.488   0.777  0.00  0.00    -0.343 OA
ATOM      3  C   LIG    1        1.470  -0.200   0.647  0.00  0.00    +0.172 C 
ATOM      4  C   LIG    1        1.110  -1.368  -0.242  0.00  0.00    +0.197 C 
ATOM      5  O   LIG    1       -0.176  -1.078  -0.738  0.00  0.00    -0.348 OA
ENDROOT
BRANCH   1   6
ATOM      6  C   LIG    1       -1.836   0.580  -0.178  0.00  0.00    +0.105 C 
ATOM      7  I   LIG    1       -2.485   1.713   1.534  0.00  0.00    -0.077 I 
ATOM      8  C   LIG    1       -3.021  -0.137  -0.744  0.00  0.00    +0.024 C 
ENDBRANCH   1   6
BRANCH   3   9
ATOM      9  C   LIG    1        2.552   0.585  -0.064  0.00  0.00    +0.189 C 
BRANCH   9  10
ATOM     10  O   LIG    1        2.890   1.753   0.566  0.00  0.00    -0.392 OA
ATOM     11  H   LIG    1        2.147   2.144   1.087  0.00  0.00    +0.210 HD
ENDBRANCH   9  10
ENDBRANCH   3   9
TORSDOF 3
