REMARK  Name = molecules/LUALIOATIOESLM-UHFFFAOYSA-N.pdb
REMARK                            x       y       z     vdW  Elec       q    Type
REMARK                         _______ _______ _______ _____ _____    ______ ____
ROOT
ATOM      1  N   LIG    1       -2.079  -0.369  -0.098  0.00  0.00    -0.313 N 
ATOM      2  C   LIG    1       -2.535   0.979  -0.061  0.00  0.00    +0.115 C 
ATOM      3  C   LIG    1       -1.723   1.988   0.460  0.00  0.00    +0.022 C 
ATOM      4  C   LIG    1       -2.070   3.314   0.515  0.00  0.00    +0.036 C 
ATOM      5  C   LIG    1       -3.296   3.700   0.029  0.00  0.00    +0.065 C 
ATOM      6  C   LIG    1       -4.130   2.709  -0.500  0.00  0.00    -0.004 C 
ATOM      7  C   LIG    1       -3.754   1.404  -0.539  0.00  0.00    +0.017 C 
ATOM      8  S   LIG    1       -4.881   0.242  -1.233  0.00  0.00    -0.090 S 
ATOM      9  C   LIG    1       -4.084  -1.351  -1.196  0.00  0.00    +0.033 C 
ATOM     10  C   LIG    1       -4.783  -2.410  -1.725  0.00  0.00    +0.013 C 
ATOM     11  C   LIG    1       -4.227  -3.656  -1.712  0.00  0.00    -0.017 C 
ATOM     12  C   LIG    1       -2.959  -3.822  -1.161  0.00  0.00    +0.047 C 
ATOM     13  C   LIG    1       -2.288  -2.738  -0.640  0.00  0.00    +0.006 C 
ATOM     14  C   LIG    1       -2.830  -1.465  -0.642  0.00  0.00    +0.041 C 
ENDROOT
BRANCH   4  15
ATOM     15  C   LIG    1       -1.206   4.317   1.059  0.00  0.00    +0.095 C 
ATOM     16  N   LIG    1       -0.493   5.111   1.492  0.00  0.00    -0.191 NA
ENDBRANCH   4  15
BRANCH   1  17
ATOM     17  C   LIG    1       -0.749  -0.648   0.428  0.00  0.00    +0.108 C 
BRANCH  17  18
ATOM     18  C   LIG    1        0.252  -0.767  -0.703  0.00  0.00    +0.034 C 
BRANCH  18  19
ATOM     19  C   LIG    1        1.635  -1.083  -0.205  0.00  0.00    +0.086 C 
BRANCH  19  23
ATOM     20  C   LIG    1        4.957   0.664   0.690  0.00  0.00    +0.117 C 
ATOM     21  C   LIG    1        4.511  -0.768   0.907  0.00  0.00    +0.046 C 
ATOM     22  C   LIG    1        3.153  -0.657   1.602  0.00  0.00    +0.087 C 
ATOM     23  N   LIG    1        2.187  -0.121   0.675  0.00  0.00    -0.302 NA
ATOM     24  C   LIG    1        2.531   1.148   0.140  0.00  0.00    +0.087 C 
ATOM     25  C   LIG    1        3.972   1.327  -0.204  0.00  0.00    +0.046 C 
BRANCH  20  26
ATOM     26  O   LIG    1        6.205   0.702   0.053  0.00  0.00    -0.392 OA
ATOM     27  H   LIG    1        6.399  -0.200  -0.331  0.00  0.00    +0.210 HD
ENDBRANCH  20  26
ENDBRANCH  19  23
ENDBRANCH  18  19
ENDBRANCH  17  18
ENDBRANCH   1  17
TORSDOF 6
