REMARK  Name = molecules/LUKZNWIVRBCLON-GXOBDPJESA-N.pdb
REMARK                            x       y       z     vdW  Elec       q    Type
REMARK                         _______ _______ _______ _____ _____    ______ ____
ROOT
ATOM      1  C   LIG    1       -1.035   0.455  -0.601  0.00  0.00    +0.165 C 
ATOM      2  C   LIG    1        0.252   0.810   0.066  0.00  0.00    +0.012 C 
ATOM      3  C   LIG    1        0.424   0.150   1.412  0.00  0.00    +0.042 C 
ATOM      4  C   LIG    1        1.829   0.086   1.875  0.00  0.00    +0.120 C 
ATOM      5  C   LIG    1        2.813  -0.375   0.859  0.00  0.00    +0.035 C 
ATOM      6  C   LIG    1        4.242  -0.330   1.317  0.00  0.00    +0.013 C 
ATOM      7  C   LIG    1        4.527  -1.234   2.421  0.00  0.00    -0.012 C 
ATOM      8  C   LIG    1        5.506  -2.122   2.475  0.00  0.00    +0.047 C 
ATOM      9  C   LIG    1        6.419  -2.261   1.352  0.00  0.00    +0.179 C 
ATOM     10  O   LIG    1        7.366  -3.073   1.329  0.00  0.00    -0.288 OA
ATOM     11  C   LIG    1        6.146  -1.366   0.227  0.00  0.00    +0.051 C 
ATOM     12  C   LIG    1        4.551   1.082   1.891  0.00  0.00    +0.020 C 
ATOM     13  C   LIG    1        5.177  -0.504   0.202  0.00  0.00    -0.056 C 
ATOM     14  C   LIG    1        4.972   0.316  -1.056  0.00  0.00    +0.032 C 
ATOM     15  C   LIG    1        3.549   0.037  -1.532  0.00  0.00    +0.008 C 
ATOM     16  C   LIG    1        2.621   0.435  -0.433  0.00  0.00    -0.000 C 
ATOM     17  C   LIG    1        0.408   2.279   0.162  0.00  0.00    +0.015 C 
ATOM     18  C   LIG    1        1.228   0.129  -0.840  0.00  0.00    +0.004 C 
ATOM     19  C   LIG    1        0.795   0.546  -2.184  0.00  0.00    +0.039 C 
ATOM     20  O   LIG    1       -1.555  -0.747  -0.115  0.00  0.00    -0.334 OA
ATOM     21  C   LIG    1       -1.662  -1.612  -1.192  0.00  0.00    +0.255 C 
ATOM     22  O   LIG    1       -0.793  -1.163  -2.167  0.00  0.00    -0.344 OA
ATOM     23  C   LIG    1       -0.699   0.196  -2.074  0.00  0.00    +0.162 C 
ENDROOT
BRANCH  21  24
ATOM     24  C   LIG    1       -1.315  -2.985  -0.669  0.00  0.00    +0.045 C 
ATOM     25  C   LIG    1       -2.301  -3.317   0.420  0.00  0.00    +0.008 C 
ATOM     26  C   LIG    1       -3.607  -3.829  -0.124  0.00  0.00    +0.000 C 
ATOM     27  C   LIG    1       -3.301  -5.081  -0.924  0.00  0.00    +0.000 C 
ATOM     28  C   LIG    1       -2.469  -4.697  -2.102  0.00  0.00    +0.000 C 
ATOM     29  C   LIG    1       -1.188  -4.023  -1.720  0.00  0.00    +0.008 C 
ENDBRANCH  21  24
BRANCH   1  30
ATOM     30  C   LIG    1       -2.089   1.473  -0.589  0.00  0.00    +0.205 C 
ATOM     31  O   LIG    1       -1.871   2.590  -1.001  0.00  0.00    -0.291 OA
BRANCH  30  32
ATOM     32  C   LIG    1       -3.450   1.168  -0.074  0.00  0.00    +0.309 C 
BRANCH  32  33
ATOM     33  O   LIG    1       -4.348   2.226  -0.139  0.00  0.00    -0.457 OA
BRANCH  33  34
ATOM     34  C   LIG    1       -4.078   3.397   0.544  0.00  0.00    +0.310 C 
ATOM     35  O   LIG    1       -3.014   3.459   1.208  0.00  0.00    -0.251 OA
BRANCH  34  36
ATOM     36  C   LIG    1       -5.009   4.562   0.506  0.00  0.00    +0.092 C 
ATOM     37  C   LIG    1       -4.447   5.675   1.338  0.00  0.00    +0.019 C 
ATOM     38  C   LIG    1       -5.271   5.042  -0.896  0.00  0.00    +0.019 C 
ENDBRANCH  34  36
ENDBRANCH  33  34
ENDBRANCH  32  33
ENDBRANCH  30  32
ENDBRANCH   1  30
BRANCH   4  39
ATOM     39  O   LIG    1        2.143   1.312   2.457  0.00  0.00    -0.391 OA
ATOM     40  H   LIG    1        1.749   1.321   3.367  0.00  0.00    +0.210 HD
ENDBRANCH   4  39
TORSDOF 7
