REMARK  Name = molecules/LVRLSYPNFFBYCZ-VGWMRTNUSA-N.pdb
REMARK                            x       y       z     vdW  Elec       q    Type
REMARK                         _______ _______ _______ _____ _____    ______ ____
ROOT
ATOM      1  CA  MET A  1        3.919   1.137   0.125  0.00  0.00    +0.186 C 
ATOM      2  N   MET A  1        3.030   0.138   0.620  0.00  0.00    -0.275 N 
ATOM      3  CE  MET A  1        3.612  -0.637   1.755  0.00  0.00    +0.135 C 
ATOM      4  SD  MET A  1        2.365  -1.532   2.611  0.00  0.00    -0.138 S 
ATOM      5  CG  MET A  1        1.560  -2.774   1.596  0.00  0.00    +0.073 C 
ATOM      6  CB  MET A  1        0.749  -2.185   0.487  0.00  0.00    +0.042 C 
ATOM      7  CA  MET A  1        0.595  -0.676   0.760  0.00  0.00    +0.160 C 
ATOM      8  C   MET A  1        4.651  -1.493   1.047  0.00  0.00    +0.034 C 
ATOM      9  C   MET A  1        5.661  -0.657   0.322  0.00  0.00    +0.005 C 
ATOM     10  C   MET A  1        1.793  -0.073   0.030  0.00  0.00    +0.237 C 
ATOM     11  O   MET A  1        1.680   0.248  -1.143  0.00  0.00    -0.274 OA
ATOM     12  C   MET A  1        5.100   0.430  -0.556  0.00  0.00    +0.034 C 
ENDROOT
BRANCH   7  13
ATOM     13  N   MET A  1       -0.649  -0.309   0.233  0.00  0.00    -0.303 N 
ATOM     14  H   MET A  1       -0.275   1.015   0.429  0.00  0.00    +0.149 HD
ATOM     15  C   UNK A  0       -1.843   0.042  -0.272  0.00  0.00    +0.227 C 
ATOM     16  O   UNK A  0       -2.285   1.162  -0.594  0.00  0.00    -0.275 OA
BRANCH  15  17
ATOM     17  C   UNK A  0       -2.892  -1.074  -0.515  0.00  0.00    +0.133 C 
BRANCH  17  18
ATOM     18  S   UNK A  0       -3.562  -1.567   1.113  0.00  0.00    -0.165 S 
ATOM     19  H   UNK A  0       -2.701  -1.086   2.126  0.00  0.00    +0.102 HD
ENDBRANCH  17  18
BRANCH  17  20
ATOM     20  C   UNK A  0       -3.934  -0.701  -1.479  0.00  0.00    +0.058 C 
BRANCH  20  21
ATOM     21  C   UNK A  0       -4.786   0.454  -1.211  0.00  0.00    -0.046 A 
ATOM     22  C   UNK A  0       -5.816   0.318  -0.261  0.00  0.00    +0.004 A 
ATOM     23  C   UNK A  0       -6.686   1.371  -0.011  0.00  0.00    +0.000 A 
ATOM     24  C   UNK A  0       -6.580   2.596  -0.680  0.00  0.00    +0.000 A 
ATOM     25  C   UNK A  0       -5.547   2.649  -1.592  0.00  0.00    +0.000 A 
ATOM     26  C   UNK A  0       -4.679   1.653  -1.867  0.00  0.00    +0.004 A 
ENDBRANCH  20  21
ENDBRANCH  17  20
ENDBRANCH  15  17
ENDBRANCH   7  13
BRANCH   1  27
ATOM     27  C   MET A  1        3.466   2.275  -0.598  0.00  0.00    +0.325 C 
ATOM     28  O   MET A  1        4.341   3.133  -1.018  0.00  0.00    -0.249 OA
BRANCH  27  29
ATOM     29  OXT MET A  1        2.179   2.588  -0.914  0.00  0.00    -0.479 OA
ATOM     30  HXT MET A  1        1.652   3.366  -0.483  0.00  0.00    +0.295 HD
ENDBRANCH  27  29
ENDBRANCH   1  27
TORSDOF 7
