REMARK  Name = molecules/LVWZTYCIRDMTEY-UHFFFAOYSA-N.pdb
REMARK                            x       y       z     vdW  Elec       q    Type
REMARK                         _______ _______ _______ _____ _____    ______ ____
ROOT
ATOM      1  O   LIG    1       -0.301   1.964  -0.006  0.00  0.00    -0.264 OA
ATOM      2  C   LIG    1       -0.257   0.722  -0.207  0.00  0.00    +0.293 A 
ATOM      3  N   LIG    1       -1.272  -0.160  -0.257  0.00  0.00    -0.216 N 
ATOM      4  N   LIG    1       -0.788  -1.366  -0.492  0.00  0.00    -0.282 N 
ATOM      5  C   LIG    1        0.565  -1.289  -0.600  0.00  0.00    +0.059 A 
ATOM      6  C   LIG    1        1.506  -2.393  -0.860  0.00  0.00    +0.067 C 
ATOM      7  C   LIG    1       -1.613  -2.551  -0.606  0.00  0.00    +0.171 C 
ATOM      8  C   LIG    1        0.935   0.020  -0.425  0.00  0.00    +0.119 A 
ENDROOT
BRANCH   3   9
ATOM      9  C   LIG    1       -2.640   0.246  -0.070  0.00  0.00    +0.067 A 
ATOM     10  C   LIG    1       -3.242  -0.039   1.131  0.00  0.00    +0.028 A 
ATOM     11  C   LIG    1       -4.551   0.347   1.316  0.00  0.00    +0.002 A 
ATOM     12  C   LIG    1       -5.279   1.009   0.340  0.00  0.00    +0.000 A 
ATOM     13  C   LIG    1       -4.620   1.268  -0.846  0.00  0.00    +0.002 A 
ATOM     14  C   LIG    1       -3.314   0.898  -1.067  0.00  0.00    +0.028 A 
ENDBRANCH   3   9
BRANCH   8  15
ATOM     15  N   LIG    1        2.221   0.610  -0.446  0.00  0.00    -0.306 N 
ATOM     16  C   LIG    1        2.785   1.113  -1.675  0.00  0.00    +0.131 C 
BRANCH  15  17
ATOM     17  C   LIG    1        2.948   0.695   0.791  0.00  0.00    +0.305 C 
BRANCH  17  18
ATOM     18  S   LIG    1        4.530   1.448   0.631  0.00  0.00    +0.096 S 
ATOM     19  O   LIG    1        4.372   2.890   0.241  0.00  0.00    -0.146 OA
ATOM     20  O   LIG    1        5.450   0.729  -0.275  0.00  0.00    -0.146 OA
BRANCH  18  21
ATOM     21  O   LIG    1        5.234   1.458   2.179  0.00  0.00    -0.253 OA
ATOM     22  H   LIG    1        5.730   0.602   2.268  0.00  0.00    +0.245 HD
ENDBRANCH  18  21
ENDBRANCH  17  18
ENDBRANCH  15  17
ENDBRANCH   8  15
TORSDOF 5
