REMARK  Name = molecules/LVXJQMNHJWSHET-AATRIKPKSA-N.pdb
REMARK                            x       y       z     vdW  Elec       q    Type
REMARK                         _______ _______ _______ _____ _____    ______ ____
ROOT
ATOM      1  C   LIG    1       -1.069   1.049   0.741  0.00  0.00    +0.077 A 
ATOM      2  C   LIG    1       -1.239   1.874   1.874  0.00  0.00    +0.143 A 
ATOM      3  C   LIG    1       -2.460   1.915   2.493  0.00  0.00    +0.076 A 
ATOM      4  C   LIG    1       -3.532   1.183   2.055  0.00  0.00    +0.080 A 
ATOM      5  N   LIG    1       -4.728   1.239   2.683  0.00  0.00    -0.235 NA
ATOM      6  C   LIG    1       -5.761   0.508   2.229  0.00  0.00    +0.223 A 
ATOM      7  N   LIG    1       -5.666  -0.289   1.166  0.00  0.00    -0.220 NA
ATOM      8  C   LIG    1       -4.481  -0.377   0.501  0.00  0.00    +0.134 A 
ATOM      9  C   LIG    1       -3.403   0.365   0.947  0.00  0.00    +0.042 A 
ATOM     10  C   LIG    1       -2.159   0.325   0.320  0.00  0.00    +0.040 A 
ENDROOT
BRANCH   1  12
ATOM     11  C   LIG    1        0.554   0.282  -0.986  0.00  0.00    +0.241 C 
ATOM     12  N   LIG    1        0.206   1.037   0.135  0.00  0.00    -0.279 N 
ATOM     13  H   LIG    1        0.983   1.649   0.555  0.00  0.00    +0.155 HD
ATOM     14  O   LIG    1       -0.288  -0.462  -1.543  0.00  0.00    -0.271 OA
BRANCH  11  16
ATOM     15  C   LIG    1        2.843   1.004  -1.127  0.00  0.00    -0.007 C 
ATOM     16  C   LIG    1        1.877   0.283  -1.596  0.00  0.00    +0.064 C 
BRANCH  15  17
ATOM     17  C   LIG    1        4.174   0.949  -1.811  0.00  0.00    +0.112 C 
BRANCH  17  22
ATOM     18  C   LIG    1        7.387   0.916   0.097  0.00  0.00    +0.015 C 
ATOM     19  C   LIG    1        7.510  -0.581   0.286  0.00  0.00    +0.002 C 
ATOM     20  C   LIG    1        6.130  -1.090   0.643  0.00  0.00    +0.015 C 
ATOM     21  C   LIG    1        5.221  -0.825  -0.531  0.00  0.00    +0.085 C 
ATOM     22  N   LIG    1        5.217   0.512  -0.976  0.00  0.00    -0.299 NA
ATOM     23  C   LIG    1        6.472   1.167  -1.071  0.00  0.00    +0.085 C 
ENDBRANCH  17  22
ENDBRANCH  15  17
ENDBRANCH  11  16
ENDBRANCH   1  12
BRANCH   8  24
ATOM     24  N   LIG    1       -4.362  -1.181  -0.650  0.00  0.00    -0.299 N 
ATOM     25  H   LIG    1       -3.481  -1.240  -1.245  0.00  0.00    +0.154 HD
BRANCH  24  26
ATOM     26  C   LIG    1       -5.472  -1.984  -1.087  0.00  0.00    +0.034 A 
ATOM     27  C   LIG    1       -6.400  -2.494  -0.228  0.00  0.00    +0.026 A 
ATOM     28  C   LIG    1       -7.431  -3.291  -0.706  0.00  0.00    +0.041 A 
ATOM     29  C   LIG    1       -7.538  -3.581  -2.042  0.00  0.00    +0.142 A 
ATOM     30  F   LIG    1       -8.562  -4.364  -2.455  0.00  0.00    -0.204 F 
ATOM     31  C   LIG    1       -6.598  -3.067  -2.916  0.00  0.00    +0.078 A 
ATOM     32 CL   LIG    1       -6.776  -3.468  -4.617  0.00  0.00    -0.081 Cl
ATOM     33  C   LIG    1       -5.570  -2.275  -2.462  0.00  0.00    +0.046 A 
ENDBRANCH  24  26
ENDBRANCH   8  24
BRANCH   2  34
ATOM     34  O   LIG    1       -0.152   2.602   2.301  0.00  0.00    -0.493 OA
ATOM     35  C   LIG    1       -0.143   3.463   3.396  0.00  0.00    +0.277 C 
ENDBRANCH   2  34
TORSDOF 7
