REMARK  Name = molecules/LVYLCBNXHHHPSB-UHFFFAOYSA-N.pdb
REMARK                            x       y       z     vdW  Elec       q    Type
REMARK                         _______ _______ _______ _____ _____    ______ ____
ROOT
ATOM      1  C   LIG    1        0.961   0.545  -0.021  0.00  0.00    +0.100 A 
ATOM      2  C   LIG    1        1.678  -0.560   0.387  0.00  0.00    +0.131 A 
ATOM      3  C   LIG    1        3.066  -0.586   0.345  0.00  0.00    +0.046 A 
ATOM      4  C   LIG    1        3.779   0.502  -0.111  0.00  0.00    +0.004 A 
ATOM      5  C   LIG    1        3.073   1.615  -0.522  0.00  0.00    +0.001 A 
ATOM      6  C   LIG    1        1.679   1.630  -0.475  0.00  0.00    +0.018 A 
ENDROOT
BRANCH   1   7
ATOM      7  C   LIG    1       -0.499   0.554   0.031  0.00  0.00    +0.343 C 
ATOM      8  O   LIG    1       -1.195   1.519  -0.323  0.00  0.00    -0.245 OA
BRANCH   7   9
ATOM      9  O   LIG    1       -1.159  -0.574   0.500  0.00  0.00    -0.459 OA
BRANCH   9  10
ATOM     10  C   LIG    1       -2.542  -0.702   0.603  0.00  0.00    +0.260 C 
BRANCH  10  11
ATOM     11  C   LIG    1       -3.252  -0.550  -0.742  0.00  0.00    +0.197 C 
BRANCH  11  12
ATOM     12  O   LIG    1       -4.626  -0.703  -0.474  0.00  0.00    -0.392 OA
ATOM     13  H   LIG    1       -4.852   0.018   0.166  0.00  0.00    +0.210 HD
ENDBRANCH  11  12
ENDBRANCH  10  11
ENDBRANCH   9  10
ENDBRANCH   7   9
ENDBRANCH   1   7
BRANCH   2  14
ATOM     14  O   LIG    1        0.973  -1.659   0.847  0.00  0.00    -0.506 OA
ATOM     15  H   LIG    1        1.458  -2.507   1.162  0.00  0.00    +0.292 HD
ENDBRANCH   2  14
TORSDOF 6
