REMARK  Name = molecules/LWAFSWPYPHEXKX-LLVKDONJSA-N.pdb
REMARK                            x       y       z     vdW  Elec       q    Type
REMARK                         _______ _______ _______ _____ _____    ______ ____
ROOT
ATOM      1  O   LIG    1       -0.972   0.283   0.688  0.00  0.00    -0.489 OA
ENDROOT
BRANCH   1   2
ATOM      2  C   LIG    1       -2.106   0.825   0.224  0.00  0.00    +0.126 A 
ATOM      3  C   LIG    1       -3.289   0.042   0.222  0.00  0.00    +0.016 A 
ATOM      4  C   LIG    1       -3.181  -1.351   0.742  0.00  0.00    +0.050 C 
ATOM      5  C   LIG    1       -4.244  -2.218   0.103  0.00  0.00    +0.101 C 
ATOM      6  C   LIG    1       -5.562  -1.544   0.239  0.00  0.00    +0.218 C 
ATOM      7  O   LIG    1       -6.560  -2.118   0.764  0.00  0.00    -0.275 OA
ATOM      8  N   LIG    1       -5.654  -0.203  -0.255  0.00  0.00    -0.285 N 
ATOM      9  H   LIG    1       -6.575   0.152  -0.598  0.00  0.00    +0.155 HD
ATOM     10  C   LIG    1       -4.458   0.576  -0.244  0.00  0.00    +0.040 A 
ATOM     11  C   LIG    1       -4.488   1.879  -0.713  0.00  0.00    +0.024 A 
ATOM     12  C   LIG    1       -3.353   2.659  -0.720  0.00  0.00    +0.005 A 
ATOM     13  C   LIG    1       -2.150   2.118  -0.243  0.00  0.00    +0.046 A 
ENDBRANCH   1   2
BRANCH   1  14
ATOM     14  C   LIG    1        0.317   0.638   0.845  0.00  0.00    +0.261 C 
BRANCH  14  15
ATOM     15  C   LIG    1        1.062   0.908  -0.457  0.00  0.00    +0.166 C 
BRANCH  15  16
ATOM     16  O   LIG    1        1.021  -0.240  -1.210  0.00  0.00    -0.387 OA
ATOM     17  H   LIG    1        0.594  -0.069  -2.083  0.00  0.00    +0.210 HD
ENDBRANCH  15  16
BRANCH  15  18
ATOM     18  C   LIG    1        2.433   1.446  -0.187  0.00  0.00    +0.116 C 
BRANCH  18  19
ATOM     19  N   LIG    1        3.343   0.670   0.499  0.00  0.00    -0.309 NA
ATOM     20  H   LIG    1        3.336   0.798   1.512  0.00  0.00    +0.123 HD
BRANCH  19  21
ATOM     21  C   LIG    1        3.982  -0.469   0.040  0.00  0.00    +0.011 C 
ATOM     22  C   LIG    1        5.098  -0.751   1.126  0.00  0.00    +0.027 C 
ATOM     23  C   LIG    1        3.257  -1.758  -0.100  0.00  0.00    +0.027 C 
ATOM     24  C   LIG    1        4.833  -0.232  -1.215  0.00  0.00    +0.027 C 
ENDBRANCH  19  21
ENDBRANCH  18  19
ENDBRANCH  15  18
ENDBRANCH  14  15
ENDBRANCH   1  14
TORSDOF 7
