REMARK  Name = molecules/LWRDQHOZTAOILO-UHFFFAOYSA-N.pdb
REMARK                            x       y       z     vdW  Elec       q    Type
REMARK                         _______ _______ _______ _____ _____    ______ ____
ROOT
ATOM      1  C   LIG    1       -1.756  -0.286  -0.193  0.00  0.00    +0.284 C 
ENDROOT
BRANCH   1   2
ATOM      2  P   LIG    1       -2.552  -0.953   1.241  0.00  0.00    +0.356 P 
ATOM      3  O   LIG    1       -1.654  -1.522   2.285  0.00  0.00    -0.257 OA
BRANCH   2   4
ATOM      4  O   LIG    1       -3.500   0.248   1.993  0.00  0.00    -0.323 OA
ATOM      5  H   LIG    1       -3.749  -0.016   2.905  0.00  0.00    +0.220 HD
ENDBRANCH   2   4
BRANCH   2   6
ATOM      6  O   LIG    1       -3.633  -2.183   0.793  0.00  0.00    -0.323 OA
ATOM      7  H   LIG    1       -3.604  -2.318  -0.188  0.00  0.00    +0.220 HD
ENDBRANCH   2   6
ENDBRANCH   1   2
BRANCH   1   8
ATOM      8  N   LIG    1       -0.641   0.524  -0.040  0.00  0.00    -0.291 NA
ATOM      9  H   LIG    1       -0.583   1.323  -0.675  0.00  0.00    +0.124 HD
BRANCH   8  10
ATOM     10  C   LIG    1        0.495   0.105   0.640  0.00  0.00    +0.055 C 
ATOM     11  C   LIG    1        1.544   1.228   0.567  0.00  0.00    +0.019 C 
ATOM     12  C   LIG    1        2.757   0.793   1.323  0.00  0.00    +0.002 C 
ATOM     13  C   LIG    1        3.644  -0.124   0.536  0.00  0.00    +0.000 C 
ATOM     14  C   LIG    1        3.310  -0.175  -0.930  0.00  0.00    +0.000 C 
ATOM     15  C   LIG    1        1.953  -0.669  -1.247  0.00  0.00    +0.002 C 
ATOM     16  C   LIG    1        1.141  -1.083  -0.041  0.00  0.00    +0.019 C 
ENDBRANCH   8  10
ENDBRANCH   1   8
BRANCH   1  17
ATOM     17  P   LIG    1       -3.022   0.656  -1.140  0.00  0.00    +0.356 P 
ATOM     18  O   LIG    1       -2.748   2.147  -0.952  0.00  0.00    -0.257 OA
BRANCH  17  19
ATOM     19  O   LIG    1       -4.572   0.330  -0.550  0.00  0.00    -0.323 OA
ATOM     20  H   LIG    1       -5.241   0.259  -1.274  0.00  0.00    +0.220 HD
ENDBRANCH  17  19
BRANCH  17  21
ATOM     21  O   LIG    1       -2.900   0.340  -2.792  0.00  0.00    -0.323 OA
ATOM     22  H   LIG    1       -3.562  -0.362  -3.070  0.00  0.00    +0.220 HD
ENDBRANCH  17  21
ENDBRANCH   1  17
TORSDOF 8
