REMARK  Name = molecules/LWZCMKGGFONJPB-GOSISDBHSA-N.pdb
REMARK                            x       y       z     vdW  Elec       q    Type
REMARK                         _______ _______ _______ _____ _____    ______ ____
ROOT
ATOM      1  C   LIG    1        2.070  -1.137   0.304  0.00  0.00    +0.155 A 
ATOM      2  C   LIG    1        1.451  -0.686   1.444  0.00  0.00    +0.057 A 
ATOM      3  I   LIG    1        2.261  -0.880   3.365  0.00  0.00    -0.040 I 
ATOM      4  C   LIG    1        0.204  -0.056   1.339  0.00  0.00    +0.021 A 
ATOM      5  C   LIG    1       -0.419   0.124   0.122  0.00  0.00    -0.043 A 
ATOM      6  C   LIG    1        0.240  -0.346  -1.009  0.00  0.00    +0.021 A 
ATOM      7  C   LIG    1        1.469  -0.969  -0.926  0.00  0.00    +0.057 A 
ATOM      8  I   LIG    1        2.403  -1.655  -2.697  0.00  0.00    -0.040 I 
ENDROOT
BRANCH   1   9
ATOM      9  O   LIG    1        3.304  -1.757   0.430  0.00  0.00    -0.454 OA
BRANCH   9  10
ATOM     10  C   LIG    1        4.509  -1.084   0.382  0.00  0.00    +0.131 A 
ATOM     11  C   LIG    1        5.657  -1.847   0.525  0.00  0.00    +0.064 A 
ATOM     12  C   LIG    1        6.870  -1.198   0.481  0.00  0.00    +0.059 A 
ATOM     13  I   LIG    1        8.631  -2.354   0.697  0.00  0.00    -0.040 I 
ATOM     14  C   LIG    1        6.967   0.187   0.299  0.00  0.00    +0.143 A 
ATOM     15  C   LIG    1        5.822   0.941   0.157  0.00  0.00    +0.059 A 
ATOM     16  I   LIG    1        5.977   3.023  -0.116  0.00  0.00    -0.040 I 
ATOM     17  C   LIG    1        4.609   0.286   0.203  0.00  0.00    +0.064 A 
BRANCH  14  18
ATOM     18  O   LIG    1        8.240   0.753   0.268  0.00  0.00    -0.505 OA
ATOM     19  H   LIG    1        8.285   1.754   0.135  0.00  0.00    +0.292 HD
ENDBRANCH  14  18
ENDBRANCH   9  10
ENDBRANCH   1   9
BRANCH   5  20
ATOM     20  C   LIG    1       -1.731   0.788   0.015  0.00  0.00    +0.068 C 
BRANCH  20  21
ATOM     21  C   LIG    1       -2.885  -0.180   0.116  0.00  0.00    +0.116 C 
ATOM     22  C   LIG    1       -2.774  -1.203  -0.997  0.00  0.00    +0.040 C 
BRANCH  21  23
ATOM     23  N   LIG    1       -2.791  -0.852   1.382  0.00  0.00    -0.316 NA
ATOM     24  H   LIG    1       -3.102  -0.297   2.190  0.00  0.00    +0.119 HD
ATOM     25  H   LIG    1       -3.161  -1.826   1.372  0.00  0.00    +0.119 HD
ENDBRANCH  21  23
BRANCH  21  26
ATOM     26  C   LIG    1       -4.138   0.606  -0.004  0.00  0.00    +0.327 C 
ATOM     27  O   LIG    1       -4.945   0.607   0.956  0.00  0.00    -0.249 OA
BRANCH  26  28
ATOM     28  O   LIG    1       -4.464   1.340  -1.124  0.00  0.00    -0.464 OA
BRANCH  28  29
ATOM     29  C   LIG    1       -5.680   2.064  -1.160  0.00  0.00    +0.229 C 
ATOM     30  C   LIG    1       -6.871   1.128  -0.997  0.00  0.00    +0.048 C 
ENDBRANCH  28  29
ENDBRANCH  26  28
ENDBRANCH  21  26
ENDBRANCH  20  21
ENDBRANCH   5  20
TORSDOF 9
