REMARK  Name = molecules/LXBIFEVIBLOUGU-DPYQTVNSSA-N.pdb
REMARK                            x       y       z     vdW  Elec       q    Type
REMARK                         _______ _______ _______ _____ _____    ______ ____
ROOT
ATOM      1  C   LIG    1        1.655  -0.530  -0.087  0.00  0.00    +0.159 C 
ATOM      2  C   LIG    1        0.688  -1.484   0.489  0.00  0.00    +0.115 C 
ATOM      3  N   LIG    1       -0.660  -1.138   0.507  0.00  0.00    -0.306 NA
ATOM      4  H   LIG    1       -1.339  -1.910   0.422  0.00  0.00    +0.122 HD
ATOM      5  CA  LIG    1       -1.086   0.147   0.189  0.00  0.00    +0.111 C 
ATOM      6  C   LIG    1       -0.104   1.052  -0.472  0.00  0.00    +0.165 C 
ATOM      7  C   LIG    1        1.209   0.880   0.304  0.00  0.00    +0.174 C 
ENDROOT
BRANCH   6   8
ATOM      8  O   LIG    1        0.172   0.648  -1.776  0.00  0.00    -0.388 OA
ATOM      9  H   LIG    1        0.133   1.396  -2.423  0.00  0.00    +0.210 HD
ENDBRANCH   6   8
BRANCH   1  10
ATOM     10  O   LIG    1        2.947  -0.736   0.346  0.00  0.00    -0.388 OA
ATOM     11  H   LIG    1        3.026  -0.796   1.328  0.00  0.00    +0.210 HD
ENDBRANCH   1  10
BRANCH   7  12
ATOM     12  O   LIG    1        2.131   1.835  -0.005  0.00  0.00    -0.387 OA
ATOM     13  H   LIG    1        2.122   2.521   0.737  0.00  0.00    +0.210 HD
ENDBRANCH   7  12
BRANCH   5  14
ATOM     14  C   LIG    1       -2.356   0.050  -0.667  0.00  0.00    +0.177 C 
BRANCH  14  15
ATOM     15  O   LIG    1       -3.293  -0.625   0.130  0.00  0.00    -0.393 OA
ATOM     16  H   LIG    1       -3.060  -0.575   1.096  0.00  0.00    +0.209 HD
ENDBRANCH  14  15
ENDBRANCH   5  14
TORSDOF 5
