REMARK  Name = molecules/LXCFILQKKLGQFO-UHFFFAOYSA-N.pdb
REMARK                            x       y       z     vdW  Elec       q    Type
REMARK                         _______ _______ _______ _____ _____    ______ ____
ROOT
ATOM      1  C   LIG    1       -0.019  -0.275   0.126  0.00  0.00    +0.059 A 
ATOM      2  C   LIG    1        0.878  -1.214   0.575  0.00  0.00    +0.018 A 
ATOM      3  C   LIG    1        2.232  -0.966   0.635  0.00  0.00    +0.046 A 
ATOM      4  C   LIG    1        2.663   0.291   0.217  0.00  0.00    +0.117 A 
ATOM      5  C   LIG    1        1.785   1.249  -0.236  0.00  0.00    +0.046 A 
ATOM      6  C   LIG    1        0.445   0.956  -0.278  0.00  0.00    +0.018 A 
ENDROOT
BRANCH   1   7
ATOM      7  C   LIG    1       -1.461  -0.548   0.065  0.00  0.00    +0.339 C 
ATOM      8  O   LIG    1       -1.942  -1.652   0.421  0.00  0.00    -0.245 OA
BRANCH   7  10
ATOM      9  C   LIG    1       -3.742   0.219  -0.475  0.00  0.00    +0.280 C 
ATOM     10  O   LIG    1       -2.355   0.410  -0.390  0.00  0.00    -0.464 OA
ENDBRANCH   7  10
ENDBRANCH   1   7
BRANCH   4  11
ATOM     11  O   LIG    1        4.008   0.597   0.255  0.00  0.00    -0.507 OA
ATOM     12  H   LIG    1        4.591   0.402  -0.558  0.00  0.00    +0.292 HD
ENDBRANCH   4  11
TORSDOF 3
