REMARK  Name = molecules/LXIKEPCNDFVJKC-QXMHVHEDSA-N.pdb
REMARK                            x       y       z     vdW  Elec       q    Type
REMARK                         _______ _______ _______ _____ _____    ______ ____
ROOT
ATOM      1  C   LIG    1        1.206   1.484  -0.033  0.00  0.00    +0.143 C 
ATOM      2  C   LIG    1        0.021   0.935   0.025  0.00  0.00    +0.089 C 
ATOM      3  C   LIG    1       -1.234   1.668   0.322  0.00  0.00    +0.263 C 
ATOM      4  O   LIG    1       -1.287   2.917   0.515  0.00  0.00    -0.269 OA
ATOM      5  N   LIG    1       -2.297   0.729   0.344  0.00  0.00    -0.190 N 
ATOM      6  C   LIG    1       -3.659   1.046   0.597  0.00  0.00    +0.311 C 
ATOM      7  N   LIG    1       -4.009   2.390   0.846  0.00  0.00    -0.313 N 
ATOM      8  H   LIG    1       -3.570   3.021   1.553  0.00  0.00    +0.147 HD
ATOM      9  H   LIG    1       -4.790   2.836   0.279  0.00  0.00    +0.147 HD
ATOM     10  O   LIG    1       -4.519   0.138   0.596  0.00  0.00    -0.252 OA
ATOM     11  C   LIG    1       -1.732  -0.553   0.070  0.00  0.00    +0.054 A 
ATOM     12  C   LIG    1       -2.372  -1.773  -0.023  0.00  0.00    +0.026 A 
ATOM     13  C   LIG    1       -1.621  -2.893  -0.315  0.00  0.00    +0.022 A 
ATOM     14  C   LIG    1       -0.267  -2.779  -0.506  0.00  0.00    +0.042 A 
ATOM     15  C   LIG    1        0.391  -1.552  -0.414  0.00  0.00    +0.030 A 
ATOM     16 CL   LIG    1        0.659  -4.237  -0.881  0.00  0.00    -0.084 Cl
ATOM     17  C   LIG    1       -0.354  -0.443  -0.123  0.00  0.00    +0.014 A 
ENDROOT
BRANCH   1  18
ATOM     18  C   LIG    1        2.420   0.720  -0.261  0.00  0.00    +0.054 A 
ATOM     19  C   LIG    1        3.177   0.005   0.636  0.00  0.00    +0.019 A 
ATOM     20  C   LIG    1        4.268  -0.605   0.171  0.00  0.00    +0.008 A 
ATOM     21  C   LIG    1        4.554  -0.475  -1.163  0.00  0.00    +0.046 A 
ATOM     22  S   LIG    1        3.273   0.506  -1.726  0.00  0.00    -0.094 S 
ENDBRANCH   1  18
BRANCH   1  23
ATOM     23  O   LIG    1        1.323   2.883   0.139  0.00  0.00    -0.505 OA
ATOM     24  H   LIG    1        1.332   3.486  -0.688  0.00  0.00    +0.292 HD
ENDBRANCH   1  23
TORSDOF 2
