REMARK  Name = molecules/LXNHXLLTXMVWPM-UHFFFAOYSA-N.pdb
REMARK                            x       y       z     vdW  Elec       q    Type
REMARK                         _______ _______ _______ _____ _____    ______ ____
ROOT
ATOM      1  C   LIG    1        3.368   0.085  -0.284  0.00  0.00    +0.069 C 
ATOM      2  C   LIG    1        1.911  -0.205  -0.034  0.00  0.00    +0.080 A 
ATOM      3  N   LIG    1        1.501  -1.440   0.352  0.00  0.00    -0.256 NA
ATOM      4  C   LIG    1        0.183  -1.725   0.549  0.00  0.00    +0.117 A 
ATOM      5  C   LIG    1       -0.818  -0.768   0.378  0.00  0.00    +0.005 A 
ATOM      6  C   LIG    1       -0.358   0.467  -0.006  0.00  0.00    +0.028 A 
ATOM      7  C   LIG    1        0.972   0.728  -0.205  0.00  0.00    +0.143 A 
ENDROOT
BRANCH   7   8
ATOM      8  O   LIG    1        1.394   1.977  -0.604  0.00  0.00    -0.505 OA
ATOM      9  H   LIG    1        2.370   2.137  -0.800  0.00  0.00    +0.292 HD
ENDBRANCH   7   8
BRANCH   5  10
ATOM     10  C   LIG    1       -2.191  -1.113   0.683  0.00  0.00    +0.193 C 
BRANCH  10  11
ATOM     11  O   LIG    1       -2.886  -1.778  -0.336  0.00  0.00    -0.390 OA
ATOM     12  H   LIG    1       -2.270  -1.736  -1.168  0.00  0.00    +0.210 HD
ENDBRANCH  10  11
ENDBRANCH   5  10
BRANCH   6  13
ATOM     13  C   LIG    1       -1.407   1.474  -0.352  0.00  0.00    +0.195 C 
BRANCH  13  14
ATOM     14  O   LIG    1       -2.638   1.035  -0.065  0.00  0.00    -0.390 OA
ATOM     15  H   LIG    1       -3.072   1.615   0.618  0.00  0.00    +0.210 HD
ENDBRANCH  13  14
ENDBRANCH   6  13
TORSDOF 5
