REMARK  Name = molecules/LYPFDBRUNKHDGX-LWQDQPMZSA-N.pdb
REMARK                            x       y       z     vdW  Elec       q    Type
REMARK                         _______ _______ _______ _____ _____    ______ ____
ROOT
ATOM      1  C   LIG    1        3.020  -0.358   1.005  0.00  0.00    +0.030 C 
ATOM      2  C   LIG    1        2.740   0.953   1.325  0.00  0.00    +0.067 C 
ATOM      3  C   LIG    1        3.567   2.101   1.769  0.00  0.00    +0.039 C 
ATOM      4  C   LIG    1        2.908   3.260   1.105  0.00  0.00    +0.039 C 
ATOM      5  C   LIG    1        1.581   2.727   0.700  0.00  0.00    +0.067 C 
ATOM      6  C   LIG    1        0.530   3.170  -0.073  0.00  0.00    +0.030 C 
ATOM      7  C   LIG    1       -0.791   2.681  -0.131  0.00  0.00    +0.050 A 
ATOM      8  N   LIG    1       -1.252   1.425  -0.002  0.00  0.00    -0.354 N 
ATOM      9  H   LIG    1       -0.627   0.522   0.180  0.00  0.00    +0.166 HD
ATOM     10  C   LIG    1       -2.582   1.471  -0.135  0.00  0.00    +0.050 A 
ATOM     11  C   LIG    1       -3.550   0.452  -0.075  0.00  0.00    +0.031 C 
ATOM     12  C   LIG    1       -3.333  -0.912  -0.320  0.00  0.00    +0.074 C 
ATOM     13  N   LIG    1       -2.028  -1.308  -0.189  0.00  0.00    -0.247 NA
ATOM     14  C   LIG    1       -1.952  -2.626  -0.439  0.00  0.00    +0.074 C 
ATOM     15  C   LIG    1       -0.713  -3.253  -0.367  0.00  0.00    +0.031 C 
ATOM     16  C   LIG    1        0.518  -2.599  -0.137  0.00  0.00    +0.050 A 
ATOM     17  N   LIG    1        0.868  -1.633   0.723  0.00  0.00    -0.354 N 
ATOM     18  H   LIG    1        0.235  -1.189   1.527  0.00  0.00    +0.166 HD
ATOM     19  C   LIG    1        1.601  -2.936  -0.975  0.00  0.00    +0.028 A 
ATOM     20  C   LIG    1        2.636  -2.129  -0.597  0.00  0.00    +0.028 A 
ATOM     21  C   LIG    1       -3.273  -3.105  -0.747  0.00  0.00    +0.030 C 
ATOM     22  C   LIG    1       -4.107  -2.073  -0.676  0.00  0.00    +0.030 C 
ATOM     23  C   LIG    1       -2.989   2.796  -0.357  0.00  0.00    +0.028 A 
ATOM     24  C   LIG    1       -1.865   3.570  -0.356  0.00  0.00    +0.028 A 
ATOM     25  N   LIG    1        1.488   1.486   1.290  0.00  0.00    -0.248 NA
ATOM     26  C   LIG    1        2.150  -1.329   0.458  0.00  0.00    +0.050 A 
ENDROOT
BRANCH   1  31
ATOM     27  C   LIG    1        6.659  -0.908   0.356  0.00  0.00    +0.117 A 
ATOM     28  C   LIG    1        7.100  -1.365   1.597  0.00  0.00    +0.045 A 
ATOM     29  C   LIG    1        6.223  -1.489   2.630  0.00  0.00    +0.004 A 
ATOM     30  C   LIG    1        4.871  -1.166   2.477  0.00  0.00    +0.009 A 
ATOM     31  C   LIG    1        4.430  -0.718   1.264  0.00  0.00    -0.010 A 
ATOM     32  C   LIG    1        5.314  -0.595   0.231  0.00  0.00    +0.054 A 
BRANCH  27  33
ATOM     33  O   LIG    1        7.536  -0.773  -0.712  0.00  0.00    -0.507 OA
ATOM     34  H   LIG    1        7.632  -1.603  -1.305  0.00  0.00    +0.292 HD
ENDBRANCH  27  33
ENDBRANCH   1  31
BRANCH  11  35
ATOM     35  C   LIG    1       -4.967   0.713   0.270  0.00  0.00    -0.010 A 
ATOM     36  C   LIG    1       -5.255   0.851   1.617  0.00  0.00    +0.009 A 
ATOM     37  C   LIG    1       -6.537   1.096   2.064  0.00  0.00    +0.004 A 
ATOM     38  C   LIG    1       -7.538   1.201   1.133  0.00  0.00    +0.045 A 
ATOM     39  C   LIG    1       -7.235   1.059  -0.226  0.00  0.00    +0.117 A 
ATOM     40  C   LIG    1       -5.952   0.815  -0.660  0.00  0.00    +0.054 A 
BRANCH  39  41
ATOM     41  O   LIG    1       -8.298   1.178  -1.096  0.00  0.00    -0.507 OA
ATOM     42  H   LIG    1       -8.146   1.085  -2.078  0.00  0.00    +0.292 HD
ENDBRANCH  39  41
ENDBRANCH  11  35
BRANCH  15  43
ATOM     43  C   LIG    1       -0.760  -4.709  -0.590  0.00  0.00    -0.010 A 
ATOM     44  C   LIG    1       -0.756  -5.547   0.506  0.00  0.00    +0.054 A 
ATOM     45  C   LIG    1       -0.798  -6.917   0.362  0.00  0.00    +0.117 A 
ATOM     46  C   LIG    1       -0.844  -7.444  -0.910  0.00  0.00    +0.045 A 
ATOM     47  C   LIG    1       -0.850  -6.638  -2.035  0.00  0.00    +0.004 A 
ATOM     48  C   LIG    1       -0.807  -5.274  -1.836  0.00  0.00    +0.009 A 
BRANCH  45  49
ATOM     49  O   LIG    1       -0.793  -7.765   1.486  0.00  0.00    -0.507 OA
ATOM     50  H   LIG    1       -1.671  -8.043   1.910  0.00  0.00    +0.292 HD
ENDBRANCH  45  49
ENDBRANCH  15  43
BRANCH   6  51
ATOM     51  C   LIG    1        0.910   4.338  -0.931  0.00  0.00    -0.010 A 
ATOM     52  C   LIG    1        0.909   5.578  -0.335  0.00  0.00    +0.054 A 
ATOM     53  C   LIG    1        1.246   6.696  -1.068  0.00  0.00    +0.117 A 
ATOM     54  C   LIG    1        1.578   6.540  -2.389  0.00  0.00    +0.045 A 
ATOM     55  C   LIG    1        1.580   5.290  -2.987  0.00  0.00    +0.004 A 
ATOM     56  C   LIG    1        1.241   4.154  -2.254  0.00  0.00    +0.009 A 
BRANCH  53  57
ATOM     57  O   LIG    1        1.234   7.944  -0.432  0.00  0.00    -0.507 OA
ATOM     58  H   LIG    1        2.100   8.236   0.006  0.00  0.00    +0.292 HD
ENDBRANCH  53  57
ENDBRANCH   6  51
TORSDOF 8
