REMARK  Name = molecules/LZCDAPDGXCYOEH-AADAIPAGSA-N.pdb
REMARK                            x       y       z     vdW  Elec       q    Type
REMARK                         _______ _______ _______ _____ _____    ______ ____
ROOT
ATOM      1  C   LIG    1       -0.407  -2.877  -0.674  0.00  0.00    +0.046 A 
ATOM      2  C   LIG    1        0.835  -2.358  -0.388  0.00  0.00    +0.012 A 
ATOM      3  C   LIG    1        0.949  -1.036  -0.027  0.00  0.00    -0.017 A 
ATOM      4  C   LIG    1       -0.184  -0.249   0.043  0.00  0.00    +0.016 A 
ATOM      5  C   LIG    1       -1.449  -0.735  -0.237  0.00  0.00    +0.001 A 
ATOM      6  C   LIG    1       -1.528  -2.055  -0.593  0.00  0.00    +0.124 A 
ENDROOT
BRANCH   3   7
ATOM      7  C   LIG    1        2.289  -0.547   0.264  0.00  0.00    -0.017 A 
ATOM      8  C   LIG    1        2.455   0.454   1.197  0.00  0.00    +0.009 A 
ATOM      9  C   LIG    1        3.719   0.953   1.510  0.00  0.00    +0.009 A 
ATOM     10  C   LIG    1        4.830   0.442   0.881  0.00  0.00    -0.017 A 
ATOM     11  C   LIG    1        6.089   0.920   1.177  0.00  0.00    +0.023 A 
ATOM     12  C   LIG    1        7.219   0.422   0.557  0.00  0.00    +0.059 A 
ATOM     13  C   LIG    1        7.041  -0.577  -0.371  0.00  0.00    +0.015 A 
ATOM     14  C   LIG    1        5.783  -1.059  -0.670  0.00  0.00    +0.009 A 
ATOM     15  C   LIG    1        4.659  -0.560  -0.051  0.00  0.00    -0.017 A 
ATOM     16  C   LIG    1        3.406  -1.066  -0.373  0.00  0.00    +0.017 A 
BRANCH  12  17
ATOM     17  C   LIG    1        8.548   0.937   0.880  0.00  0.00    +0.337 C 
ATOM     18  O   LIG    1        9.565   0.495   0.330  0.00  0.00    -0.245 OA
BRANCH  17  19
ATOM     19  O   LIG    1        8.675   1.944   1.822  0.00  0.00    -0.477 OA
ATOM     20  H   LIG    1        9.187   1.820   2.685  0.00  0.00    +0.295 HD
ENDBRANCH  17  19
ENDBRANCH  12  17
ENDBRANCH   3   7
BRANCH   5  21
ATOM     21  C   LIG    1       -2.594   0.174  -0.136  0.00  0.00    -0.000 C 
ATOM     22  C   LIG    1       -3.625  -0.274   0.869  0.00  0.00    +0.015 C 
ATOM     23  C   LIG    1       -4.818   0.637   0.814  0.00  0.00    -0.010 C 
ATOM     24  C   LIG    1       -4.385   2.003   1.296  0.00  0.00    +0.007 C 
ATOM     25  C   LIG    1       -3.330   2.500   0.349  0.00  0.00    -0.010 C 
ATOM     26  C   LIG    1       -3.955   2.643  -1.018  0.00  0.00    +0.007 C 
ATOM     27  C   LIG    1       -4.377   1.282  -1.499  0.00  0.00    -0.010 C 
ATOM     28  C   LIG    1       -5.402   0.654  -0.562  0.00  0.00    +0.007 C 
ATOM     29  C   LIG    1       -2.138   1.563   0.306  0.00  0.00    +0.015 C 
ATOM     30  C   LIG    1       -3.183   0.352  -1.518  0.00  0.00    +0.015 C 
ENDBRANCH   5  21
BRANCH   6  31
ATOM     31  O   LIG    1       -2.774  -2.575  -0.879  0.00  0.00    -0.495 OA
ATOM     32  C   LIG    1       -2.968  -3.932  -1.260  0.00  0.00    +0.277 C 
ENDBRANCH   6  31
TORSDOF 5
