REMARK  Name = molecules/LZFZMUMEGBBDTC-QEJZJMRPSA-N.pdb
REMARK                            x       y       z     vdW  Elec       q    Type
REMARK                         _______ _______ _______ _____ _____    ______ ____
ROOT
ATOM      1  N   UNK A  1        0.387   1.306   0.800  0.00  0.00    -0.294 NA
ATOM      2  H   UNK A  1        0.639   2.241   1.153  0.00  0.00    +0.123 HD
ENDROOT
BRANCH   1   3
ATOM      3  C   UNK A  1       -0.850   0.779   1.112  0.00  0.00    +0.138 C 
ATOM      4  C   UNK A  1       -1.568   1.714   2.117  0.00  0.00    +0.034 C 
BRANCH   3   5
ATOM      5  C   UNK A  1       -1.768   0.605  -0.022  0.00  0.00    +0.233 C 
ATOM      6  N   PRO A  2       -3.052  -0.035   0.130  0.00  0.00    -0.287 N 
ATOM      7  CD  PRO A  2       -3.660  -0.626   1.298  0.00  0.00    +0.109 C 
ATOM      8  CG  PRO A  2       -4.013  -2.007   0.714  0.00  0.00    +0.021 C 
ATOM      9  CB  PRO A  2       -4.633  -1.563  -0.610  0.00  0.00    +0.035 C 
ATOM     10  CA  PRO A  2       -4.027  -0.230  -0.926  0.00  0.00    +0.184 C 
ATOM     11  O   UNK A  1       -1.535   0.978  -1.195  0.00  0.00    -0.274 OA
BRANCH  10  12
ATOM     12  C   PRO A  2       -5.102   0.801  -0.826  0.00  0.00    +0.325 C 
ATOM     13  O   PRO A  2       -6.047   0.792  -1.656  0.00  0.00    -0.249 OA
BRANCH  12  14
ATOM     14  OXT PRO A  2       -5.102   1.778   0.153  0.00  0.00    -0.479 OA
ATOM     15  HXT PRO A  2       -5.894   1.782   0.808  0.00  0.00    +0.295 HD
ENDBRANCH  12  14
ENDBRANCH  10  12
ENDBRANCH   3   5
ENDBRANCH   1   3
BRANCH   1  16
ATOM     16  C   UNK A  1        1.320   0.666  -0.048  0.00  0.00    +0.164 C 
BRANCH  16  17
ATOM     17  C   UNK A  1        1.189   0.936  -1.486  0.00  0.00    +0.322 C 
ATOM     18  O   UNK A  1        1.029   2.135  -1.910  0.00  0.00    -0.249 OA
BRANCH  17  19
ATOM     19  O   UNK A  1        1.221  -0.038  -2.449  0.00  0.00    -0.480 OA
ATOM     20  H   UNK A  1        0.482  -0.711  -2.616  0.00  0.00    +0.295 HD
ENDBRANCH  17  19
ENDBRANCH  16  17
BRANCH  16  21
ATOM     21  C   UNK A  1        1.716  -0.705   0.365  0.00  0.00    +0.035 C 
BRANCH  21  22
ATOM     22  C   UNK A  1        2.756  -1.384  -0.461  0.00  0.00    +0.037 C 
BRANCH  22  23
ATOM     23  C   UNK A  1        4.075  -0.716  -0.469  0.00  0.00    -0.047 A 
ATOM     24  C   UNK A  1        4.927  -0.971   0.601  0.00  0.00    +0.003 A 
ATOM     25  C   UNK A  1        6.160  -0.374   0.688  0.00  0.00    +0.000 A 
ATOM     26  C   UNK A  1        6.550   0.498  -0.320  0.00  0.00    +0.000 A 
ATOM     27  C   UNK A  1        5.710   0.744  -1.366  0.00  0.00    +0.000 A 
ATOM     28  C   UNK A  1        4.462   0.135  -1.449  0.00  0.00    +0.003 A 
ENDBRANCH  22  23
ENDBRANCH  21  22
ENDBRANCH  16  21
ENDBRANCH   1  16
TORSDOF 10
