REMARK  Name = molecules/LZRDDINFIHUVCX-UHFFFAOYSA-N.pdb
REMARK                            x       y       z     vdW  Elec       q    Type
REMARK                         _______ _______ _______ _____ _____    ______ ____
ROOT
ATOM      1  C   LIG    1        0.968  -0.648   0.125  0.00  0.00    +0.064 A 
ATOM      2  N   LIG    1        1.597   0.503   0.454  0.00  0.00    -0.235 N 
ATOM      3  N   LIG    1        0.768   1.504   0.516  0.00  0.00    -0.165 NA
ATOM      4  C   LIG    1       -0.468   1.047   0.223  0.00  0.00    +0.101 A 
ATOM      5  C   LIG    1       -0.353  -0.328  -0.028  0.00  0.00    +0.032 A 
ENDROOT
BRANCH   2   6
ATOM      6  C   LIG    1        3.016   0.575   0.696  0.00  0.00    +0.066 A 
ATOM      7  C   LIG    1        3.543  -0.098   1.772  0.00  0.00    +0.028 A 
ATOM      8  C   LIG    1        4.898  -0.046   2.023  0.00  0.00    +0.002 A 
ATOM      9  C   LIG    1        5.747   0.677   1.206  0.00  0.00    +0.000 A 
ATOM     10  C   LIG    1        5.190   1.342   0.134  0.00  0.00    +0.002 A 
ATOM     11  C   LIG    1        3.843   1.294  -0.120  0.00  0.00    +0.028 A 
ENDBRANCH   2   6
BRANCH   4  12
ATOM     12  C   LIG    1       -1.669   1.865   0.179  0.00  0.00    +0.003 A 
ATOM     13  C   LIG    1       -2.135   2.450   1.334  0.00  0.00    +0.010 A 
ATOM     14  C   LIG    1       -3.264   3.239   1.344  0.00  0.00    +0.001 A 
ATOM     15  C   LIG    1       -3.973   3.474   0.196  0.00  0.00    +0.000 A 
ATOM     16  C   LIG    1       -3.524   2.896  -0.977  0.00  0.00    +0.001 A 
ATOM     17  C   LIG    1       -2.393   2.111  -0.963  0.00  0.00    +0.010 A 
ENDBRANCH   4  12
BRANCH   5  18
ATOM     18  C   LIG    1       -1.515  -1.120  -0.344  0.00  0.00    -0.014 A 
ATOM     19  C   LIG    1       -2.397  -1.438   0.709  0.00  0.00    +0.008 A 
ATOM     20  C   LIG    1       -3.538  -2.184   0.506  0.00  0.00    +0.001 A 
ATOM     21  C   LIG    1       -3.855  -2.648  -0.750  0.00  0.00    +0.000 A 
ATOM     22  C   LIG    1       -3.015  -2.351  -1.786  0.00  0.00    +0.001 A 
ATOM     23  C   LIG    1       -1.864  -1.594  -1.564  0.00  0.00    +0.008 A 
ENDBRANCH   5  18
BRANCH   1  24
ATOM     24  C   LIG    1        1.547  -1.990  -0.055  0.00  0.00    +0.176 C 
BRANCH  24  25
ATOM     25  C   LIG    1        1.715  -2.209  -1.524  0.00  0.00    +0.311 C 
ATOM     26  O   LIG    1        1.434  -1.346  -2.373  0.00  0.00    -0.251 OA
BRANCH  25  27
ATOM     27  O   LIG    1        2.206  -3.426  -1.979  0.00  0.00    -0.480 OA
ATOM     28  H   LIG    1        1.738  -3.861  -2.765  0.00  0.00    +0.295 HD
ENDBRANCH  25  27
ENDBRANCH  24  25
ENDBRANCH   1  24
TORSDOF 6
