REMARK  Name = molecules/MAEIEVLCKWDQJH-UHFFFAOYSA-N.pdb
REMARK                            x       y       z     vdW  Elec       q    Type
REMARK                         _______ _______ _______ _____ _____    ______ ____
ROOT
ATOM      1  C   LIG    1       -1.093  -0.577   0.207  0.00  0.00    +0.175 A 
ATOM      2  C   LIG    1       -2.263  -1.264  -0.027  0.00  0.00    +0.150 A 
ATOM      3  C   LIG    1       -2.237  -2.278  -0.976  0.00  0.00    +0.047 A 
ATOM      4  C   LIG    1       -1.129  -2.622  -1.678  0.00  0.00    +0.063 A 
ATOM      5  C   LIG    1        0.015  -1.940  -1.439  0.00  0.00    +0.041 A 
ATOM      6  C   LIG    1        0.058  -0.931  -0.516  0.00  0.00    +0.073 A 
ENDROOT
BRANCH   2   7
ATOM      7  S   LIG    1       -3.764  -0.925   0.797  0.00  0.00    +0.060 S 
ATOM      8  O   LIG    1       -4.737  -2.073   0.480  0.00  0.00    -0.153 OA
ATOM      9  O   LIG    1       -4.460   0.284   0.324  0.00  0.00    -0.153 OA
BRANCH   7  10
ATOM     10  N   LIG    1       -3.591  -1.025   2.522  0.00  0.00    -0.203 NA
ATOM     11  H   LIG    1       -4.565  -1.094   2.901  0.00  0.00    +0.144 HD
ATOM     12  H   LIG    1       -3.129  -1.941   2.709  0.00  0.00    +0.144 HD
ENDBRANCH   7  10
ENDBRANCH   2   7
BRANCH   4  13
ATOM     13  C   LIG    1       -1.167  -3.696  -2.663  0.00  0.00    +0.337 C 
ATOM     14  O   LIG    1       -2.240  -4.293  -2.848  0.00  0.00    -0.245 OA
BRANCH  13  15
ATOM     15  O   LIG    1       -0.039  -4.030  -3.362  0.00  0.00    -0.477 OA
ATOM     16  H   LIG    1       -0.003  -4.022  -4.378  0.00  0.00    +0.295 HD
ENDBRANCH  13  15
ENDBRANCH   4  13
BRANCH   6  17
ATOM     17  N   LIG    1        1.305  -0.298  -0.288  0.00  0.00    -0.341 N 
ATOM     18  H   LIG    1        1.474   0.421   0.446  0.00  0.00    +0.146 HD
BRANCH  17  19
ATOM     19  C   LIG    1        2.461  -0.646  -1.087  0.00  0.00    +0.101 C 
BRANCH  19  20
ATOM     20  C   LIG    1        3.689   0.107  -0.720  0.00  0.00    +0.018 C 
BRANCH  20  21
ATOM     21  C   LIG    1        4.060  -0.158   0.726  0.00  0.00    -0.002 C 
ATOM     22  C   LIG    1        5.309   0.621   1.068  0.00  0.00    +0.004 C 
ENDBRANCH  20  21
ENDBRANCH  19  20
ENDBRANCH  17  19
ENDBRANCH   6  17
BRANCH   1  23
ATOM     23  O   LIG    1       -1.009   0.446   1.123  0.00  0.00    -0.452 OA
BRANCH  23  24
ATOM     24  C   LIG    1       -1.297   1.768   0.994  0.00  0.00    +0.129 A 
ATOM     25  C   LIG    1       -2.405   2.290   1.621  0.00  0.00    +0.046 A 
ATOM     26  C   LIG    1       -2.695   3.626   1.495  0.00  0.00    +0.004 A 
ATOM     27  C   LIG    1       -1.900   4.496   0.744  0.00  0.00    +0.000 A 
ATOM     28  C   LIG    1       -0.792   3.990   0.112  0.00  0.00    +0.004 A 
ATOM     29  C   LIG    1       -0.507   2.637   0.246  0.00  0.00    +0.046 A 
ENDBRANCH  23  24
ENDBRANCH   1  23
TORSDOF 10
