REMARK  Name = molecules/MAJFXTGRPADJLU-UHFFFAOYSA-N.pdb
REMARK                            x       y       z     vdW  Elec       q    Type
REMARK                         _______ _______ _______ _____ _____    ______ ____
ROOT
ATOM      1  C   LIG    1       -0.747  -0.616   0.987  0.00  0.00    +0.081 C 
ATOM      2  C   LIG    1        0.693  -0.687   1.163  0.00  0.00    +0.118 C 
ATOM      3  C   LIG    1        1.500  -1.281   0.119  0.00  0.00    +0.055 C 
ATOM      4  N   LIG    1        1.278  -1.914  -0.991  0.00  0.00    -0.249 NA
ATOM      5  C   LIG    1        0.009  -2.237  -1.551  0.00  0.00    +0.089 A 
ATOM      6  C   LIG    1       -1.242  -1.885  -1.080  0.00  0.00    +0.090 A 
ATOM      7  C   LIG    1       -2.403  -2.265  -1.710  0.00  0.00    +0.030 A 
ATOM      8  C   LIG    1       -2.339  -3.016  -2.844  0.00  0.00    +0.002 A 
ATOM      9  C   LIG    1       -1.088  -3.378  -3.330  0.00  0.00    +0.002 A 
ATOM     10  C   LIG    1        0.078  -2.994  -2.694  0.00  0.00    +0.030 A 
ATOM     11  N   LIG    1       -1.496  -1.108   0.079  0.00  0.00    -0.243 NA
ENDROOT
BRANCH   3  12
ATOM     12  C   LIG    1        2.953  -1.145   0.371  0.00  0.00    -0.003 A 
ATOM     13  C   LIG    1        3.440  -0.519   1.513  0.00  0.00    +0.011 A 
ATOM     14  C   LIG    1        4.810  -0.403   1.744  0.00  0.00    +0.016 A 
ATOM     15  C   LIG    1        5.719  -0.905   0.851  0.00  0.00    +0.013 A 
ATOM     16  C   LIG    1        5.258  -1.536  -0.299  0.00  0.00    +0.016 A 
ATOM     17  C   LIG    1        3.899  -1.636  -0.502  0.00  0.00    +0.011 A 
BRANCH  15  18
ATOM     18  S   LIG    1        7.479  -0.800   1.078  0.00  0.00    -0.089 S 
BRANCH  18  19
ATOM     19  C   LIG    1        8.101   0.704   0.348  0.00  0.00    +0.013 A 
ATOM     20  C   LIG    1        9.465   0.972   0.421  0.00  0.00    +0.015 A 
ATOM     21  C   LIG    1        9.979   2.130  -0.135  0.00  0.00    +0.001 A 
ATOM     22  C   LIG    1        9.127   3.014  -0.761  0.00  0.00    +0.000 A 
ATOM     23  C   LIG    1        7.776   2.745  -0.830  0.00  0.00    +0.001 A 
ATOM     24  C   LIG    1        7.251   1.591  -0.278  0.00  0.00    +0.015 A 
ENDBRANCH  18  19
ENDBRANCH  15  18
ENDBRANCH   3  12
BRANCH   1  25
ATOM     25  S   LIG    1       -1.628   0.302   2.244  0.00  0.00    -0.112 S 
BRANCH  25  26
ATOM     26  C   LIG    1       -3.388   0.288   1.854  0.00  0.00    +0.057 C 
BRANCH  26  27
ATOM     27  C   LIG    1       -3.611   1.075   0.614  0.00  0.00    -0.064 C 
BRANCH  27  28
ATOM     28  N   LIG    1       -5.033   1.120   0.224  0.00  0.00    +0.378 N 
ATOM     29  C   LIG    1       -5.621   2.181   0.993  0.00  0.00    -0.092 C 
BRANCH  28  30
ATOM     30  C   LIG    1       -5.591  -0.132   0.668  0.00  0.00    -0.079 C 
ATOM     31  C   LIG    1       -7.046  -0.314   0.311  0.00  0.00    -0.016 C 
ENDBRANCH  28  30
BRANCH  28  32
ATOM     32  C   LIG    1       -5.048   1.319  -1.181  0.00  0.00    -0.079 C 
ATOM     33  C   LIG    1       -6.344   1.708  -1.785  0.00  0.00    -0.016 C 
ENDBRANCH  28  32
ENDBRANCH  27  28
ENDBRANCH  26  27
ENDBRANCH  25  26
ENDBRANCH   1  25
TORSDOF 9
