REMARK  Name = molecules/MBBCVAKAJPKAKM-UHFFFAOYSA-N.pdb
REMARK                            x       y       z     vdW  Elec       q    Type
REMARK                         _______ _______ _______ _____ _____    ______ ____
ROOT
ATOM      1  C   LIG    1       -0.938  -0.585   0.426  0.00  0.00    +0.084 C 
ENDROOT
BRANCH   1   2
ATOM      2  N   LIG    1        0.419  -0.188   0.346  0.00  0.00    -0.302 NA
ATOM      3  C   LIG    1        0.667   1.177   0.138  0.00  0.00    +0.086 C 
ATOM      4  C   LIG    1        2.067   1.649   0.088  0.00  0.00    +0.037 C 
ATOM      5  C   LIG    1        3.067   0.565   0.487  0.00  0.00    +0.076 C 
ATOM      6  C   LIG    1        2.740  -0.636  -0.325  0.00  0.00    +0.037 C 
ATOM      7  C   LIG    1        1.352  -1.144  -0.082  0.00  0.00    +0.086 C 
BRANCH   5   8
ATOM      8  N   LIG    1        4.365   1.127   0.145  0.00  0.00    -0.308 N 
ATOM      9  C   LIG    1        5.312   1.594   1.050  0.00  0.00    +0.245 C 
ATOM     10  O   LIG    1        5.075   1.555   2.281  0.00  0.00    -0.270 OA
ATOM     11  H   LIG    1        4.553   1.187  -0.878  0.00  0.00    +0.149 HD
BRANCH   9  12
ATOM     12  C   LIG    1        6.584   2.147   0.614  0.00  0.00    +0.044 A 
ATOM     13  C   LIG    1        6.753   3.546   0.714  0.00  0.00    +0.013 A 
ATOM     14  C   LIG    1        7.873   4.200   0.294  0.00  0.00    +0.001 A 
ATOM     15  C   LIG    1        8.915   3.502  -0.262  0.00  0.00    +0.001 A 
ATOM     16  C   LIG    1        8.776   2.142  -0.369  0.00  0.00    +0.009 A 
ATOM     17  C   LIG    1        7.616   1.457   0.067  0.00  0.00    -0.006 A 
BRANCH  17  18
ATOM     18  C   LIG    1        7.734   0.013  -0.086  0.00  0.00    -0.017 A 
ATOM     19  C   LIG    1        8.862  -0.584   0.535  0.00  0.00    +0.009 A 
ATOM     20  C   LIG    1        9.121  -1.909   0.496  0.00  0.00    +0.013 A 
ATOM     21  C   LIG    1        8.244  -2.728  -0.182  0.00  0.00    +0.055 A 
ATOM     22  C   LIG    1        7.153  -2.180  -0.788  0.00  0.00    +0.013 A 
ATOM     23  C   LIG    1        6.890  -0.806  -0.745  0.00  0.00    +0.009 A 
BRANCH  21  24
ATOM     24  C   LIG    1        8.507  -4.178  -0.238  0.00  0.00    +0.417 C 
ATOM     25  F   LIG    1        9.690  -4.467   0.433  0.00  0.00    -0.166 F 
ATOM     26  F   LIG    1        7.485  -4.879   0.391  0.00  0.00    -0.166 F 
ATOM     27  F   LIG    1        8.630  -4.651  -1.516  0.00  0.00    -0.166 F 
ENDBRANCH  21  24
ENDBRANCH  17  18
ENDBRANCH   9  12
ENDBRANCH   5   8
ENDBRANCH   1   2
BRANCH   1  28
ATOM     28  C   LIG    1       -1.776   0.578   0.883  0.00  0.00    +0.015 C 
BRANCH  28  29
ATOM     29  C   LIG    1       -3.241   0.275   1.007  0.00  0.00    +0.003 C 
BRANCH  29  30
ATOM     30  C   LIG    1       -3.868  -0.181  -0.278  0.00  0.00    +0.026 C 
BRANCH  30  31
ATOM     31  C   LIG    1       -5.341  -0.455  -0.133  0.00  0.00    +0.098 C 
ATOM     32  C   LIG    1       -5.661  -1.541   0.819  0.00  0.00    -0.020 A 
ATOM     33  C   LIG    1       -6.647  -1.100   1.657  0.00  0.00    -0.013 A 
ATOM     34  C   LIG    1       -7.214  -1.907   2.651  0.00  0.00    +0.009 A 
ATOM     35  C   LIG    1       -6.742  -3.196   2.772  0.00  0.00    +0.001 A 
ATOM     36  C   LIG    1       -5.747  -3.661   1.943  0.00  0.00    +0.000 A 
ATOM     37  C   LIG    1       -6.928   0.303   1.350  0.00  0.00    -0.013 A 
ATOM     38  C   LIG    1       -7.808   1.181   1.977  0.00  0.00    +0.009 A 
ATOM     39  C   LIG    1       -7.867   2.493   1.572  0.00  0.00    +0.001 A 
ATOM     40  C   LIG    1       -7.061   2.924   0.557  0.00  0.00    +0.000 A 
ATOM     41  C   LIG    1       -6.203   2.035  -0.044  0.00  0.00    +0.005 A 
ATOM     42  C   LIG    1       -5.213  -2.844   0.978  0.00  0.00    +0.005 A 
ATOM     43  C   LIG    1       -6.107   0.694   0.330  0.00  0.00    -0.020 A 
BRANCH  31  44
ATOM     44  C   LIG    1       -5.914  -0.916  -1.442  0.00  0.00    +0.228 C 
ATOM     45  O   LIG    1       -6.282  -2.149  -1.548  0.00  0.00    -0.274 OA
ATOM     46  N   LIG    1       -6.074  -0.085  -2.548  0.00  0.00    -0.306 N 
ATOM     47  H   LIG    1       -5.799   0.896  -2.541  0.00  0.00    +0.149 HD
BRANCH  46  48
ATOM     48  C   LIG    1       -6.649  -0.600  -3.792  0.00  0.00    +0.217 C 
BRANCH  48  49
ATOM     49  C   LIG    1       -6.743   0.514  -4.828  0.00  0.00    +0.405 C 
ATOM     50  F   LIG    1       -7.574   1.535  -4.344  0.00  0.00    -0.169 F 
ATOM     51  F   LIG    1       -5.501   1.063  -5.018  0.00  0.00    -0.169 F 
ATOM     52  F   LIG    1       -7.275   0.066  -6.003  0.00  0.00    -0.169 F 
ENDBRANCH  48  49
ENDBRANCH  46  48
ENDBRANCH  31  44
ENDBRANCH  30  31
ENDBRANCH  29  30
ENDBRANCH  28  29
ENDBRANCH   1  28
TORSDOF 12
