REMARK  Name = molecules/MBGGBVCUIVRRBF-LJAQVGFWSA-N.pdb
REMARK                            x       y       z     vdW  Elec       q    Type
REMARK                         _______ _______ _______ _____ _____    ______ ____
ROOT
ATOM      1  O   LIG    1       -0.389   2.836   0.653  0.00  0.00    -0.273 OA
ATOM      2  C   LIG    1       -0.537   1.593   0.647  0.00  0.00    +0.249 C 
ATOM      3  C   LIG    1        0.547   0.635   0.958  0.00  0.00    +0.165 C 
ATOM      4  C   LIG    1        0.157  -0.531   0.153  0.00  0.00    +0.249 C 
ATOM      5  N   LIG    1       -1.279  -0.513   0.059  0.00  0.00    -0.180 N 
ATOM      6  O   LIG    1        0.911  -1.399  -0.368  0.00  0.00    -0.273 OA
ATOM      7  N   LIG    1       -1.687   0.799   0.365  0.00  0.00    -0.180 N 
ENDROOT
BRANCH   5   8
ATOM      8  C   LIG    1       -2.109  -1.633  -0.287  0.00  0.00    +0.057 A 
ATOM      9  C   LIG    1       -2.137  -2.779   0.480  0.00  0.00    +0.025 A 
ATOM     10  C   LIG    1       -2.914  -3.880   0.197  0.00  0.00    +0.002 A 
ATOM     11  C   LIG    1       -3.708  -3.835  -0.917  0.00  0.00    +0.000 A 
ATOM     12  C   LIG    1       -3.697  -2.694  -1.706  0.00  0.00    +0.002 A 
ATOM     13  C   LIG    1       -2.913  -1.600  -1.407  0.00  0.00    +0.025 A 
ENDBRANCH   5   8
BRANCH   7  14
ATOM     14  C   LIG    1       -3.016   1.279   0.399  0.00  0.00    +0.057 A 
ATOM     15  C   LIG    1       -4.003   0.449   0.940  0.00  0.00    +0.025 A 
ATOM     16  C   LIG    1       -5.308   0.881   0.989  0.00  0.00    +0.002 A 
ATOM     17  C   LIG    1       -5.680   2.118   0.518  0.00  0.00    +0.000 A 
ATOM     18  C   LIG    1       -4.721   2.951  -0.019  0.00  0.00    +0.002 A 
ATOM     19  C   LIG    1       -3.424   2.498  -0.058  0.00  0.00    +0.025 A 
ENDBRANCH   7  14
BRANCH   3  20
ATOM     20  C   LIG    1        1.919   1.151   0.703  0.00  0.00    +0.035 C 
BRANCH  20  21
ATOM     21  C   LIG    1        2.173   1.542  -0.722  0.00  0.00    +0.096 C 
BRANCH  21  22
ATOM     22  S   LIG    1        3.866   2.139  -0.849  0.00  0.00    -0.012 S 
ATOM     23  O   LIG    1        4.120   2.456  -2.327  0.00  0.00    -0.157 OA
BRANCH  22  24
ATOM     24  C   LIG    1        4.953   0.838  -0.360  0.00  0.00    +0.026 A 
ATOM     25  C   LIG    1        5.336   0.740   0.954  0.00  0.00    +0.016 A 
ATOM     26  C   LIG    1        6.186  -0.273   1.347  0.00  0.00    +0.001 A 
ATOM     27  C   LIG    1        6.644  -1.182   0.415  0.00  0.00    +0.000 A 
ATOM     28  C   LIG    1        6.257  -1.080  -0.903  0.00  0.00    +0.001 A 
ATOM     29  C   LIG    1        5.409  -0.065  -1.281  0.00  0.00    +0.016 A 
ENDBRANCH  22  24
ENDBRANCH  21  22
ENDBRANCH  20  21
ENDBRANCH   3  20
TORSDOF 6
