REMARK  Name = molecules/MBMBGCFOFBJSGT-KUBAVDMBSA-N.pdb
REMARK                            x       y       z     vdW  Elec       q    Type
REMARK                         _______ _______ _______ _____ _____    ______ ____
ROOT
ATOM      1  C   LIG    1       -0.899   2.032   1.522  0.00  0.00    -0.027 C 
ATOM      2  C   LIG    1        0.238   2.639   1.498  0.00  0.00    -0.027 C 
ENDROOT
BRANCH   1   3
ATOM      3  C   LIG    1       -1.512   1.240   0.449  0.00  0.00    +0.053 C 
BRANCH   3   4
ATOM      4  C   LIG    1       -2.804   1.812   0.010  0.00  0.00    -0.027 C 
ATOM      5  C   LIG    1       -3.937   1.162   0.078  0.00  0.00    -0.027 C 
BRANCH   5   6
ATOM      6  C   LIG    1       -3.986  -0.210   0.608  0.00  0.00    +0.053 C 
BRANCH   6   7
ATOM      7  C   LIG    1       -4.502  -1.209  -0.339  0.00  0.00    -0.027 C 
ATOM      8  C   LIG    1       -5.515  -1.979  -0.025  0.00  0.00    -0.030 C 
BRANCH   8   9
ATOM      9  C   LIG    1       -6.271  -1.992   1.240  0.00  0.00    +0.038 C 
BRANCH   9  10
ATOM     10  C   LIG    1       -7.737  -1.746   0.948  0.00  0.00    +0.124 C 
BRANCH  10  11
ATOM     11  C   LIG    1       -8.021  -0.470   0.287  0.00  0.00    +0.305 C 
ATOM     12  O   LIG    1       -7.131   0.340  -0.014  0.00  0.00    -0.251 OA
BRANCH  11  13
ATOM     13  O   LIG    1       -9.329  -0.092  -0.045  0.00  0.00    -0.481 OA
ATOM     14  H   LIG    1       -9.484   0.267  -0.974  0.00  0.00    +0.295 HD
ENDBRANCH  11  13
ENDBRANCH  10  11
ENDBRANCH   9  10
ENDBRANCH   8   9
ENDBRANCH   6   7
ENDBRANCH   5   6
ENDBRANCH   3   4
ENDBRANCH   1   3
BRANCH   2  15
ATOM     15  C   LIG    1        1.200   2.714   0.434  0.00  0.00    +0.053 C 
BRANCH  15  16
ATOM     16  C   LIG    1        0.999   2.139  -0.875  0.00  0.00    -0.027 C 
ATOM     17  C   LIG    1        1.773   1.172  -1.321  0.00  0.00    -0.027 C 
BRANCH  17  18
ATOM     18  C   LIG    1        2.890   0.584  -0.561  0.00  0.00    +0.053 C 
BRANCH  18  19
ATOM     19  C   LIG    1        4.112   0.850  -1.409  0.00  0.00    -0.027 C 
ATOM     20  C   LIG    1        4.902  -0.062  -1.905  0.00  0.00    -0.027 C 
BRANCH  20  21
ATOM     21  C   LIG    1        4.760  -1.472  -1.742  0.00  0.00    +0.053 C 
BRANCH  21  22
ATOM     22  C   LIG    1        5.713  -2.315  -1.084  0.00  0.00    -0.027 C 
ATOM     23  C   LIG    1        6.817  -2.069  -0.472  0.00  0.00    -0.031 C 
BRANCH  23  24
ATOM     24  C   LIG    1        7.382  -0.722  -0.301  0.00  0.00    +0.023 C 
ATOM     25  C   LIG    1        7.508  -0.549   1.251  0.00  0.00    +0.008 C 
ENDBRANCH  23  24
ENDBRANCH  21  22
ENDBRANCH  20  21
ENDBRANCH  18  19
ENDBRANCH  17  18
ENDBRANCH  15  16
ENDBRANCH   2  15
TORSDOF 15
