REMARK  Name = molecules/MBNGWHIJMBWFHU-UHFFFAOYSA-N.pdb
REMARK                            x       y       z     vdW  Elec       q    Type
REMARK                         _______ _______ _______ _____ _____    ______ ____
ROOT
ATOM      1  O   LIG    1       -2.986  -0.348  -2.660  0.00  0.00    -0.287 OA
ATOM      2  C   LIG    1       -2.347  -0.166  -1.612  0.00  0.00    +0.197 A 
ATOM      3  C   LIG    1       -3.043   0.169  -0.471  0.00  0.00    +0.105 A 
ATOM      4  C   LIG    1       -2.295   0.363   0.676  0.00  0.00    +0.146 A 
ATOM      5  C   LIG    1       -2.989   0.702   1.832  0.00  0.00    +0.092 A 
ATOM      6  C   LIG    1       -4.353   0.843   1.860  0.00  0.00    +0.124 A 
ATOM      7  C   LIG    1       -5.098   0.652   0.724  0.00  0.00    +0.091 A 
ATOM      8  O   LIG    1       -0.992   0.237   0.690  0.00  0.00    -0.454 OA
ATOM      9  C   LIG    1       -0.281  -0.080  -0.366  0.00  0.00    +0.139 A 
ATOM     10  C   LIG    1       -4.413   0.312  -0.440  0.00  0.00    +0.135 A 
ATOM     11  C   LIG    1       -0.954  -0.288  -1.541  0.00  0.00    +0.098 A 
ENDROOT
BRANCH   9  12
ATOM     12  C   LIG    1        1.171  -0.204  -0.281  0.00  0.00    +0.021 A 
ATOM     13  C   LIG    1        1.827   0.014   0.934  0.00  0.00    +0.060 A 
ATOM     14  C   LIG    1        3.195  -0.088   1.078  0.00  0.00    +0.159 A 
ATOM     15  C   LIG    1        3.986  -0.418  -0.001  0.00  0.00    +0.161 A 
ATOM     16  C   LIG    1        3.367  -0.639  -1.211  0.00  0.00    +0.050 A 
ATOM     17  C   LIG    1        1.976  -0.533  -1.346  0.00  0.00    +0.015 A 
BRANCH  14  18
ATOM     18  O   LIG    1        3.801   0.136   2.293  0.00  0.00    -0.503 OA
ATOM     19  H   LIG    1        3.333   0.381   3.144  0.00  0.00    +0.292 HD
ENDBRANCH  14  18
BRANCH  15  20
ATOM     20  O   LIG    1        5.364  -0.535   0.084  0.00  0.00    -0.491 OA
ATOM     21  C   LIG    1        6.193  -0.867  -0.986  0.00  0.00    +0.277 C 
ENDBRANCH  15  20
ENDBRANCH   9  12
BRANCH   6  22
ATOM     22  O   LIG    1       -5.004   1.185   3.046  0.00  0.00    -0.507 OA
ATOM     23  H   LIG    1       -5.159   2.160   3.281  0.00  0.00    +0.292 HD
ENDBRANCH   6  22
BRANCH  10  24
ATOM     24  O   LIG    1       -5.114   0.104  -1.627  0.00  0.00    -0.506 OA
ATOM     25  H   LIG    1       -6.127   0.205  -1.627  0.00  0.00    +0.292 HD
ENDBRANCH  10  24
TORSDOF 5
