REMARK  Name = molecules/MBUVEWMHONZEQD-GOSISDBHSA-N.pdb
REMARK                            x       y       z     vdW  Elec       q    Type
REMARK                         _______ _______ _______ _____ _____    ______ ____
ROOT
ATOM      1  C   LIG    1        1.450  -0.092  -1.164  0.00  0.00    +0.074 A 
ATOM      2  N   LIG    1        0.250   0.362  -0.687  0.00  0.00    -0.172 NA
ATOM      3  N   LIG    1       -0.691  -0.435  -0.228  0.00  0.00    -0.226 N 
ATOM      4  C   LIG    1       -0.514  -1.768  -0.204  0.00  0.00    +0.275 A 
ATOM      5  O   LIG    1       -1.377  -2.571   0.224  0.00  0.00    -0.266 OA
ATOM      6  C   LIG    1        0.675  -2.276  -0.673  0.00  0.00    +0.050 A 
ATOM      7  C   LIG    1        0.873  -3.641  -0.668  0.00  0.00    +0.014 A 
ATOM      8  C   LIG    1        2.064  -4.183  -1.148  0.00  0.00    +0.001 A 
ATOM      9  C   LIG    1        3.065  -3.374  -1.637  0.00  0.00    +0.001 A 
ATOM     10  C   LIG    1        2.832  -2.020  -1.625  0.00  0.00    +0.010 A 
ATOM     11  C   LIG    1        1.676  -1.432  -1.162  0.00  0.00    +0.011 A 
ENDROOT
BRANCH   3  12
ATOM     12  C   LIG    1       -1.961   0.067   0.275  0.00  0.00    +0.112 C 
ATOM     13  C   LIG    1       -1.938   0.056   1.767  0.00  0.00    +0.028 C 
ATOM     14  C   LIG    1       -2.900   1.139   2.273  0.00  0.00    +0.017 C 
ATOM     15  C   LIG    1       -4.250   0.843   1.639  0.00  0.00    +0.084 C 
ATOM     16  N   LIG    1       -4.195   1.238   0.269  0.00  0.00    -0.305 NA
ATOM     17  C   LIG    1       -5.016   2.348  -0.084  0.00  0.00    +0.104 C 
ATOM     18  C   LIG    1       -4.287   0.120  -0.651  0.00  0.00    +0.086 C 
ATOM     19  C   LIG    1       -3.071  -0.763  -0.327  0.00  0.00    +0.042 C 
ENDBRANCH   3  12
BRANCH   1  20
ATOM     20  C   LIG    1        2.474   0.864  -1.621  0.00  0.00    +0.093 C 
BRANCH  20  21
ATOM     21  C   LIG    1        3.511   1.192  -0.637  0.00  0.00    -0.041 A 
ATOM     22  C   LIG    1        3.167   1.906   0.493  0.00  0.00    +0.005 A 
ATOM     23  C   LIG    1        4.112   2.268   1.440  0.00  0.00    +0.020 A 
ATOM     24  C   LIG    1        5.431   1.905   1.246  0.00  0.00    +0.041 A 
ATOM     25 CL   LIG    1        6.680   2.336   2.415  0.00  0.00    -0.084 Cl
ATOM     26  C   LIG    1        5.795   1.202   0.141  0.00  0.00    +0.020 A 
ATOM     27  C   LIG    1        4.817   0.852  -0.796  0.00  0.00    +0.005 A 
ENDBRANCH  20  21
ENDBRANCH   1  20
TORSDOF 3
