REMARK  Name = molecules/MCGSCOLBFJQGHM-SCZZXKLOSA-N.pdb
REMARK                            x       y       z     vdW  Elec       q    Type
REMARK                         _______ _______ _______ _____ _____    ______ ____
ROOT
ATOM      1  C   LIG    1       -1.337  -0.377  -0.292  0.00  0.00    +0.148 A 
ATOM      2  C   LIG    1       -0.155  -0.046   0.353  0.00  0.00    +0.168 A 
ATOM      3  N   LIG    1       -0.248   0.820   1.384  0.00  0.00    -0.195 NA
ATOM      4  C   LIG    1       -1.395   1.365   1.810  0.00  0.00    +0.216 A 
ATOM      5  N   LIG    1       -2.540   1.022   1.156  0.00  0.00    -0.198 NA
ATOM      6  N   LIG    1        0.882  -0.701  -0.226  0.00  0.00    -0.308 N 
ATOM      7  C   LIG    1        0.345  -1.426  -1.216  0.00  0.00    +0.202 A 
ATOM      8  C   LIG    1       -2.530   0.168   0.122  0.00  0.00    +0.152 A 
ATOM      9  N   LIG    1       -0.984  -1.246  -1.273  0.00  0.00    -0.231 NA
ENDROOT
BRANCH   6  10
ATOM     10  C   LIG    1        2.243  -0.573   0.210  0.00  0.00    +0.113 C 
ATOM     11  C   LIG    1        3.094  -1.713  -0.166  0.00  0.00    -0.006 C 
ATOM     12  C   LIG    1        4.333  -1.291  -0.390  0.00  0.00    -0.023 C 
ATOM     13  C   LIG    1        4.406   0.194  -0.176  0.00  0.00    +0.039 C 
ATOM     14  C   LIG    1        2.964   0.591  -0.436  0.00  0.00    +0.039 C 
BRANCH  13  15
ATOM     15  C   LIG    1        5.345   0.820  -1.181  0.00  0.00    +0.163 C 
BRANCH  15  16
ATOM     16  O   LIG    1        6.644   0.417  -0.886  0.00  0.00    -0.394 OA
ATOM     17  H   LIG    1        6.724   0.146   0.062  0.00  0.00    +0.209 HD
ENDBRANCH  15  16
ENDBRANCH  13  15
ENDBRANCH   6  10
BRANCH   4  18
ATOM     18  N   LIG    1       -1.487   2.270   2.887  0.00  0.00    -0.327 N 
ATOM     19  H   LIG    1       -2.030   2.016   3.723  0.00  0.00    +0.145 HD
ATOM     20  H   LIG    1       -1.011   3.182   2.838  0.00  0.00    +0.145 HD
ENDBRANCH   4  18
BRANCH   8  21
ATOM     21  N   LIG    1       -3.723  -0.169  -0.533  0.00  0.00    -0.324 N 
ATOM     22  H   LIG    1       -3.689  -0.838  -1.337  0.00  0.00    +0.148 HD
BRANCH  21  23
ATOM     23  C   LIG    1       -4.971   0.402  -0.098  0.00  0.00    +0.072 C 
ATOM     24  C   LIG    1       -5.979  -0.442   0.568  0.00  0.00    +0.024 C 
ATOM     25  C   LIG    1       -6.186  -0.050  -0.897  0.00  0.00    +0.024 C 
ENDBRANCH  21  23
ENDBRANCH   8  21
TORSDOF 6
