REMARK  Name = molecules/MCJGNVYPOGVAJF-UHFFFAOYSA-N.pdb
REMARK                            x       y       z     vdW  Elec       q    Type
REMARK                         _______ _______ _______ _____ _____    ______ ____
ROOT
ATOM      1  C   LIG    1        1.348   1.045   0.391  0.00  0.00    +0.143 A 
ATOM      2  C   LIG    1        2.382   0.135   0.414  0.00  0.00    +0.047 A 
ATOM      3  C   LIG    1        2.099  -1.217   0.323  0.00  0.00    +0.004 A 
ATOM      4  C   LIG    1        0.787  -1.618   0.211  0.00  0.00    +0.010 A 
ATOM      5  C   LIG    1       -0.252  -0.692   0.189  0.00  0.00    +0.004 A 
ATOM      6  C   LIG    1       -1.568  -1.156   0.074  0.00  0.00    +0.011 A 
ATOM      7  C   LIG    1       -2.579  -0.222   0.054  0.00  0.00    +0.020 A 
ATOM      8  C   LIG    1       -2.245   1.112   0.147  0.00  0.00    +0.111 A 
ATOM      9  N   LIG    1       -0.975   1.528   0.257  0.00  0.00    -0.251 NA
ATOM     10  C   LIG    1        0.047   0.649   0.281  0.00  0.00    +0.112 A 
ENDROOT
BRANCH   1  11
ATOM     11  O   LIG    1        1.638   2.412   0.483  0.00  0.00    -0.505 OA
ATOM     12  H   LIG    1        0.911   3.101   0.470  0.00  0.00    +0.292 HD
ENDBRANCH   1  11
TORSDOF 1
