REMARK  Name = molecules/MCPKSFINULVDNX-UHFFFAOYSA-N.pdb
REMARK                            x       y       z     vdW  Elec       q    Type
REMARK                         _______ _______ _______ _____ _____    ______ ____
ROOT
ATOM      1  C   LIG    1       -1.526  -1.663  -0.285  0.00  0.00    +0.144 A 
ATOM      2  C   LIG    1       -1.065  -0.413   0.047  0.00  0.00    +0.128 A 
ATOM      3  C   LIG    1       -1.971   0.602   0.221  0.00  0.00    +0.036 A 
ATOM      4  C   LIG    1       -3.321   0.389   0.069  0.00  0.00    -0.048 A 
ATOM      5  C   LIG    1       -4.242   1.552   0.277  0.00  0.00    +0.044 C 
ATOM      6  C   LIG    1       -3.782  -0.857  -0.261  0.00  0.00    +0.007 A 
ATOM      7  C   LIG    1       -2.870  -1.884  -0.438  0.00  0.00    +0.048 A 
ENDROOT
BRANCH   2   8
ATOM      8  N   LIG    1        0.354  -0.192   0.206  0.00  0.00    -0.146 N 
ATOM      9  N   LIG    1        1.230  -0.908   0.868  0.00  0.00    -0.147 NA
ATOM     10  C   LIG    1        2.457  -0.361   0.770  0.00  0.00    +0.113 A 
ATOM     11  C   LIG    1        3.679  -0.751   1.291  0.00  0.00    +0.032 A 
ATOM     12  C   LIG    1        4.772   0.033   1.008  0.00  0.00    +0.002 A 
ATOM     13  C   LIG    1        4.637   1.161   0.232  0.00  0.00    +0.002 A 
ATOM     14  C   LIG    1        3.422   1.544  -0.284  0.00  0.00    +0.032 A 
ATOM     15  C   LIG    1        2.313   0.776  -0.013  0.00  0.00    +0.113 A 
ATOM     16  N   LIG    1        1.004   0.828  -0.330  0.00  0.00    -0.147 NA
ENDBRANCH   2   8
BRANCH   1  17
ATOM     17  O   LIG    1       -0.666  -2.734  -0.475  0.00  0.00    -0.505 OA
ATOM     18  H   LIG    1        0.322  -2.709  -0.396  0.00  0.00    +0.292 HD
ENDBRANCH   1  17
TORSDOF 2
