REMARK  Name = molecules/MDNWOSOZYLHTCG-UHFFFAOYSA-N.pdb
REMARK                            x       y       z     vdW  Elec       q    Type
REMARK                         _______ _______ _______ _____ _____    ______ ____
ROOT
ATOM      1  C   LIG    1       -0.107  -1.154   1.099  0.00  0.00    +0.077 C 
ENDROOT
BRANCH   1   2
ATOM      2  C   LIG    1       -1.235  -0.341   0.528  0.00  0.00    -0.000 A 
ATOM      3  C   LIG    1       -1.535   0.865   1.101  0.00  0.00    +0.027 A 
ATOM      4  C   LIG    1       -2.502   1.702   0.516  0.00  0.00    +0.041 A 
ATOM      5 CL   LIG    1       -2.848   3.248   1.278  0.00  0.00    -0.084 Cl
ATOM      6  C   LIG    1       -3.154   1.303  -0.642  0.00  0.00    +0.023 A 
ATOM      7  C   LIG    1       -2.837   0.105  -1.180  0.00  0.00    +0.047 A 
ATOM      8  C   LIG    1       -1.889  -0.758  -0.636  0.00  0.00    +0.120 A 
BRANCH   8   9
ATOM      9  O   LIG    1       -1.660  -1.950  -1.243  0.00  0.00    -0.506 OA
ATOM     10  H   LIG    1       -1.074  -2.689  -0.969  0.00  0.00    +0.292 HD
ENDBRANCH   8   9
ENDBRANCH   1   2
BRANCH   1  11
ATOM     11  C   LIG    1        1.133  -0.675   0.421  0.00  0.00    -0.000 A 
ATOM     12  C   LIG    1        1.847   0.373   0.978  0.00  0.00    +0.120 A 
ATOM     13  C   LIG    1        2.923   0.888   0.261  0.00  0.00    +0.047 A 
ATOM     14  C   LIG    1        3.307   0.403  -0.958  0.00  0.00    +0.023 A 
ATOM     15  C   LIG    1        2.594  -0.641  -1.496  0.00  0.00    +0.041 A 
ATOM     16 CL   LIG    1        3.025  -1.319  -3.056  0.00  0.00    -0.084 Cl
ATOM     17  C   LIG    1        1.490  -1.187  -0.792  0.00  0.00    +0.027 A 
BRANCH  12  18
ATOM     18  O   LIG    1        1.557   0.915   2.199  0.00  0.00    -0.506 OA
ATOM     19  H   LIG    1        0.881   0.644   2.871  0.00  0.00    +0.292 HD
ENDBRANCH  12  18
ENDBRANCH   1  11
TORSDOF 4
