REMARK  Name = molecules/MDSQOJYHHZBZKA-GBXCKJPGSA-N.pdb
REMARK                            x       y       z     vdW  Elec       q    Type
REMARK                         _______ _______ _______ _____ _____    ______ ____
ROOT
ATOM      1  C   LIG    1       -2.435  -1.436   0.057  0.00  0.00    +0.221 A 
ATOM      2  C   LIG    1       -1.159  -0.919   0.142  0.00  0.00    +0.095 A 
ATOM      3  C   LIG    1       -0.307  -0.821  -0.934  0.00  0.00    +0.080 A 
ATOM      4  N   LIG    1       -0.813  -1.274  -2.104  0.00  0.00    -0.214 NA
ATOM      5  C   LIG    1       -2.054  -1.777  -2.187  0.00  0.00    +0.216 A 
ATOM      6  N   LIG    1       -2.868  -1.864  -1.131  0.00  0.00    -0.180 NA
ENDROOT
BRANCH   3   7
ATOM      7  C   LIG    1        1.040  -0.278  -0.866  0.00  0.00    +0.001 A 
ATOM      8  C   LIG    1        1.642   0.200   0.252  0.00  0.00    +0.010 A 
ATOM      9  C   LIG    1        2.948   0.702   0.196  0.00  0.00    +0.004 A 
ATOM     10  C   LIG    1        3.664   0.732  -0.966  0.00  0.00    -0.045 A 
ATOM     11  C   LIG    1        3.057   0.243  -2.123  0.00  0.00    +0.004 A 
ATOM     12  C   LIG    1        1.783  -0.241  -2.045  0.00  0.00    +0.010 A 
BRANCH  10  13
ATOM     13  C   LIG    1        5.041   1.248  -1.080  0.00  0.00    +0.065 C 
BRANCH  13  14
ATOM     14  C   LIG    1        6.025   0.095  -0.837  0.00  0.00    +0.165 C 
BRANCH  14  15
ATOM     15  N   LIG    1        5.806  -0.354   0.525  0.00  0.00    -0.318 NA
ATOM     16  H   LIG    1        5.839   0.528   1.115  0.00  0.00    +0.119 HD
ATOM     17  H   LIG    1        4.892  -0.849   0.637  0.00  0.00    +0.119 HD
ENDBRANCH  14  15
BRANCH  14  18
ATOM     18  C   LIG    1        7.421   0.586  -0.947  0.00  0.00    +0.324 C 
ATOM     19  O   LIG    1        7.792   1.024  -2.072  0.00  0.00    -0.249 OA
BRANCH  18  20
ATOM     20  O   LIG    1        8.271   0.559   0.148  0.00  0.00    -0.464 OA
BRANCH  20  21
ATOM     21  C   LIG    1        9.615   1.035   0.029  0.00  0.00    +0.229 C 
ATOM     22  C   LIG    1        9.524   2.493  -0.381  0.00  0.00    +0.048 C 
ENDBRANCH  20  21
ENDBRANCH  18  20
ENDBRANCH  14  18
ENDBRANCH  13  14
ENDBRANCH  10  13
ENDBRANCH   3   7
BRANCH   5  23
ATOM     23  N   LIG    1       -2.586  -2.259  -3.438  0.00  0.00    -0.327 N 
ATOM     24  H   LIG    1       -3.608  -2.265  -3.627  0.00  0.00    +0.145 HD
ATOM     25  H   LIG    1       -1.864  -2.595  -4.123  0.00  0.00    +0.145 HD
ENDBRANCH   5  23
BRANCH   1  26
ATOM     26  O   LIG    1       -3.168  -1.469   1.220  0.00  0.00    -0.459 OA
BRANCH  26  27
ATOM     27  C   LIG    1       -4.493  -1.951   1.347  0.00  0.00    +0.311 C 
BRANCH  27  34
ATOM     28  C   LIG    1       -6.235  -1.506   3.034  0.00  0.00    +0.011 A 
ATOM     29  C   LIG    1       -7.141  -0.700   3.697  0.00  0.00    +0.020 A 
ATOM     30  C   LIG    1       -7.272   0.632   3.343  0.00  0.00    +0.043 A 
ATOM     31 CL   LIG    1       -8.424   1.601   4.208  0.00  0.00    -0.083 Cl
ATOM     32  C   LIG    1       -6.489   1.119   2.331  0.00  0.00    +0.048 A 
ATOM     33  C   LIG    1       -5.582   0.291   1.674  0.00  0.00    +0.074 A 
ATOM     34  C   LIG    1       -5.425  -1.038   1.999  0.00  0.00    +0.027 A 
BRANCH  33  35
ATOM     35  N   LIG    1       -4.783   0.829   0.618  0.00  0.00    -0.239 N 
ATOM     36  C   LIG    1       -3.697   1.622   0.698  0.00  0.00    +0.115 A 
ATOM     37  C   LIG    1       -3.322   1.863  -0.604  0.00  0.00    +0.044 A 
ATOM     38  C   LIG    1       -4.189   1.208  -1.468  0.00  0.00    +0.060 A 
ATOM     39  C   LIG    1       -4.095   1.246  -2.930  0.00  0.00    +0.067 C 
ATOM     40  N   LIG    1       -5.070   0.586  -0.665  0.00  0.00    -0.172 NA
ENDBRANCH  33  35
ENDBRANCH  27  34
BRANCH  27  41
ATOM     41  C   LIG    1       -4.471  -3.346   1.968  0.00  0.00    +0.431 C 
ATOM     42  F   LIG    1       -4.109  -3.369   3.271  0.00  0.00    -0.167 F 
ATOM     43  F   LIG    1       -5.654  -4.009   1.713  0.00  0.00    -0.167 F 
ATOM     44  F   LIG    1       -3.493  -4.052   1.250  0.00  0.00    -0.167 F 
ENDBRANCH  27  41
ENDBRANCH  26  27
ENDBRANCH   1  26
TORSDOF 13
