REMARK  Name = molecules/MECHNRXZTMCUDQ-RKHKHRCZSA-N.pdb
REMARK                            x       y       z     vdW  Elec       q    Type
REMARK                         _______ _______ _______ _____ _____    ______ ____
ROOT
ATOM      1  C   LIG    1       -1.449   0.250   0.191  0.00  0.00    +0.002 C 
ATOM      2  C   LIG    1       -0.149   0.932   0.384  0.00  0.00    -0.022 C 
ATOM      3  C   LIG    1       -0.068   1.800   1.610  0.00  0.00    +0.008 C 
ATOM      4  C   LIG    1        1.065   1.450   2.509  0.00  0.00    +0.005 C 
ATOM      5  C   LIG    1        2.385   1.210   1.817  0.00  0.00    +0.031 C 
ATOM      6  C   LIG    1        2.135   0.184   0.754  0.00  0.00    -0.066 C 
ATOM      7  C   LIG    1        3.141  -0.264  -0.003  0.00  0.00    -0.000 C 
ATOM      8  C   LIG    1        0.767  -0.254   0.619  0.00  0.00    +0.021 C 
ATOM      9  C   LIG    1        0.440  -1.125  -0.532  0.00  0.00    +0.009 C 
ATOM     10  C   LIG    1        0.319   1.674  -0.857  0.00  0.00    +0.012 C 
ATOM     11  C   LIG    1       -1.055  -0.968  -0.662  0.00  0.00    +0.005 C 
ENDROOT
BRANCH   7  12
ATOM     12  C   LIG    1        4.442   0.296   0.286  0.00  0.00    +0.004 C 
ATOM     13  C   LIG    1        5.487  -0.051  -0.428  0.00  0.00    -0.042 C 
ATOM     14  C   LIG    1        6.860   0.478  -0.174  0.00  0.00    +0.066 C 
ATOM     15  C   LIG    1        7.821  -0.301  -1.010  0.00  0.00    +0.119 C 
ATOM     16  C   LIG    1        7.545  -1.786  -1.066  0.00  0.00    +0.036 C 
ATOM     17  C   LIG    1        6.224  -2.080  -1.745  0.00  0.00    +0.037 C 
ATOM     18  C   LIG    1        5.281  -0.925  -1.568  0.00  0.00    -0.051 C 
ATOM     19  C   LIG    1        4.316  -0.657  -2.425  0.00  0.00    +0.012 C 
BRANCH  15  20
ATOM     20  O   LIG    1        9.111  -0.132  -0.467  0.00  0.00    -0.391 OA
ATOM     21  H   LIG    1        9.080  -0.123   0.526  0.00  0.00    +0.210 HD
ENDBRANCH  15  20
ENDBRANCH   7  12
BRANCH   1  22
ATOM     22  C   LIG    1       -2.524   1.039  -0.503  0.00  0.00    +0.012 C 
ATOM     23  C   LIG    1       -2.925   2.202   0.363  0.00  0.00    +0.012 C 
BRANCH  22  25
ATOM     24  C   LIG    1       -4.932   0.498  -0.229  0.00  0.00    -0.027 C 
ATOM     25  C   LIG    1       -3.743   0.205  -0.734  0.00  0.00    -0.027 C 
BRANCH  24  26
ATOM     26  C   LIG    1       -6.129  -0.383  -0.497  0.00  0.00    +0.011 C 
ATOM     27  C   LIG    1       -7.152   0.487  -1.198  0.00  0.00    +0.012 C 
BRANCH  26  29
ATOM     28  C   LIG    1       -8.001  -1.568   0.596  0.00  0.00    +0.008 C 
ATOM     29  C   LIG    1       -6.735  -0.801   0.832  0.00  0.00    -0.011 C 
ATOM     30  C   LIG    1       -5.774  -1.652   1.630  0.00  0.00    +0.008 C 
ENDBRANCH  26  29
ENDBRANCH  24  26
ENDBRANCH  22  25
ENDBRANCH   1  22
TORSDOF 6
