REMARK  Name = molecules/MEFKEPWMEQBLKI-TYYLHDHTSA-N.pdb
REMARK                            x       y       z     vdW  Elec       q    Type
REMARK                         _______ _______ _______ _____ _____    ______ ____
ROOT
ATOM      1  C   LIG    1       -0.083   1.010  -1.881  0.00  0.00    +0.161 C 
ATOM      2  C   LIG    1       -0.140   1.898  -0.675  0.00  0.00    +0.177 C 
ATOM      3  C   LIG    1       -1.625   2.237  -0.768  0.00  0.00    +0.195 C 
ATOM      4  C   LIG    1       -2.178   0.913  -1.174  0.00  0.00    +0.253 C 
ATOM      5  O   LIG    1       -1.118   0.121  -1.612  0.00  0.00    -0.347 OA
ENDROOT
BRANCH   4   6
ATOM      6  N   LIG    1       -2.867   0.322  -0.043  0.00  0.00    -0.286 N 
ATOM      7  C   LIG    1       -2.629   0.602   1.252  0.00  0.00    +0.203 A 
ATOM      8  N   LIG    1       -3.475  -0.151   1.974  0.00  0.00    -0.231 NA
ATOM      9  C   LIG    1       -4.250  -0.908   1.185  0.00  0.00    +0.147 A 
ATOM     10  C   LIG    1       -5.249  -1.826   1.426  0.00  0.00    +0.147 A 
ATOM     11  N   LIG    1       -5.841  -2.424   0.385  0.00  0.00    -0.219 NA
ATOM     12  C   LIG    1       -5.460  -2.126  -0.883  0.00  0.00    +0.225 A 
ATOM     13  N   LIG    1       -4.485  -1.231  -1.129  0.00  0.00    -0.216 NA
ATOM     14  C   LIG    1       -3.850  -0.595  -0.119  0.00  0.00    +0.167 A 
BRANCH  10  15
ATOM     15  N   LIG    1       -5.604  -2.095   2.775  0.00  0.00    -0.341 N 
ATOM     16  H   LIG    1       -4.997  -2.700   3.337  0.00  0.00    +0.144 HD
ATOM     17  H   LIG    1       -6.467  -1.700   3.233  0.00  0.00    +0.144 HD
ENDBRANCH  10  15
ENDBRANCH   4   6
BRANCH   3  18
ATOM     18  O   LIG    1       -1.756   3.118  -1.838  0.00  0.00    -0.385 OA
ATOM     19  H   LIG    1       -2.500   2.818  -2.403  0.00  0.00    +0.210 HD
ENDBRANCH   3  18
BRANCH   2  20
ATOM     20  O   LIG    1        0.555   3.070  -0.796  0.00  0.00    -0.386 OA
ATOM     21  H   LIG    1        1.533   2.848  -0.718  0.00  0.00    +0.210 HD
ENDBRANCH   2  20
BRANCH   1  22
ATOM     22  C   LIG    1        1.231   0.363  -2.114  0.00  0.00    +0.093 C 
BRANCH  22  24
ATOM     23  C   LIG    1        0.974  -1.916  -0.253  0.00  0.00    +0.073 C 
ATOM     24  S   LIG    1        1.855  -0.583  -0.820  0.00  0.00    -0.209 S 
BRANCH  24  25
ATOM     25  C   LIG    1        3.178   0.022   0.082  0.00  0.00    +0.061 C 
BRANCH  25  26
ATOM     26  C   LIG    1        4.302  -0.976   0.309  0.00  0.00    +0.040 C 
BRANCH  26  27
ATOM     27  CA  LIG    1        5.427  -0.360   1.113  0.00  0.00    +0.166 C 
BRANCH  27  28
ATOM     28  N   LIG    1        4.864   0.048   2.386  0.00  0.00    -0.318 NA
ATOM     29  H1  LIG    1        4.126  -0.603   2.713  0.00  0.00    +0.119 HD
ATOM     30  H2  LIG    1        4.398   0.993   2.292  0.00  0.00    +0.119 HD
ENDBRANCH  27  28
BRANCH  27  31
ATOM     31  C   LIG    1        6.030   0.799   0.449  0.00  0.00    +0.372 C 
ATOM     32  OXT LIG    1        5.729   2.086   0.866  0.00  0.00    -0.245 OA
ATOM     33  O   LIG    1        6.842   0.703  -0.521  0.00  0.00    -0.245 OA
ENDBRANCH  27  31
ENDBRANCH  26  27
ENDBRANCH  25  26
ENDBRANCH  24  25
ENDBRANCH  22  24
ENDBRANCH   1  22
TORSDOF 11
