REMARK  Name = molecules/METKIMKYRPQLGS-LBPRGKRZSA-N.pdb
REMARK                            x       y       z     vdW  Elec       q    Type
REMARK                         _______ _______ _______ _____ _____    ______ ____
ROOT
ATOM      1  C   LIG    1        1.202  -0.743   0.157  0.00  0.00    +0.121 A 
ATOM      2  C   LIG    1        2.054  -1.826   0.094  0.00  0.00    +0.046 A 
ATOM      3  C   LIG    1        3.354  -1.633  -0.332  0.00  0.00    +0.007 A 
ATOM      4  C   LIG    1        3.795  -0.367  -0.691  0.00  0.00    -0.038 A 
ATOM      5  C   LIG    1        2.933   0.702  -0.622  0.00  0.00    +0.007 A 
ATOM      6  C   LIG    1        1.635   0.508  -0.197  0.00  0.00    +0.046 A 
ENDROOT
BRANCH   1   7
ATOM      7  O   LIG    1       -0.098  -0.932   0.583  0.00  0.00    -0.489 OA
BRANCH   7   8
ATOM      8  C   LIG    1       -0.982   0.165   0.650  0.00  0.00    +0.261 C 
BRANCH   8   9
ATOM      9  C   LIG    1       -2.318  -0.341   1.150  0.00  0.00    +0.166 C 
BRANCH   9  10
ATOM     10  O   LIG    1       -2.074  -0.890   2.417  0.00  0.00    -0.387 OA
ATOM     11  H   LIG    1       -1.364  -1.568   2.293  0.00  0.00    +0.210 HD
ENDBRANCH   9  10
BRANCH   9  12
ATOM     12  C   LIG    1       -3.316   0.778   1.307  0.00  0.00    +0.115 C 
BRANCH  12  13
ATOM     13  N   LIG    1       -3.627   1.401   0.102  0.00  0.00    -0.311 NA
ATOM     14  H   LIG    1       -2.889   2.067  -0.185  0.00  0.00    +0.122 HD
BRANCH  13  15
ATOM     15  C   LIG    1       -4.356   0.793  -0.915  0.00  0.00    +0.048 C 
ATOM     16  C   LIG    1       -5.800   0.503  -0.453  0.00  0.00    +0.023 C 
ATOM     17  C   LIG    1       -3.857  -0.408  -1.605  0.00  0.00    +0.023 C 
ENDBRANCH  13  15
ENDBRANCH  12  13
ENDBRANCH   9  12
ENDBRANCH   8   9
ENDBRANCH   7   8
ENDBRANCH   1   7
BRANCH   4  18
ATOM     18  C   LIG    1        5.187  -0.178  -1.143  0.00  0.00    +0.130 C 
BRANCH  18  19
ATOM     19  C   LIG    1        6.091   0.115   0.018  0.00  0.00    +0.215 C 
ATOM     20  O   LIG    1        5.653   0.178   1.195  0.00  0.00    -0.276 OA
ATOM     21  N   LIG    1        7.474   0.328  -0.202  0.00  0.00    -0.329 N 
ATOM     22  H   LIG    1        7.969   1.089   0.301  0.00  0.00    +0.145 HD
ATOM     23  H   LIG    1        7.977  -0.277  -0.864  0.00  0.00    +0.145 HD
ENDBRANCH  18  19
ENDBRANCH   4  18
TORSDOF 9
