REMARK  Name = molecules/MEUCPCLKGZSHTA-XYAYPHGZSA-N.pdb
REMARK                            x       y       z     vdW  Elec       q    Type
REMARK                         _______ _______ _______ _____ _____    ______ ____
ROOT
ATOM      1  C   LIG    1       -1.848  20.289   0.000  0.00  0.00    -0.031 C 
ATOM      2  C   LIG    1       -1.098  21.588   0.000  0.00  0.00    -0.015 C 
ATOM      3  C   LIG    1       -1.848  22.887   0.000  0.00  0.00    +0.053 C 
ATOM      4  C   LIG    1       -3.348  22.887   0.000  0.00  0.00    -0.034 A 
ATOM      5  C   LIG    1       -4.098  24.186   0.000  0.00  0.00    +0.004 A 
ATOM      6  C   LIG    1       -5.598  24.186   0.000  0.00  0.00    +0.000 A 
ATOM      7  C   LIG    1       -6.348  22.887   0.000  0.00  0.00    +0.000 A 
ATOM      8  C   LIG    1       -5.598  21.588   0.000  0.00  0.00    +0.007 A 
ATOM      9  C   LIG    1       -4.098  21.588   0.000  0.00  0.00    -0.011 A 
ATOM     10  C   LIG    1       -3.348  20.289   0.000  0.00  0.00    +0.171 C 
ENDROOT
BRANCH  10  11
ATOM     11  O   LIG    1       -2.946  19.191   0.000  0.00  0.00    -0.383 OA
ATOM     12  H   LIG    1       -2.540  18.577   0.000  0.00  0.00    +0.211 HD
ENDBRANCH  10  11
BRANCH   1  13
ATOM     13  C   LIG    1       -1.098  18.990   0.000  0.00  0.00    +0.071 C 
BRANCH  13  15
ATOM     14  N   LIG    1       -1.647  16.941   0.000  0.00  0.00    -0.284 NA
ATOM     15  C   LIG    1       -0.348  17.691   0.000  0.00  0.00    +0.087 C 
BRANCH  14  16
ATOM     16  C   LIG    1       -2.946  17.691   0.000  0.00  0.00    +0.112 C 
ATOM     17  C   LIG    1       -4.245  16.941   0.000  0.00  0.00    +0.041 C 
ENDBRANCH  14  16
ENDBRANCH  13  15
ENDBRANCH   1  13
TORSDOF 4
REMARK  Name = molecules/MEUCPCLKGZSHTA-XYAYPHGZSA-N.pdb
REMARK                            x       y       z     vdW  Elec       q    Type
REMARK                         _______ _______ _______ _____ _____    ______ ____
ROOT
ATOM      1  N   LIG    1       -0.348  15.093   0.000  0.00  0.00    +0.000 NA
ENDROOT
TORSDOF 0
REMARK  Name = molecules/MEUCPCLKGZSHTA-XYAYPHGZSA-N.pdb
REMARK                            x       y       z     vdW  Elec       q    Type
REMARK                         _______ _______ _______ _____ _____    ______ ____
ROOT
ATOM      1  N   LIG    1       -0.897  11.544   0.000  0.00  0.00    +0.000 NA
ENDROOT
TORSDOF 0
REMARK  Name = molecules/MEUCPCLKGZSHTA-XYAYPHGZSA-N.pdb
REMARK                            x       y       z     vdW  Elec       q    Type
REMARK                         _______ _______ _______ _____ _____    ______ ____
ROOT
ATOM      1  N   LIG    1        0.402   8.196   0.000  0.00  0.00    +0.386 N 
ATOM      2  C   LIG    1       -0.897   8.544   0.000  0.00  0.00    -0.065 C 
ATOM      3  C   LIG    1       -1.647   7.647   0.000  0.00  0.00    -0.018 C 
ATOM      4  C   LIG    1       -0.348   9.495   0.000  0.00  0.00    -0.044 C 
ATOM      5  C   LIG    1        0.402   9.294   0.000  0.00  0.00    -0.079 C 
ATOM      6  C   LIG    1        1.701   8.544   0.000  0.00  0.00    -0.101 C 
ATOM      7  H   LIG    1        0.798   7.346   0.000  0.00  0.00    -0.080 HD
ENDROOT
TORSDOF 0
REMARK  Name = molecules/MEUCPCLKGZSHTA-XYAYPHGZSA-N.pdb
REMARK                            x       y       z     vdW  Elec       q    Type
REMARK                         _______ _______ _______ _____ _____    ______ ____
ROOT
ATOM      1  C   LIG    1        0.750   1.299   0.000  0.00  0.00    -0.044 A 
ATOM      2  C   LIG    1        1.500   0.000   0.000  0.00  0.00    +0.006 A 
ATOM      3  C   LIG    1        0.750  -1.299   0.000  0.00  0.00    +0.028 A 
ATOM      4  C   LIG    1       -0.750  -1.299   0.000  0.00  0.00    +0.072 A 
ATOM      5  C   LIG    1       -1.500   0.000   0.000  0.00  0.00    +0.010 A 
ATOM      6  C   LIG    1       -0.750   1.299   0.000  0.00  0.00    +0.014 A 
ENDROOT
BRANCH   4   7
ATOM      7  N   LIG    1       -1.500  -2.598   0.000  0.00  0.00    -0.248 NA
ATOM      8  C   LIG    1       -3.000  -2.598   0.000  0.00  0.00    +0.088 C 
BRANCH   8   9
ATOM      9  C   LIG    1       -3.750  -3.897   0.000  0.00  0.00    +0.158 C 
ATOM     10  N   LIG    1       -4.899  -2.933   0.000  0.00  0.00    -0.189 NA
ATOM     11  C   LIG    1       -6.309  -3.446   0.000  0.00  0.00    +0.346 C 
ATOM     12  O   LIG    1       -7.458  -2.482   0.000  0.00  0.00    -0.249 OA
ATOM     13  N   LIG    1       -6.569  -4.923   0.000  0.00  0.00    -0.127 NA
ATOM     14  C   LIG    1       -5.420  -5.887   0.000  0.00  0.00    +0.243 C 
ATOM     15  O   LIG    1       -5.681  -7.365   0.000  0.00  0.00    -0.273 OA
ATOM     16  C   LIG    1       -4.011  -5.374   0.000  0.00  0.00    +0.128 C 
ENDBRANCH   8   9
ENDBRANCH   4   7
BRANCH   1  17
ATOM     17  C   LIG    1        1.500   2.598   0.000  0.00  0.00    +0.071 C 
BRANCH  17  19
ATOM     18  N   LIG    1        0.951   4.647   0.000  0.00  0.00    -0.251 NA
ATOM     19  C   LIG    1        2.250   3.897   0.000  0.00  0.00    +0.200 C 
ATOM     20  C   LIG    1        3.000   5.196   0.000  0.00  0.00    +0.269 C 
ATOM     21  O   LIG    1        4.299   5.544   0.000  0.00  0.00    -0.271 OA
ATOM     22  N   LIG    1        2.250   6.495   0.000  0.00  0.00    -0.124 N 
ATOM     23  C   LIG    1        0.951   6.147   0.000  0.00  0.00    +0.191 C 
BRANCH  22  24
ATOM     24  O   LIG    1        2.030   7.189   0.000  0.00  0.00    -0.262 OA
ATOM     25  C   LIG    1        3.000   7.794   0.000  0.00  0.00    +0.214 C 
ENDBRANCH  22  24
ENDBRANCH  17  19
ENDBRANCH   1  17
TORSDOF 5
REMARK  Name = molecules/MEUCPCLKGZSHTA-XYAYPHGZSA-N.pdb
REMARK                            x       y       z     vdW  Elec       q    Type
REMARK                         _______ _______ _______ _____ _____    ______ ____
ROOT
ATOM      1  C   LIG    1        8.397   4.446   0.000  0.00  0.00    +0.101 C 
ATOM      2  C   LIG    1        8.397   5.946   0.000  0.00  0.00    +0.022 C 
ENDROOT
BRANCH   1   3
ATOM      3  N   LIG    1        6.897   4.446   0.000  0.00  0.00    -0.212 NA
BRANCH   3   7
ATOM      4  N   LIG    1        5.598   7.794   0.000  0.00  0.00    -0.201 NA
ATOM      5  C   LIG    1        4.299   7.044   0.000  0.00  0.00    +0.286 A 
ATOM      6  O   LIG    1        4.647   5.745   0.000  0.00  0.00    -0.415 OA
ATOM      7  C   LIG    1        6.147   5.745   0.000  0.00  0.00    +0.236 A 
ATOM      8  C   LIG    1        6.897   7.044   0.000  0.00  0.00    +0.157 A 
ENDBRANCH   3   7
ENDBRANCH   1   3
BRANCH   1   9
ATOM      9  C   LIG    1        8.397   2.946   0.000  0.00  0.00    +0.025 C 
BRANCH   9  10
ATOM     10  C   LIG    1        8.397   1.446   0.000  0.00  0.00    +0.003 C 
BRANCH  10  11
ATOM     11  C   LIG    1        8.397  -0.054   0.000  0.00  0.00    +0.017 C 
BRANCH  11  12
ATOM     12  C   LIG    1        8.397  -1.554   0.000  0.00  0.00    +0.102 C 
BRANCH  12  13
ATOM     13  N   LIG    1        8.397  -3.054   0.000  0.00  0.00    -0.238 NA
BRANCH  13  14
ATOM     14  C   LIG    1        7.098  -3.804   0.000  0.00  0.00    +0.067 C 
ATOM     15  C   LIG    1        7.848  -5.103   0.000  0.00  0.00    +0.025 C 
ATOM     16  C   LIG    1        6.348  -2.505   0.000  0.00  0.00    +0.025 C 
ENDBRANCH  13  14
ENDBRANCH  12  13
ENDBRANCH  11  12
ENDBRANCH  10  11
ENDBRANCH   9  10
ENDBRANCH   1   9
TORSDOF 8
REMARK  Name = molecules/MEUCPCLKGZSHTA-XYAYPHGZSA-N.pdb
REMARK                            x       y       z     vdW  Elec       q    Type
REMARK                         _______ _______ _______ _____ _____    ______ ____
ROOT
ATOM      1  C   LIG    1       12.280   5.204   0.000  0.00  0.00    +0.204 C 
ATOM      2  N   LIG    1       12.123   3.713   0.000  0.00  0.00    -0.241 NA
ENDROOT
BRANCH   1   4
ATOM      3  N   LIG    1        9.696   6.696   0.000  0.00  0.00    -0.130 NA
ATOM      4  C   LIG    1       11.066   6.086   0.000  0.00  0.00    +0.181 C 
BRANCH   4   5
ATOM      5  C   LIG    1       12.070   7.201   0.000  0.00  0.00    +0.023 C 
ATOM      6  C   LIG    1       11.320   8.500   0.000  0.00  0.00    +0.006 C 
ENDBRANCH   4   5
ENDBRANCH   1   4
BRANCH   2   7
ATOM      7  C   LIG    1       13.337   2.831   0.000  0.00  0.00    +0.194 C 
ATOM      8  C   LIG    1       12.455   1.617   0.000  0.00  0.00    +0.043 C 
BRANCH   7   9
ATOM      9  C   LIG    1       14.218   4.044   0.000  0.00  0.00    +0.276 C 
ATOM     10  N   LIG    1       15.710   3.888   0.000  0.00  0.00    -0.086 NA
ATOM     11  O   LIG    1       13.958   5.522   0.000  0.00  0.00    -0.270 OA
ENDBRANCH   7   9
ENDBRANCH   2   7
BRANCH   1  12
ATOM     12  O   LIG    1       13.650   5.814   0.000  0.00  0.00    -0.494 OA
ATOM     13  H   LIG    1       13.314   6.362   0.000  0.00  0.00    +0.293 HD
ENDBRANCH   1  12
TORSDOF 5
REMARK  Name = molecules/MEUCPCLKGZSHTA-XYAYPHGZSA-N.pdb
REMARK                            x       y       z     vdW  Elec       q    Type
REMARK                         _______ _______ _______ _____ _____    ______ ____
ROOT
ATOM      1  C   LIG    1        0.402  16.392   0.000  0.00  0.00    +0.000 C 
ENDROOT
TORSDOF 0
REMARK  Name = molecules/MEUCPCLKGZSHTA-XYAYPHGZSA-N.pdb
REMARK                            x       y       z     vdW  Elec       q    Type
REMARK                         _______ _______ _______ _____ _____    ______ ____
ROOT
ATOM      1  N   LIG    1        1.902  15.990   0.000  0.00  0.00    +0.410 N 
ATOM      2  C   LIG    1        3.000  16.794   0.000  0.00  0.00    -0.033 C 
ATOM      3  C   LIG    1        3.402  15.990   0.000  0.00  0.00    -0.033 C 
ATOM      4  C   LIG    1        3.000  15.294   0.000  0.00  0.00    -0.021 C 
ATOM      5  C   LIG    1        4.152  14.691   0.000  0.00  0.00    -0.018 C 
ATOM      6  C   LIG    1        1.701  14.544   0.000  0.00  0.00    -0.030 C 
ATOM      7  C   LIG    1        1.902  13.392   0.000  0.00  0.00    -0.019 C 
ENDROOT
BRANCH   1   8
ATOM      8  O   LIG    1        1.857  16.755   0.000  0.00  0.00    -0.443 OA
ATOM      9  H   LIG    1        1.701  17.544   0.000  0.00  0.00    +0.186 HD
ENDBRANCH   1   8
TORSDOF 1
REMARK  Name = molecules/MEUCPCLKGZSHTA-XYAYPHGZSA-N.pdb
REMARK                            x       y       z     vdW  Elec       q    Type
REMARK                         _______ _______ _______ _____ _____    ______ ____
ROOT
ATOM      1  C   LIG    1       -0.897  13.044   0.000  0.00  0.00    +0.000 C 
ENDROOT
TORSDOF 0
REMARK  Name = molecules/MEUCPCLKGZSHTA-XYAYPHGZSA-N.pdb
REMARK                            x       y       z     vdW  Elec       q    Type
REMARK                         _______ _______ _______ _____ _____    ______ ____
ROOT
ATOM      1  C   LIG    1        4.299  14.544   0.000  0.00  0.00    -0.008 C 
ATOM      2  C   LIG    1        3.402  13.392   0.000  0.00  0.00    +0.008 C 
ENDROOT
TORSDOF 0
REMARK  Name = molecules/MEUCPCLKGZSHTA-XYAYPHGZSA-N.pdb
REMARK                            x       y       z     vdW  Elec       q    Type
REMARK                         _______ _______ _______ _____ _____    ______ ____
ROOT
ATOM      1  C   LIG    1        5.598  15.294   0.000  0.00  0.00    +0.000 C 
ENDROOT
TORSDOF 0
REMARK  Name = molecules/MEUCPCLKGZSHTA-XYAYPHGZSA-N.pdb
REMARK                            x       y       z     vdW  Elec       q    Type
REMARK                         _______ _______ _______ _____ _____    ______ ____
ROOT
ATOM      1  C   LIG    1        5.598  16.794   0.000  0.00  0.00    +0.000 C 
ENDROOT
TORSDOF 0
REMARK  Name = molecules/MEUCPCLKGZSHTA-XYAYPHGZSA-N.pdb
REMARK                            x       y       z     vdW  Elec       q    Type
REMARK                         _______ _______ _______ _____ _____    ______ ____
ROOT
ATOM      1  C   LIG    1        4.299  17.544   0.000  0.00  0.00    +0.000 C 
ENDROOT
TORSDOF 0
REMARK  Name = molecules/MEUCPCLKGZSHTA-XYAYPHGZSA-N.pdb
REMARK                            x       y       z     vdW  Elec       q    Type
REMARK                         _______ _______ _______ _____ _____    ______ ____
ROOT
ATOM      1  C   LIG    1        0.402  13.794   0.000  0.00  0.00    +0.009 C 
ATOM      2  C   LIG    1        1.152  14.691   0.000  0.00  0.00    -0.009 C 
ENDROOT
TORSDOF 0
REMARK  Name = molecules/MEUCPCLKGZSHTA-XYAYPHGZSA-N.pdb
REMARK                            x       y       z     vdW  Elec       q    Type
REMARK                         _______ _______ _______ _____ _____    ______ ____
ROOT
ATOM      1  O   HOH    1       -2.095  13.947   0.000  0.00  0.00    -0.253 OA
ATOM      2  H   HOH    0       -1.837  14.910   0.000  0.00  0.00    +0.253 HD
ENDROOT
TORSDOF 0
REMARK  Name = molecules/MEUCPCLKGZSHTA-XYAYPHGZSA-N.pdb
REMARK                            x       y       z     vdW  Elec       q    Type
REMARK                         _______ _______ _______ _____ _____    ______ ____
ROOT
ATOM      1 CL   LIG    1        6.897  17.544   0.000  0.00  0.00    +0.000 Cl
ENDROOT
TORSDOF 0
REMARK  Name = molecules/MEUCPCLKGZSHTA-XYAYPHGZSA-N.pdb
REMARK                            x       y       z     vdW  Elec       q    Type
REMARK                         _______ _______ _______ _____ _____    ______ ____
ROOT
ATOM      1  C   LIG    1        1.152  12.093   0.000  0.00  0.00    +0.009 C 
ATOM      2  C   LIG    1        0.402  10.794   0.000  0.00  0.00    -0.008 C 
ATOM      3  C   LIG    1       -0.897  11.544   0.000  0.00  0.00    -0.001 C 
ENDROOT
TORSDOF 0
REMARK  Name = molecules/MEUCPCLKGZSHTA-XYAYPHGZSA-N.pdb
REMARK                            x       y       z     vdW  Elec       q    Type
REMARK                         _______ _______ _______ _____ _____    ______ ____
ROOT
ATOM      1  C   LIG    1        0.402  10.794   0.000  0.00  0.00    +0.000 C 
ENDROOT
TORSDOF 0
REMARK  Name = molecules/MEUCPCLKGZSHTA-XYAYPHGZSA-N.pdb
REMARK                            x       y       z     vdW  Elec       q    Type
REMARK                         _______ _______ _______ _____ _____    ______ ____
ROOT
ATOM      1  C   LIG    1       -2.196   9.294   0.000  0.00  0.00    +0.301 C 
ENDROOT
BRANCH   1   2
ATOM      2  O   LIG    1       -1.804   9.858   0.000  0.00  0.00    -0.363 OA
ATOM      3  H   LIG    1       -1.595   9.146   0.000  0.00  0.00    +0.213 HD
ENDBRANCH   1   2
BRANCH   1   4
ATOM      4  O   LIG    1       -2.946   8.397   0.000  0.00  0.00    -0.363 OA
ATOM      5  H   LIG    1       -3.638   8.881   0.000  0.00  0.00    +0.213 HD
ENDBRANCH   1   4
TORSDOF 2
REMARK  Name = molecules/MEUCPCLKGZSHTA-XYAYPHGZSA-N.pdb
REMARK                            x       y       z     vdW  Elec       q    Type
REMARK                         _______ _______ _______ _____ _____    ______ ____
ROOT
ATOM      1  C   LIG    1       -0.348   6.897   0.000  0.00  0.00    +0.000 C 
ENDROOT
TORSDOF 0
REMARK  Name = molecules/MEUCPCLKGZSHTA-XYAYPHGZSA-N.pdb
REMARK                            x       y       z     vdW  Elec       q    Type
REMARK                         _______ _______ _______ _____ _____    ______ ____
ROOT
ATOM      1  O   HOH    1        4.500   5.196   0.000  0.00  0.00    +0.000 OA
ENDROOT
TORSDOF 0
REMARK  Name = molecules/MEUCPCLKGZSHTA-XYAYPHGZSA-N.pdb
REMARK                            x       y       z     vdW  Elec       q    Type
REMARK                         _______ _______ _______ _____ _____    ______ ____
ROOT
ATOM      1  O   HOH    1       -3.586  -1.217   0.000  0.00  0.00    -0.410 OA
ATOM      2  H   HOH    0       -4.821  -1.435   0.000  0.00  0.00    +0.205 HD
ATOM      3  H   HOH    0       -3.000   0.000   0.000  0.00  0.00    +0.205 HD
ENDROOT
TORSDOF 0
REMARK  Name = molecules/MEUCPCLKGZSHTA-XYAYPHGZSA-N.pdb
REMARK                            x       y       z     vdW  Elec       q    Type
REMARK                         _______ _______ _______ _____ _____    ______ ____
ROOT
ATOM      1  C   LIG    1       -2.196  10.794   0.000  0.00  0.00    +0.000 C 
ENDROOT
TORSDOF 0
REMARK  Name = molecules/MEUCPCLKGZSHTA-XYAYPHGZSA-N.pdb
REMARK                            x       y       z     vdW  Elec       q    Type
REMARK                         _______ _______ _______ _____ _____    ______ ____
ROOT
ATOM      1  N   LIG    1       -3.495  11.544   0.000  0.00  0.00    -0.163 NA
ATOM      2  H   LIG    1       -2.339  11.131   0.000  0.00  0.00    +0.163 HD
ENDROOT
TORSDOF 0
REMARK  Name = molecules/MEUCPCLKGZSHTA-XYAYPHGZSA-N.pdb
REMARK                            x       y       z     vdW  Elec       q    Type
REMARK                         _______ _______ _______ _____ _____    ______ ____
ROOT
ATOM      1  C   LIG    1       -3.495  13.044   0.000  0.00  0.00    +0.290 C 
ATOM      2  O   LIG    1       -2.297  13.947   0.000  0.00  0.00    -0.198 OA
ATOM      3  N   LIG    1       -4.794  13.794   0.000  0.00  0.00    -0.093 NA
ENDROOT
TORSDOF 0
REMARK  Name = molecules/MEUCPCLKGZSHTA-XYAYPHGZSA-N.pdb
REMARK                            x       y       z     vdW  Elec       q    Type
REMARK                         _______ _______ _______ _____ _____    ______ ____
ROOT
ATOM      1  C   LIG    1        9.147  10.941   0.000  0.00  0.00    +0.013 C 
ATOM      2  C   LIG    1        8.397   9.642   0.000  0.00  0.00    -0.013 C 
ENDROOT
TORSDOF 0
REMARK  Name = molecules/MEUCPCLKGZSHTA-XYAYPHGZSA-N.pdb
REMARK                            x       y       z     vdW  Elec       q    Type
REMARK                         _______ _______ _______ _____ _____    ______ ____
ROOT
ATOM      1  C   LIG    1        7.647   8.343   0.000  0.00  0.00    +0.225 C 
ATOM      2  O   LIG    1        7.318   6.988   0.000  0.00  0.00    -0.225 OA
ENDROOT
TORSDOF 0
REMARK  Name = molecules/MEUCPCLKGZSHTA-XYAYPHGZSA-N.pdb
REMARK                            x       y       z     vdW  Elec       q    Type
REMARK                         _______ _______ _______ _____ _____    ______ ____
ROOT
ATOM      1  C   LIG    1        7.098  10.392   0.000  0.00  0.00    -0.000 C 
ENDROOT
TORSDOF 0
REMARK  Name = molecules/MEUCPCLKGZSHTA-XYAYPHGZSA-N.pdb
REMARK                            x       y       z     vdW  Elec       q    Type
REMARK                         _______ _______ _______ _____ _____    ______ ____
ROOT
ATOM      1  C   LIG    1        9.853   8.188   0.000  0.00  0.00    -0.000 C 
ENDROOT
TORSDOF 0
REMARK  Name = molecules/MEUCPCLKGZSHTA-XYAYPHGZSA-N.pdb
REMARK                            x       y       z     vdW  Elec       q    Type
REMARK                         _______ _______ _______ _____ _____    ______ ____
ROOT
ATOM      1  H   UNK    1       -1.830  15.453   0.000  0.00  0.00    +0.000 HD
ENDROOT
TORSDOF 0
REMARK  Name = molecules/MEUCPCLKGZSHTA-XYAYPHGZSA-N.pdb
REMARK                            x       y       z     vdW  Elec       q    Type
REMARK                         _______ _______ _______ _____ _____    ______ ____
ROOT
ATOM      1  H   UNK    1       -0.430   4.061   0.000  0.00  0.00    +0.000 HD
ENDROOT
TORSDOF 0
REMARK  Name = molecules/MEUCPCLKGZSHTA-XYAYPHGZSA-N.pdb
REMARK                            x       y       z     vdW  Elec       q    Type
REMARK                         _______ _______ _______ _____ _____    ______ ____
ROOT
ATOM      1  H   UNK    1        5.598   9.294   0.000  0.00  0.00    +0.000 HD
ENDROOT
TORSDOF 0
REMARK  Name = molecules/MEUCPCLKGZSHTA-XYAYPHGZSA-N.pdb
REMARK                            x       y       z     vdW  Elec       q    Type
REMARK                         _______ _______ _______ _____ _____    ______ ____
ROOT
ATOM      1  H   UNK    1        5.994   3.248   0.000  0.00  0.00    +0.000 HD
ENDROOT
TORSDOF 0
REMARK  Name = molecules/MEUCPCLKGZSHTA-XYAYPHGZSA-N.pdb
REMARK                            x       y       z     vdW  Elec       q    Type
REMARK                         _______ _______ _______ _____ _____    ______ ____
ROOT
ATOM      1  H   UNK    1       10.753   3.103   0.000  0.00  0.00    +0.000 HD
ENDROOT
TORSDOF 0
REMARK  Name = molecules/MEUCPCLKGZSHTA-XYAYPHGZSA-N.pdb
REMARK                            x       y       z     vdW  Elec       q    Type
REMARK                         _______ _______ _______ _____ _____    ______ ____
ROOT
ATOM      1  H   UNK    1       16.592   5.101   0.000  0.00  0.00    +0.000 HD
ENDROOT
TORSDOF 0
REMARK  Name = molecules/MEUCPCLKGZSHTA-XYAYPHGZSA-N.pdb
REMARK                            x       y       z     vdW  Elec       q    Type
REMARK                         _______ _______ _______ _____ _____    ______ ____
ROOT
ATOM      1  H   UNK    1       16.320   2.517   0.000  0.00  0.00    +0.000 HD
ENDROOT
TORSDOF 0
REMARK  Name = molecules/MEUCPCLKGZSHTA-XYAYPHGZSA-N.pdb
REMARK                            x       y       z     vdW  Elec       q    Type
REMARK                         _______ _______ _______ _____ _____    ______ ____
ROOT
ATOM      1  H   UNK    1        2.533  11.507   0.000  0.00  0.00    +0.000 HD
ENDROOT
TORSDOF 0
REMARK  Name = molecules/MEUCPCLKGZSHTA-XYAYPHGZSA-N.pdb
REMARK                            x       y       z     vdW  Elec       q    Type
REMARK                         _______ _______ _______ _____ _____    ______ ____
ROOT
ATOM      1  H   UNK    1        1.783  10.208   0.000  0.00  0.00    +0.000 HD
ENDROOT
TORSDOF 0
REMARK  Name = molecules/MEUCPCLKGZSHTA-XYAYPHGZSA-N.pdb
REMARK                            x       y       z     vdW  Elec       q    Type
REMARK                         _______ _______ _______ _____ _____    ______ ____
ROOT
ATOM      1  H   UNK    1        4.152  12.093   0.000  0.00  0.00    +0.000 HD
ENDROOT
TORSDOF 0
REMARK  Name = molecules/MEUCPCLKGZSHTA-XYAYPHGZSA-N.pdb
REMARK                            x       y       z     vdW  Elec       q    Type
REMARK                         _______ _______ _______ _____ _____    ______ ____
ROOT
ATOM      1  H   UNK    1       -2.397   6.348   0.000  0.00  0.00    +0.000 HD
ENDROOT
TORSDOF 0
REMARK  Name = molecules/MEUCPCLKGZSHTA-XYAYPHGZSA-N.pdb
REMARK                            x       y       z     vdW  Elec       q    Type
REMARK                         _______ _______ _______ _____ _____    ______ ____
ROOT
ATOM      1  H   UNK    1       -1.098   5.598   0.000  0.00  0.00    +0.000 HD
ENDROOT
TORSDOF 0
REMARK  Name = molecules/MEUCPCLKGZSHTA-XYAYPHGZSA-N.pdb
REMARK                            x       y       z     vdW  Elec       q    Type
REMARK                         _______ _______ _______ _____ _____    ______ ____
ROOT
ATOM      1  H   UNK    1       -0.750  -3.897   0.000  0.00  0.00    +0.000 HD
ENDROOT
TORSDOF 0
REMARK  Name = molecules/MEUCPCLKGZSHTA-XYAYPHGZSA-N.pdb
REMARK                            x       y       z     vdW  Elec       q    Type
REMARK                         _______ _______ _______ _____ _____    ______ ____
ROOT
ATOM      1  H   UNK    1       -7.979  -5.436   0.000  0.00  0.00    +0.000 HD
ENDROOT
TORSDOF 0
REMARK  Name = molecules/MEUCPCLKGZSHTA-XYAYPHGZSA-N.pdb
REMARK                            x       y       z     vdW  Elec       q    Type
REMARK                         _______ _______ _______ _____ _____    ______ ____
ROOT
ATOM      1  H   UNK    1        2.604   9.742   0.000  0.00  0.00    +0.000 HD
ENDROOT
TORSDOF 0
REMARK  Name = molecules/MEUCPCLKGZSHTA-XYAYPHGZSA-N.pdb
REMARK                            x       y       z     vdW  Elec       q    Type
REMARK                         _______ _______ _______ _____ _____    ______ ____
ROOT
ATOM      1  H   UNK    1        3.750   9.093   0.000  0.00  0.00    +0.000 HD
ENDROOT
TORSDOF 0
REMARK  Name = molecules/MEUCPCLKGZSHTA-XYAYPHGZSA-N.pdb
REMARK                            x       y       z     vdW  Elec       q    Type
REMARK                         _______ _______ _______ _____ _____    ______ ____
ROOT
ATOM      1  H   UNK    1       -4.794  10.794   0.000  0.00  0.00    +0.000 HD
ENDROOT
TORSDOF 0
REMARK  Name = molecules/MEUCPCLKGZSHTA-XYAYPHGZSA-N.pdb
REMARK                            x       y       z     vdW  Elec       q    Type
REMARK                         _______ _______ _______ _____ _____    ______ ____
ROOT
ATOM      1  H   UNK    1       -4.794  15.294   0.000  0.00  0.00    +0.000 HD
ENDROOT
TORSDOF 0
REMARK  Name = molecules/MEUCPCLKGZSHTA-XYAYPHGZSA-N.pdb
REMARK                            x       y       z     vdW  Elec       q    Type
REMARK                         _______ _______ _______ _____ _____    ______ ____
ROOT
ATOM      1  H   UNK    1       -6.093  13.044   0.000  0.00  0.00    +0.000 HD
ENDROOT
TORSDOF 0
REMARK  Name = molecules/MEUCPCLKGZSHTA-XYAYPHGZSA-N.pdb
REMARK                            x       y       z     vdW  Elec       q    Type
REMARK                         _______ _______ _______ _____ _____    ______ ____
ROOT
ATOM      1  H   UNK    1        6.348   9.093   0.000  0.00  0.00    +0.000 HD
ENDROOT
TORSDOF 0
REMARK  Name = molecules/MEUCPCLKGZSHTA-XYAYPHGZSA-N.pdb
REMARK                            x       y       z     vdW  Elec       q    Type
REMARK                         _______ _______ _______ _____ _____    ______ ____
ROOT
ATOM      1  H   UNK    1        7.684  11.773   0.000  0.00  0.00    +0.000 HD
ENDROOT
TORSDOF 0
REMARK  Name = molecules/MEUCPCLKGZSHTA-XYAYPHGZSA-N.pdb
REMARK                            x       y       z     vdW  Elec       q    Type
REMARK                         _______ _______ _______ _____ _____    ______ ____
ROOT
ATOM      1  H   UNK    1        9.778  -3.640   0.000  0.00  0.00    +0.000 HD
ENDROOT
TORSDOF 0
REMARK  Name = molecules/MEUCPCLKGZSHTA-XYAYPHGZSA-N.pdb
REMARK                            x       y       z     vdW  Elec       q    Type
REMARK                         _______ _______ _______ _____ _____    ______ ____
ROOT
ATOM      1  H   UNK    1       10.062   9.673   0.000  0.00  0.00    +0.000 HD
ENDROOT
TORSDOF 0
