REMARK  Name = molecules/MEZLKOACVSPNER-GFCCVEGCSA-N.pdb
REMARK                            x       y       z     vdW  Elec       q    Type
REMARK                         _______ _______ _______ _____ _____    ______ ____
ROOT
ATOM      1  C   LIG    1       -0.168  -0.046  -0.706  0.00  0.00    +0.053 C 
ENDROOT
BRANCH   1   3
ATOM      2  C   LIG    1       -2.374   1.083  -0.702  0.00  0.00    +0.004 A 
ATOM      3  C   LIG    1       -1.643  -0.093  -0.561  0.00  0.00    -0.046 A 
ATOM      4  C   LIG    1       -2.328  -1.262  -0.302  0.00  0.00    +0.004 A 
ATOM      5  C   LIG    1       -3.696  -1.285  -0.183  0.00  0.00    +0.000 A 
ATOM      6  C   LIG    1       -4.409  -0.114  -0.325  0.00  0.00    +0.000 A 
ATOM      7  C   LIG    1       -3.747   1.063  -0.583  0.00  0.00    +0.000 A 
ENDBRANCH   1   3
BRANCH   1   8
ATOM      8  C   LIG    1        0.557   0.268   0.584  0.00  0.00    +0.058 C 
ATOM      9  C   LIG    1        0.092  -0.511   1.745  0.00  0.00    +0.024 C 
BRANCH   8  10
ATOM     10  N   LIG    1        1.946   0.288   0.322  0.00  0.00    -0.292 NA
ATOM     11  C   LIG    1        2.491   1.488  -0.210  0.00  0.00    +0.106 C 
BRANCH  10  12
ATOM     12  C   LIG    1        2.590  -0.861  -0.118  0.00  0.00    +0.173 C 
BRANCH  12  13
ATOM     13  C   LIG    1        4.027  -0.538  -0.308  0.00  0.00    -0.090 C 
ATOM     14  C   LIG    1        5.189  -0.255  -0.455  0.00  0.00    +0.005 C 
ENDBRANCH  12  13
ENDBRANCH  10  12
ENDBRANCH   8  10
ENDBRANCH   1   8
TORSDOF 5
