REMARK  Name = molecules/MFOCDFTXLCYLKU-CMPLNLGQSA-N.pdb
REMARK                            x       y       z     vdW  Elec       q    Type
REMARK                         _______ _______ _______ _____ _____    ______ ____
ROOT
ATOM      1  C   LIG    1        0.064   0.208   0.649  0.00  0.00    +0.165 C 
ATOM      2  O   LIG    1       -0.110  -0.753   1.649  0.00  0.00    -0.369 OA
ATOM      3  C   LIG    1       -1.208  -1.554   1.425  0.00  0.00    +0.176 C 
ATOM      4  C   LIG    1       -2.427  -0.665   1.234  0.00  0.00    +0.112 C 
ATOM      5  N   LIG    1       -2.237   0.149   0.076  0.00  0.00    -0.298 NA
ATOM      6  C   LIG    1       -3.297   0.128  -0.870  0.00  0.00    +0.105 C 
ATOM      7  C   LIG    1       -0.920  -0.031  -0.503  0.00  0.00    +0.087 C 
ATOM      8  C   LIG    1       -0.712   1.074  -1.509  0.00  0.00    +0.027 C 
ENDROOT
BRANCH   1  10
ATOM      9  C   LIG    1        2.146   1.369   0.020  0.00  0.00    +0.006 A 
ATOM     10  C   LIG    1        1.452   0.194   0.201  0.00  0.00    -0.017 A 
ATOM     11  C   LIG    1        2.139  -0.968  -0.062  0.00  0.00    +0.006 A 
ATOM     12  C   LIG    1        3.452  -0.978  -0.485  0.00  0.00    +0.000 A 
ATOM     13  C   LIG    1        4.135   0.205  -0.662  0.00  0.00    +0.000 A 
ATOM     14  C   LIG    1        3.469   1.382  -0.406  0.00  0.00    +0.000 A 
ENDBRANCH   1  10
TORSDOF 1
