REMARK  Name = molecules/MFZCIDXOLLEMOO-GYSGTQPESA-N.pdb
REMARK                            x       y       z     vdW  Elec       q    Type
REMARK                         _______ _______ _______ _____ _____    ______ ____
ROOT
ATOM      1  C   LIG    1       -1.191  -0.153  -0.125  0.00  0.00    +0.265 C 
ATOM      2  C   LIG    1       -1.171   1.291  -0.648  0.00  0.00    +0.265 C 
ATOM      3  C   LIG    1        0.117   1.906  -0.240  0.00  0.00    +0.265 C 
ATOM      4  C   LIG    1        1.225   1.098  -0.886  0.00  0.00    +0.265 C 
ATOM      5  C   LIG    1        1.197  -0.357  -0.445  0.00  0.00    +0.265 C 
ATOM      6  C   LIG    1       -0.144  -0.891  -0.927  0.00  0.00    +0.265 C 
ENDROOT
BRANCH   3   7
ATOM      7  O   LIG    1        0.191   1.920   1.163  0.00  0.00    -0.450 OA
BRANCH   7   8
ATOM      8  C   LIG    1        0.369   3.025   1.944  0.00  0.00    +0.341 C 
ATOM      9  O   LIG    1        0.481   4.144   1.388  0.00  0.00    -0.245 OA
BRANCH   8  10
ATOM     10  C   LIG    1        0.439   2.996   3.401  0.00  0.00    +0.077 A 
ATOM     11  C   LIG    1        0.621   4.147   4.140  0.00  0.00    +0.125 A 
ATOM     12  N   LIG    1        0.693   4.187   5.473  0.00  0.00    -0.262 NA
ATOM     13  C   LIG    1        0.588   3.061   6.184  0.00  0.00    +0.111 A 
ATOM     14  C   LIG    1        0.406   1.890   5.492  0.00  0.00    +0.020 A 
ATOM     15  C   LIG    1        0.328   1.821   4.118  0.00  0.00    +0.018 A 
ENDBRANCH   8  10
ENDBRANCH   7   8
ENDBRANCH   3   7
BRANCH   5  16
ATOM     16  O   LIG    1        2.291  -1.004  -1.035  0.00  0.00    -0.450 OA
BRANCH  16  17
ATOM     17  C   LIG    1        3.338  -1.557  -0.314  0.00  0.00    +0.341 C 
ATOM     18  O   LIG    1        3.276  -1.459   0.938  0.00  0.00    -0.245 OA
BRANCH  17  19
ATOM     19  C   LIG    1        4.465  -2.224  -0.945  0.00  0.00    +0.077 A 
ATOM     20  C   LIG    1        5.465  -2.747  -0.168  0.00  0.00    +0.018 A 
ATOM     21  C   LIG    1        6.552  -3.388  -0.731  0.00  0.00    +0.020 A 
ATOM     22  C   LIG    1        6.644  -3.510  -2.100  0.00  0.00    +0.111 A 
ATOM     23  N   LIG    1        5.649  -2.989  -2.857  0.00  0.00    -0.262 NA
ATOM     24  C   LIG    1        4.587  -2.363  -2.308  0.00  0.00    +0.125 A 
ENDBRANCH  17  19
ENDBRANCH  16  17
ENDBRANCH   5  16
BRANCH   1  25
ATOM     25  O   LIG    1       -2.461  -0.720  -0.174  0.00  0.00    -0.450 OA
BRANCH  25  26
ATOM     26  C   LIG    1       -3.056  -1.115   1.014  0.00  0.00    +0.341 C 
ATOM     27  O   LIG    1       -2.414  -0.944   2.107  0.00  0.00    -0.245 OA
BRANCH  26  28
ATOM     28  C   LIG    1       -4.380  -1.718   1.070  0.00  0.00    +0.077 A 
ATOM     29  C   LIG    1       -4.953  -2.105   2.260  0.00  0.00    +0.018 A 
ATOM     30  C   LIG    1       -6.229  -2.681   2.282  0.00  0.00    +0.020 A 
ATOM     31  C   LIG    1       -6.930  -2.868   1.105  0.00  0.00    +0.111 A 
ATOM     32  N   LIG    1       -6.348  -2.482  -0.043  0.00  0.00    -0.262 NA
ATOM     33  C   LIG    1       -5.105  -1.918  -0.084  0.00  0.00    +0.125 A 
ENDBRANCH  26  28
ENDBRANCH  25  26
ENDBRANCH   1  25
BRANCH   4  34
ATOM     34  O   LIG    1        2.493   1.676  -0.713  0.00  0.00    -0.450 OA
BRANCH  34  35
ATOM     35  C   LIG    1        3.270   2.133  -1.766  0.00  0.00    +0.341 C 
ATOM     36  O   LIG    1        2.841   2.038  -2.941  0.00  0.00    -0.245 OA
BRANCH  35  37
ATOM     37  C   LIG    1        4.566   2.716  -1.499  0.00  0.00    +0.077 A 
ATOM     38  C   LIG    1        5.040   2.822  -0.209  0.00  0.00    +0.018 A 
ATOM     39  C   LIG    1        6.294   3.388   0.015  0.00  0.00    +0.020 A 
ATOM     40  C   LIG    1        7.024   3.827  -1.074  0.00  0.00    +0.111 A 
ATOM     41  N   LIG    1        6.554   3.720  -2.329  0.00  0.00    -0.262 NA
ATOM     42  C   LIG    1        5.337   3.170  -2.544  0.00  0.00    +0.125 A 
ENDBRANCH  35  37
ENDBRANCH  34  35
ENDBRANCH   4  34
BRANCH   2  43
ATOM     43  O   LIG    1       -2.328   1.951  -0.253  0.00  0.00    -0.450 OA
BRANCH  43  44
ATOM     44  C   LIG    1       -3.329   2.413  -1.076  0.00  0.00    +0.341 C 
ATOM     45  O   LIG    1       -3.131   2.192  -2.300  0.00  0.00    -0.245 OA
BRANCH  44  46
ATOM     46  C   LIG    1       -4.519   3.094  -0.619  0.00  0.00    +0.077 A 
ATOM     47  C   LIG    1       -4.716   3.326   0.716  0.00  0.00    +0.018 A 
ATOM     48  C   LIG    1       -5.874   3.985   1.117  0.00  0.00    +0.020 A 
ATOM     49  C   LIG    1       -6.803   4.397   0.193  0.00  0.00    +0.111 A 
ATOM     50  N   LIG    1       -6.594   4.162  -1.112  0.00  0.00    -0.262 NA
ATOM     51  C   LIG    1       -5.461   3.516  -1.521  0.00  0.00    +0.125 A 
ENDBRANCH  44  46
ENDBRANCH  43  44
ENDBRANCH   2  43
BRANCH   6  52
ATOM     52  O   LIG    1       -0.253  -2.276  -0.856  0.00  0.00    -0.450 OA
BRANCH  52  53
ATOM     53  C   LIG    1       -0.471  -3.041  -2.002  0.00  0.00    +0.341 C 
ATOM     54  O   LIG    1       -0.561  -2.405  -3.083  0.00  0.00    -0.245 OA
BRANCH  53  55
ATOM     55  C   LIG    1       -0.591  -4.479  -1.984  0.00  0.00    +0.077 A 
ATOM     56  C   LIG    1       -0.502  -5.236  -0.842  0.00  0.00    +0.125 A 
ATOM     57  N   LIG    1       -0.625  -6.588  -0.901  0.00  0.00    -0.262 NA
ATOM     58  C   LIG    1       -0.836  -7.249  -2.051  0.00  0.00    +0.111 A 
ATOM     59  C   LIG    1       -0.931  -6.527  -3.215  0.00  0.00    +0.020 A 
ATOM     60  C   LIG    1       -0.807  -5.157  -3.159  0.00  0.00    +0.018 A 
ENDBRANCH  53  55
ENDBRANCH  52  53
ENDBRANCH   6  52
TORSDOF 18
