REMARK  Name = molecules/MGSRCZKZVOBKFT-UHFFFAOYSA-N.pdb
REMARK                            x       y       z     vdW  Elec       q    Type
REMARK                         _______ _______ _______ _____ _____    ______ ____
ROOT
ATOM      1  C   LIG    1       -0.463  -0.156  -0.228  0.00  0.00    -0.003 A 
ATOM      2  C   LIG    1        0.171  -1.351  -0.021  0.00  0.00    +0.008 A 
ATOM      3  C   LIG    1        1.560  -1.387   0.044  0.00  0.00    +0.004 A 
ATOM      4  C   LIG    1        2.349  -0.273  -0.090  0.00  0.00    -0.047 A 
ATOM      5  C   LIG    1        3.831  -0.316  -0.017  0.00  0.00    +0.044 C 
ATOM      6  C   LIG    1        1.701   0.930  -0.299  0.00  0.00    +0.049 A 
ATOM      7  C   LIG    1        0.341   0.992  -0.367  0.00  0.00    +0.121 A 
ENDROOT
BRANCH   1   8
ATOM      8  C   LIG    1       -1.918  -0.013  -0.322  0.00  0.00    +0.016 C 
ATOM      9  C   LIG    1       -2.417   1.204   0.469  0.00  0.00    +0.012 C 
ATOM     10  C   LIG    1       -2.735  -1.189   0.094  0.00  0.00    +0.012 C 
ENDBRANCH   1   8
BRANCH   7  11
ATOM     11  O   LIG    1       -0.280   2.207  -0.577  0.00  0.00    -0.506 OA
ATOM     12  H   LIG    1        0.297   3.025  -0.675  0.00  0.00    +0.292 HD
ENDBRANCH   7  11
TORSDOF 2
