REMARK  Name = molecules/MGYPWVCKENORQX-CODNTFCVSA-N.pdb
REMARK                            x       y       z     vdW  Elec       q    Type
REMARK                         _______ _______ _______ _____ _____    ______ ____
ROOT
ATOM      1  C   LIG    1        0.067  -2.097  -0.024  0.00  0.00    +0.125 C 
ATOM      2  N   LIG    1       -0.672  -1.478   1.052  0.00  0.00    -0.249 N 
ATOM      3  C   LIG    1       -0.831  -0.349   1.863  0.00  0.00    +0.244 C 
ATOM      4  O   LIG    1       -0.095   0.603   2.217  0.00  0.00    -0.273 OA
ATOM      5  C   LIG    1       -2.223  -0.740   2.131  0.00  0.00    +0.191 C 
ATOM      6  C   LIG    1       -1.754  -2.117   1.764  0.00  0.00    +0.169 C 
ATOM      7  S   LIG    1       -2.782  -3.005   0.595  0.00  0.00    -0.131 S 
ATOM      8  C   LIG    1       -2.081  -2.773  -1.028  0.00  0.00    +0.107 C 
ATOM      9  C   LIG    1       -0.550  -2.709  -0.998  0.00  0.00    +0.006 C 
ENDROOT
BRANCH   5  10
ATOM     10  N   LIG    1       -3.116  -0.166   1.119  0.00  0.00    -0.296 N 
ATOM     11  C   LIG    1       -4.336   0.419   1.517  0.00  0.00    +0.270 C 
ATOM     12  O   LIG    1       -4.634   0.432   2.777  0.00  0.00    -0.268 OA
ATOM     13  H   LIG    1       -2.849  -0.189   0.126  0.00  0.00    +0.150 HD
BRANCH  11  14
ATOM     14  C   LIG    1       -5.315   1.020   0.666  0.00  0.00    +0.206 C 
ATOM     15  N   LIG    1       -5.159   1.080  -0.599  0.00  0.00    -0.076 NA
BRANCH  14  16
ATOM     16  C   LIG    1       -6.552   1.589   1.270  0.00  0.00    +0.161 A 
ATOM     17  O   LIG    1       -6.824   1.588   2.530  0.00  0.00    -0.461 OA
ATOM     18  C   LIG    1       -7.996   2.167   2.753  0.00  0.00    +0.196 A 
ATOM     19  C   LIG    1       -8.529   2.577   1.551  0.00  0.00    +0.042 A 
ATOM     20  C   LIG    1       -7.582   2.196   0.593  0.00  0.00    +0.052 A 
ENDBRANCH  14  16
BRANCH  15  21
ATOM     21  O   LIG    1       -4.129   0.632  -1.343  0.00  0.00    -0.396 OA
ATOM     22  C   LIG    1       -3.469   1.564  -2.193  0.00  0.00    +0.313 C 
ENDBRANCH  15  21
ENDBRANCH  11  14
ENDBRANCH   5  10
BRANCH   1  23
ATOM     23  C   LIG    1        1.508  -1.927  -0.002  0.00  0.00    +0.357 C 
ATOM     24  O   LIG    1        2.226  -2.336  -0.918  0.00  0.00    -0.243 OA
BRANCH  23  25
ATOM     25  O   LIG    1        2.184  -1.284   1.055  0.00  0.00    -0.421 OA
BRANCH  25  26
ATOM     26  C   LIG    1        3.572  -1.153   1.006  0.00  0.00    +0.367 C 
ATOM     27  C   LIG    1        4.156  -1.987   2.132  0.00  0.00    +0.100 C 
BRANCH  26  28
ATOM     28  O   LIG    1        3.990   0.199   1.110  0.00  0.00    -0.423 OA
BRANCH  28  29
ATOM     29  C   LIG    1        4.762   0.721   0.084  0.00  0.00    +0.342 C 
ATOM     30  O   LIG    1        5.058  -0.027  -0.893  0.00  0.00    -0.247 OA
BRANCH  29  31
ATOM     31  C   LIG    1        5.248   2.138   0.110  0.00  0.00    +0.160 C 
ATOM     32  C   LIG    1        6.135   2.387   1.306  0.00  0.00    +0.053 C 
ATOM     33  C   LIG    1        4.017   3.022   0.187  0.00  0.00    +0.053 C 
BRANCH  31  34
ATOM     34  O   LIG    1        5.989   2.374  -1.041  0.00  0.00    -0.366 OA
ATOM     35  C   LIG    1        6.476   3.666  -1.096  0.00  0.00    +0.195 C 
ENDBRANCH  31  34
ENDBRANCH  29  31
ENDBRANCH  28  29
ENDBRANCH  26  28
ENDBRANCH  25  26
ENDBRANCH  23  25
ENDBRANCH   1  23
BRANCH   9  36
ATOM     36  C   LIG    1        0.173  -3.426  -2.065  0.00  0.00    +0.268 C 
BRANCH  36  37
ATOM     37  O   LIG    1       -0.097  -2.883  -3.349  0.00  0.00    -0.446 OA
BRANCH  37  38
ATOM     38  C   LIG    1        0.504  -3.445  -4.465  0.00  0.00    +0.398 C 
ATOM     39  O   LIG    1        1.287  -4.441  -4.301  0.00  0.00    -0.227 OA
ATOM     40  N   LIG    1        0.321  -3.004  -5.788  0.00  0.00    -0.295 N 
ATOM     41  H   LIG    1       -0.600  -2.596  -6.054  0.00  0.00    +0.148 HD
ATOM     42  H   LIG    1        1.074  -3.074  -6.503  0.00  0.00    +0.148 HD
ENDBRANCH  37  38
ENDBRANCH  36  37
ENDBRANCH   9  36
TORSDOF 14
