REMARK  Name = molecules/MHIGBKBJSQVXNH-IWVLMIASSA-N.pdb
REMARK                            x       y       z     vdW  Elec       q    Type
REMARK                         _______ _______ _______ _____ _____    ______ ____
ROOT
ATOM      1  C   LIG    1       -4.918   1.514  -0.633  0.00  0.00    +0.128 A 
ATOM      2  C   LIG    1       -3.786   0.939  -0.077  0.00  0.00    +0.071 A 
ATOM      3  C   LIG    1       -3.754  -0.317   0.490  0.00  0.00    -0.007 A 
ATOM      4  C   LIG    1       -2.555  -0.884   1.118  0.00  0.00    -0.036 C 
ATOM      5  C   LIG    1       -2.660  -2.044   1.782  0.00  0.00    +0.013 C 
ATOM      6  C   LIG    1       -1.254  -0.227   1.081  0.00  0.00    +0.085 C 
ATOM      7  C   LIG    1       -1.314   1.074   0.385  0.00  0.00    +0.050 C 
ATOM      8  C   LIG    1       -0.112   1.672   0.253  0.00  0.00    +0.141 C 
ATOM      9  C   LIG    1        1.087   0.981   0.817  0.00  0.00    +0.192 C 
ATOM     10  C   LIG    1        1.153  -0.475   0.518  0.00  0.00    +0.090 C 
ATOM     11  C   LIG    1        1.947  -0.828  -0.690  0.00  0.00    +0.132 C 
ATOM     12  C   LIG    1        3.099   0.002  -0.988  0.00  0.00    +0.127 C 
ATOM     13  C   LIG    1        3.253   1.203  -0.495  0.00  0.00    +0.121 C 
ATOM     14  C   LIG    1        2.251   1.749   0.383  0.00  0.00    +0.211 C 
ATOM     15  O   LIG    1        2.364   2.933   0.803  0.00  0.00    -0.288 OA
ATOM     16  C   LIG    1       -0.257  -1.048   0.293  0.00  0.00    +0.135 C 
ATOM     17  C   LIG    1       -4.978  -0.996   0.465  0.00  0.00    +0.009 A 
ATOM     18  C   LIG    1       -6.121  -0.443  -0.085  0.00  0.00    +0.004 A 
ATOM     19  C   LIG    1       -2.517   1.679  -0.137  0.00  0.00    +0.197 C 
ATOM     20  O   LIG    1       -2.510   2.827  -0.642  0.00  0.00    -0.287 OA
ATOM     21  C   LIG    1       -6.103   0.815  -0.638  0.00  0.00    +0.046 A 
ENDROOT
BRANCH  13  22
ATOM     22  C   LIG    1        4.451   2.014  -0.828  0.00  0.00    +0.248 C 
ATOM     23  N   LIG    1        4.545   3.297  -0.259  0.00  0.00    -0.325 N 
ATOM     24  H   LIG    1        5.185   3.392   0.584  0.00  0.00    +0.145 HD
ATOM     25  H   LIG    1        4.056   4.149  -0.582  0.00  0.00    +0.145 HD
ATOM     26  O   LIG    1        5.346   1.575  -1.588  0.00  0.00    -0.270 OA
ENDBRANCH  13  22
BRANCH  11  27
ATOM     27  N   LIG    1        2.294  -2.245  -0.638  0.00  0.00    -0.298 NA
ATOM     28  C   LIG    1        3.131  -2.597   0.458  0.00  0.00    +0.105 C 
ATOM     29  C   LIG    1        2.865  -2.722  -1.863  0.00  0.00    +0.105 C 
ENDBRANCH  11  27
BRANCH   9  30
ATOM     30  O   LIG    1        1.036   1.145   2.226  0.00  0.00    -0.373 OA
ATOM     31  H   LIG    1        0.505   1.962   2.419  0.00  0.00    +0.211 HD
ENDBRANCH   9  30
BRANCH  12  32
ATOM     32  O   LIG    1        4.097  -0.491  -1.837  0.00  0.00    -0.509 OA
ATOM     33  H   LIG    1        4.983  -0.722  -1.363  0.00  0.00    +0.292 HD
ENDBRANCH  12  32
BRANCH   8  34
ATOM     34  O   LIG    1       -0.083   2.878  -0.397  0.00  0.00    -0.507 OA
ATOM     35  H   LIG    1       -0.340   3.711   0.127  0.00  0.00    +0.292 HD
ENDBRANCH   8  34
BRANCH  16  36
ATOM     36  O   LIG    1       -0.331  -2.396   0.468  0.00  0.00    -0.390 OA
ATOM     37  H   LIG    1        0.309  -2.794   1.097  0.00  0.00    +0.210 HD
ENDBRANCH  16  36
BRANCH   1  38
ATOM     38  O   LIG    1       -4.872   2.784  -1.184  0.00  0.00    -0.506 OA
ATOM     39  H   LIG    1       -5.646   3.245  -1.595  0.00  0.00    +0.292 HD
ENDBRANCH   1  38
TORSDOF 7
