REMARK  Name = molecules/MHPZZZZLAQGTHT-UHFFFAOYSA-N.pdb
REMARK                            x       y       z     vdW  Elec       q    Type
REMARK                         _______ _______ _______ _____ _____    ______ ____
ROOT
ATOM      1  N   LIG    1       -0.273   0.085  -0.044  0.00  0.00    -0.284 N 
ATOM      2  C   LIG    1        0.474  -1.063   0.291  0.00  0.00    +0.231 C 
ATOM      3  O   LIG    1       -0.222  -2.098   0.589  0.00  0.00    -0.274 OA
ATOM      4  H   LIG    1        0.230   0.952  -0.306  0.00  0.00    +0.155 HD
ENDROOT
BRANCH   1   5
ATOM      5  C   LIG    1       -1.694   0.119  -0.057  0.00  0.00    +0.040 A 
ATOM      6  C   LIG    1       -2.409   0.416   1.090  0.00  0.00    -0.029 A 
ATOM      7  C   LIG    1       -1.697   0.710   2.350  0.00  0.00    +0.045 C 
ATOM      8  C   LIG    1       -3.789   0.449   1.123  0.00  0.00    +0.009 A 
ATOM      9  C   LIG    1       -4.505   0.177  -0.026  0.00  0.00    -0.036 A 
ATOM     10  C   LIG    1       -5.995   0.196  -0.046  0.00  0.00    +0.045 C 
ATOM     11  C   LIG    1       -3.810  -0.121  -1.182  0.00  0.00    +0.025 A 
ATOM     12 BR   LIG    1       -4.759  -0.510  -2.801  0.00  0.00    -0.050 Br
ATOM     13  C   LIG    1       -2.429  -0.150  -1.196  0.00  0.00    -0.015 A 
ATOM     14  C   LIG    1       -1.729  -0.477  -2.466  0.00  0.00    +0.047 C 
ENDBRANCH   1   5
BRANCH   2  15
ATOM     15  C   LIG    1        1.919  -1.210   0.338  0.00  0.00    +0.181 C 
BRANCH  15  16
ATOM     16  N   LIG    1        2.697  -0.034   0.022  0.00  0.00    -0.274 NA
BRANCH  16  17
ATOM     17  C   LIG    1        2.660   0.958   1.081  0.00  0.00    +0.206 C 
BRANCH  17  18
ATOM     18  C   LIG    1        3.400   2.157   0.611  0.00  0.00    +0.319 C 
ATOM     19  O   LIG    1        3.602   3.126   1.395  0.00  0.00    -0.250 OA
BRANCH  18  20
ATOM     20  O   LIG    1        3.881   2.236  -0.687  0.00  0.00    -0.480 OA
ATOM     21  H   LIG    1        4.796   2.615  -0.887  0.00  0.00    +0.295 HD
ENDBRANCH  18  20
ENDBRANCH  17  18
ENDBRANCH  16  17
BRANCH  16  22
ATOM     22  C   LIG    1        4.099  -0.519   0.039  0.00  0.00    +0.206 C 
BRANCH  22  23
ATOM     23  C   LIG    1        4.414  -1.382  -1.089  0.00  0.00    +0.319 C 
ATOM     24  O   LIG    1        3.619  -1.546  -2.039  0.00  0.00    -0.250 OA
BRANCH  23  25
ATOM     25  O   LIG    1        5.630  -2.033  -1.097  0.00  0.00    -0.480 OA
ATOM     26  H   LIG    1        6.041  -2.400  -0.230  0.00  0.00    +0.295 HD
ENDBRANCH  23  25
ENDBRANCH  22  23
ENDBRANCH  16  22
ENDBRANCH  15  16
ENDBRANCH   2  15
TORSDOF 9
