REMARK  Name = molecules/MIFYHUACUWQUKT-GPUHXXMPSA-N.pdb
REMARK                            x       y       z     vdW  Elec       q    Type
REMARK                         _______ _______ _______ _____ _____    ______ ____
ROOT
ATOM      1  N   LIG    1       -0.104   0.605   0.726  0.00  0.00    -0.302 N 
ATOM      2  H   LIG    1       -0.652  -0.067   1.299  0.00  0.00    +0.150 HD
ATOM      3  C   LIG    1        1.337   0.571   0.729  0.00  0.00    +0.214 C 
ATOM      4  O   LIG    1        1.994   1.379   0.039  0.00  0.00    -0.276 OA
ENDROOT
BRANCH   1   9
ATOM      5  CA  LIG    1       -4.149   0.994  -0.045  0.00  0.00    +0.201 C 
ATOM      6  N   LIG    1       -2.861   1.614   0.126  0.00  0.00    -0.271 N 
ATOM      7  C   LIG    1       -1.771   2.417   0.597  0.00  0.00    +0.240 C 
ATOM      8  O   LIG    1       -1.698   3.433   1.312  0.00  0.00    -0.273 OA
ATOM      9  CA  LIG    1       -0.747   1.586  -0.084  0.00  0.00    +0.190 C 
ATOM     10  C   LIG    1       -1.925   1.103  -0.884  0.00  0.00    +0.165 C 
ATOM     11  S   LIG    1       -2.285  -0.677  -0.704  0.00  0.00    -0.127 S 
ATOM     12  C   LIG    1       -3.956  -0.500   0.035  0.00  0.00    +0.042 C 
ATOM     13  C   LIG    1       -4.011  -1.042   1.424  0.00  0.00    +0.025 C 
ATOM     14  C   LIG    1       -4.905  -1.264  -0.830  0.00  0.00    +0.025 C 
BRANCH   5  15
ATOM     15  C   LIG    1       -4.797   1.431  -1.282  0.00  0.00    +0.327 C 
ATOM     16  O   LIG    1       -4.257   2.248  -2.063  0.00  0.00    -0.249 OA
BRANCH  15  17
ATOM     17  OXT LIG    1       -6.045   0.949  -1.631  0.00  0.00    -0.479 OA
ATOM     18  HXT LIG    1       -6.918   1.405  -1.364  0.00  0.00    +0.295 HD
ENDBRANCH  15  17
ENDBRANCH   5  15
ENDBRANCH   1   9
BRANCH   3  19
ATOM     19  C   LIG    1        2.013  -0.427   1.552  0.00  0.00    +0.096 C 
BRANCH  19  20
ATOM     20  C   LIG    1        3.496  -0.391   1.323  0.00  0.00    +0.011 C 
BRANCH  20  21
ATOM     21  C   LIG    1        3.906  -0.722  -0.082  0.00  0.00    +0.030 C 
BRANCH  21  22
ATOM     22  CA  LIG    1        5.433  -0.636  -0.110  0.00  0.00    +0.161 C 
BRANCH  22  23
ATOM     23  N   LIG    1        5.938  -1.584   0.856  0.00  0.00    -0.318 NA
ATOM     24  H1  LIG    1        6.747  -1.176   1.387  0.00  0.00    +0.119 HD
ATOM     25  H2  LIG    1        6.245  -2.434   0.305  0.00  0.00    +0.119 HD
ENDBRANCH  22  23
BRANCH  22  26
ATOM     26  C   LIG    1        5.944  -0.950  -1.470  0.00  0.00    +0.322 C 
ATOM     27  OXT LIG    1        6.709  -1.940  -1.619  0.00  0.00    -0.249 OA
BRANCH  26  28
ATOM     28  O   LIG    1        5.555  -0.134  -2.527  0.00  0.00    -0.480 OA
ATOM     29  H   LIG    1        6.073   0.711  -2.665  0.00  0.00    +0.295 HD
ENDBRANCH  26  28
ENDBRANCH  22  26
ENDBRANCH  21  22
ENDBRANCH  20  21
ENDBRANCH  19  20
ENDBRANCH   3  19
TORSDOF 10
