REMARK  Name = molecules/MIQPIUSUKVNLNT-UHFFFAOYSA-N.pdb
REMARK                            x       y       z     vdW  Elec       q    Type
REMARK                         _______ _______ _______ _____ _____    ______ ____
ROOT
ATOM      1  C   LIG    1       -1.142  -0.466  -0.837  0.00  0.00    +0.001 A 
ATOM      2  C   LIG    1       -1.707   0.644  -0.305  0.00  0.00    +0.043 A 
ATOM      3  C   LIG    1       -3.103   0.767  -0.084  0.00  0.00    +0.171 A 
ATOM      4  C   LIG    1       -3.950  -0.252  -0.404  0.00  0.00    +0.189 A 
ATOM      5  C   LIG    1       -3.387  -1.412  -0.957  0.00  0.00    +0.161 A 
ATOM      6  C   LIG    1       -2.040  -1.506  -1.162  0.00  0.00    +0.056 A 
ENDROOT
BRANCH   3   7
ATOM      7  N   LIG    1       -3.583   1.973   0.474  0.00  0.00    +0.060 N 
ATOM      8  O   LIG    1       -2.735   2.617   1.369  0.00  0.00    -0.126 OA
ATOM      9  O   LIG    1       -4.668   2.510   0.229  0.00  0.00    -0.126 OA
ENDBRANCH   3   7
BRANCH   1  10
ATOM     10  C   LIG    1        0.232  -0.708  -1.052  0.00  0.00    +0.194 C 
ATOM     11  O   LIG    1        0.483  -1.500  -2.097  0.00  0.00    -0.213 OA
BRANCH  10  16
ATOM     12  C   LIG    1        5.259   0.619   1.498  0.00  0.00    +0.044 C 
ATOM     13  C   LIG    1        3.942   0.306   0.851  0.00  0.00    -0.050 A 
ATOM     14  C   LIG    1        2.875   1.154   0.945  0.00  0.00    +0.004 A 
ATOM     15  C   LIG    1        1.649   0.839   0.326  0.00  0.00    +0.007 A 
ATOM     16  C   LIG    1        1.443  -0.303  -0.393  0.00  0.00    -0.005 A 
ATOM     17  C   LIG    1        2.581  -1.151  -0.461  0.00  0.00    +0.007 A 
ATOM     18  C   LIG    1        3.768  -0.852   0.136  0.00  0.00    +0.004 A 
ENDBRANCH  10  16
ENDBRANCH   1  10
BRANCH   4  19
ATOM     19  O   LIG    1       -5.326  -0.202  -0.212  0.00  0.00    -0.502 OA
ATOM     20  H   LIG    1       -5.774   0.587   0.186  0.00  0.00    +0.292 HD
ENDBRANCH   4  19
BRANCH   5  21
ATOM     21  O   LIG    1       -4.271  -2.426  -1.271  0.00  0.00    -0.503 OA
ATOM     22  H   LIG    1       -5.251  -2.385  -1.127  0.00  0.00    +0.292 HD
ENDBRANCH   5  21
TORSDOF 5
