REMARK  Name = molecules/MIRHIEAGDGUXKL-UHFFFAOYSA-N.pdb
REMARK                            x       y       z     vdW  Elec       q    Type
REMARK                         _______ _______ _______ _____ _____    ______ ____
ROOT
ATOM      1  C   LIG    1        0.637   0.067  -0.132  0.00  0.00    +0.126 C 
ATOM      2  C   LIG    1        0.108   0.196   1.238  0.00  0.00    +0.049 C 
ATOM      3  C   LIG    1       -1.269  -0.365   1.479  0.00  0.00    +0.004 C 
ATOM      4  C   LIG    1       -2.216  -0.152   0.348  0.00  0.00    +0.000 C 
ATOM      5  C   LIG    1       -1.623  -0.840  -0.856  0.00  0.00    +0.004 C 
ATOM      6  C   LIG    1       -0.253  -0.418  -1.203  0.00  0.00    +0.049 C 
ENDROOT
BRANCH   1   7
ATOM      7  O   LIG    1        1.388   1.187  -0.589  0.00  0.00    -0.443 OA
BRANCH   7   8
ATOM      8  C   LIG    1        0.848   2.431  -0.679  0.00  0.00    +0.398 C 
ATOM      9  O   LIG    1       -0.353   2.485  -0.327  0.00  0.00    -0.227 OA
ATOM     10  N   LIG    1        1.576   3.565  -1.131  0.00  0.00    -0.295 N 
ATOM     11  H   LIG    1        1.166   4.522  -1.053  0.00  0.00    +0.148 HD
ATOM     12  H   LIG    1        2.507   3.466  -1.537  0.00  0.00    +0.148 HD
ENDBRANCH   7   8
ENDBRANCH   1   7
BRANCH   1  13
ATOM     13  C   LIG    1        1.780  -0.979  -0.025  0.00  0.00    +0.136 C 
BRANCH  13  14
ATOM     14  C   LIG    1        1.301  -2.255   0.429  0.00  0.00    -0.102 C 
ATOM     15  C   LIG    1        0.917  -3.334   0.802  0.00  0.00    +0.004 C 
ENDBRANCH  13  14
ENDBRANCH   1  13
TORSDOF 4
