REMARK  Name = molecules/MJFVUHGZVIKGIW-HXUWFJFHSA-N.pdb
REMARK                            x       y       z     vdW  Elec       q    Type
REMARK                         _______ _______ _______ _____ _____    ______ ____
ROOT
ATOM      1  C   LIG    1       -3.132  -0.552   0.737  0.00  0.00    +0.275 A 
ATOM      2  O   LIG    1       -3.834  -0.902   1.711  0.00  0.00    -0.266 OA
ATOM      3  C   LIG    1       -1.837  -1.025   0.414  0.00  0.00    +0.042 A 
ATOM      4  C   LIG    1       -1.514  -0.345  -0.710  0.00  0.00    +0.046 A 
ATOM      5  N   LIG    1       -2.542   0.503  -1.083  0.00  0.00    -0.284 N 
ATOM      6  C   LIG    1       -2.571   1.387  -2.233  0.00  0.00    +0.171 C 
ATOM      7  N   LIG    1       -3.495   0.352  -0.187  0.00  0.00    -0.217 N 
ENDROOT
BRANCH   7   8
ATOM      8  C   LIG    1       -4.701   1.105  -0.238  0.00  0.00    +0.067 A 
ATOM      9  C   LIG    1       -4.739   2.382   0.287  0.00  0.00    +0.028 A 
ATOM     10  C   LIG    1       -5.911   3.137   0.235  0.00  0.00    +0.002 A 
ATOM     11  C   LIG    1       -7.042   2.626  -0.337  0.00  0.00    +0.000 A 
ATOM     12  C   LIG    1       -7.013   1.352  -0.864  0.00  0.00    +0.002 A 
ATOM     13  C   LIG    1       -5.839   0.605  -0.808  0.00  0.00    +0.028 A 
ENDBRANCH   7   8
BRANCH   3  14
ATOM     14  C   LIG    1       -1.242  -2.051   1.260  0.00  0.00    +0.020 C 
ATOM     15  C   LIG    1       -2.283  -3.075   1.736  0.00  0.00    +0.012 C 
ATOM     16  C   LIG    1       -0.068  -2.794   0.806  0.00  0.00    +0.012 C 
ENDBRANCH   3  14
BRANCH   4  17
ATOM     17  C   LIG    1       -0.234  -0.316  -1.444  0.00  0.00    +0.071 C 
BRANCH  17  18
ATOM     18  C   LIG    1        0.680   0.791  -1.014  0.00  0.00    +0.090 C 
BRANCH  18  19
ATOM     19  N   LIG    1        1.149   0.779   0.335  0.00  0.00    -0.302 NA
ATOM     20  C   LIG    1        1.619   2.185   0.636  0.00  0.00    +0.105 C 
BRANCH  19  21
ATOM     21  C   LIG    1        2.419   0.048   0.463  0.00  0.00    +0.058 C 
ATOM     22  C   LIG    1        2.695  -0.168   1.911  0.00  0.00    +0.024 C 
BRANCH  21  23
ATOM     23  C   LIG    1        3.580   0.687  -0.215  0.00  0.00    +0.053 C 
BRANCH  23  24
ATOM     24  C   LIG    1        4.838  -0.119  -0.002  0.00  0.00    -0.046 A 
ATOM     25  C   LIG    1        5.723   0.172   1.011  0.00  0.00    +0.004 A 
ATOM     26  C   LIG    1        6.879  -0.532   1.230  0.00  0.00    +0.000 A 
ATOM     27  C   LIG    1        7.151  -1.581   0.382  0.00  0.00    +0.000 A 
ATOM     28  C   LIG    1        6.290  -1.911  -0.651  0.00  0.00    +0.000 A 
ATOM     29  C   LIG    1        5.127  -1.161  -0.831  0.00  0.00    +0.004 A 
ENDBRANCH  23  24
ENDBRANCH  21  23
ENDBRANCH  19  21
ENDBRANCH  18  19
ENDBRANCH  17  18
ENDBRANCH   4  17
TORSDOF 8
