REMARK  Name = molecules/MJJALKDDGIKVBE-UHFFFAOYSA-N.pdb
REMARK                            x       y       z     vdW  Elec       q    Type
REMARK                         _______ _______ _______ _____ _____    ______ ____
ROOT
ATOM      1  C   LIG    1       -3.226  -0.353  -0.027  0.00  0.00    +0.122 C 
ATOM      2  C   LIG    1       -2.422   0.681   0.782  0.00  0.00    +0.047 C 
ATOM      3  C   LIG    1       -1.360   1.149  -0.169  0.00  0.00    +0.087 C 
ATOM      4  N   LIG    1       -0.514   0.070  -0.565  0.00  0.00    -0.302 NA
ATOM      5  C   LIG    1       -1.097  -1.155  -0.888  0.00  0.00    +0.087 C 
ATOM      6  C   LIG    1       -2.333  -1.561  -0.106  0.00  0.00    +0.047 C 
ENDROOT
BRANCH   1   7
ATOM      7  O   LIG    1       -4.462  -0.540   0.522  0.00  0.00    -0.364 OA
BRANCH   7   8
ATOM      8  C   LIG    1       -5.406  -0.125  -0.443  0.00  0.00    +0.179 C 
BRANCH   8   9
ATOM      9  C   LIG    1       -5.921   1.177   0.131  0.00  0.00    -0.014 A 
ATOM     10  C   LIG    1       -6.287   1.232   1.454  0.00  0.00    +0.006 A 
ATOM     11  C   LIG    1       -6.753   2.412   2.023  0.00  0.00    +0.000 A 
ATOM     12  C   LIG    1       -6.856   3.550   1.266  0.00  0.00    +0.000 A 
ATOM     13  C   LIG    1       -6.492   3.516  -0.072  0.00  0.00    +0.000 A 
ATOM     14  C   LIG    1       -6.027   2.318  -0.620  0.00  0.00    +0.006 A 
ENDBRANCH   8   9
BRANCH   8  15
ATOM     15  C   LIG    1       -6.483  -1.093  -0.624  0.00  0.00    -0.014 A 
ATOM     16  C   LIG    1       -6.459  -2.320   0.014  0.00  0.00    +0.006 A 
ATOM     17  C   LIG    1       -7.485  -3.216  -0.172  0.00  0.00    +0.000 A 
ATOM     18  C   LIG    1       -8.563  -2.939  -0.985  0.00  0.00    +0.000 A 
ATOM     19  C   LIG    1       -8.548  -1.704  -1.603  0.00  0.00    +0.000 A 
ATOM     20  C   LIG    1       -7.530  -0.786  -1.433  0.00  0.00    +0.006 A 
ENDBRANCH   8  15
ENDBRANCH   7   8
ENDBRANCH   1   7
BRANCH   4  21
ATOM     21  C   LIG    1        0.813   0.138  -0.097  0.00  0.00    +0.085 C 
BRANCH  21  22
ATOM     22  C   LIG    1        1.046  -0.082   1.367  0.00  0.00    +0.023 C 
BRANCH  22  23
ATOM     23  C   LIG    1        2.535   0.114   1.677  0.00  0.00    +0.081 C 
BRANCH  23  24
ATOM     24  C   LIG    1        3.286  -0.893   0.896  0.00  0.00    +0.163 C 
ATOM     25  O   LIG    1        2.745  -1.946   0.460  0.00  0.00    -0.292 OA
BRANCH  24  26
ATOM     26  C   LIG    1        4.690  -0.645   0.620  0.00  0.00    +0.017 A 
ATOM     27  C   LIG    1        5.304   0.458   1.142  0.00  0.00    +0.011 A 
ATOM     28  C   LIG    1        6.633   0.763   0.836  0.00  0.00    +0.005 A 
ATOM     29  C   LIG    1        7.294  -0.085  -0.004  0.00  0.00    -0.042 A 
ATOM     30  C   LIG    1        6.690  -1.215  -0.543  0.00  0.00    +0.005 A 
ATOM     31  C   LIG    1        5.381  -1.488  -0.223  0.00  0.00    +0.011 A 
BRANCH  29  32
ATOM     32  C   LIG    1        8.695   0.234  -0.382  0.00  0.00    -0.013 C 
ATOM     33  C   LIG    1        9.268   1.183   0.617  0.00  0.00    +0.015 C 
ATOM     34  C   LIG    1        9.519  -1.021  -0.483  0.00  0.00    +0.015 C 
ATOM     35  C   LIG    1        8.618   0.867  -1.766  0.00  0.00    +0.015 C 
ENDBRANCH  29  32
ENDBRANCH  24  26
ENDBRANCH  23  24
ENDBRANCH  22  23
ENDBRANCH  21  22
ENDBRANCH   4  21
TORSDOF 10
