REMARK  Name = molecules/MJUVRTYWUMPBTR-MRXNPFEDSA-N.pdb
REMARK                            x       y       z     vdW  Elec       q    Type
REMARK                         _______ _______ _______ _____ _____    ______ ____
ROOT
ATOM      1  C   LIG    1        0.949  -1.240  -0.145  0.00  0.00    +0.070 A 
ATOM      2  C   LIG    1        0.390  -0.263   0.666  0.00  0.00    +0.036 A 
ATOM      3  C   LIG    1       -0.955   0.021   0.576  0.00  0.00    +0.002 A 
ATOM      4  C   LIG    1       -1.708   0.941   1.219  0.00  0.00    +0.032 A 
ATOM      5  C   LIG    1       -3.030   0.855   0.748  0.00  0.00    +0.028 A 
ATOM      6  N   LIG    1       -3.065  -0.122  -0.182  0.00  0.00    -0.341 N 
ATOM      7  C   LIG    1       -1.793  -0.630  -0.294  0.00  0.00    +0.052 A 
ATOM      8  C   LIG    1       -1.246  -1.611  -1.115  0.00  0.00    +0.066 A 
ATOM      9  C   LIG    1        0.127  -1.891  -1.015  0.00  0.00    +0.146 A 
ATOM     10  F   LIG    1        0.679  -2.865  -1.810  0.00  0.00    -0.203 F 
ENDROOT
BRANCH   1  13
ATOM     11  C   LIG    1        2.952  -1.433   1.168  0.00  0.00    +0.228 C 
ATOM     12  O   LIG    1        2.253  -1.337   2.227  0.00  0.00    -0.274 OA
ATOM     13  N   LIG    1        2.353  -1.428  -0.099  0.00  0.00    -0.282 N 
ATOM     14  H   LIG    1        2.883  -1.563  -0.991  0.00  0.00    +0.155 HD
BRANCH  11  15
ATOM     15  C   LIG    1        4.438  -1.556   1.423  0.00  0.00    +0.072 C 
ATOM     16  C   LIG    1        4.820  -1.689   2.861  0.00  0.00    +0.022 C 
ATOM     17  C   LIG    1        4.808  -2.905   1.954  0.00  0.00    +0.022 C 
BRANCH  15  19
ATOM     18  C   LIG    1        5.104   0.340  -0.010  0.00  0.00    +0.054 A 
ATOM     19  C   LIG    1        5.323  -0.994   0.374  0.00  0.00    -0.029 A 
ATOM     20  C   LIG    1        6.336  -1.681  -0.218  0.00  0.00    +0.008 A 
ATOM     21  C   LIG    1        7.164  -1.071  -1.208  0.00  0.00    +0.050 A 
ATOM     22  C   LIG    1        6.923   0.220  -1.553  0.00  0.00    +0.173 A 
ATOM     23  O   LIG    1        7.544   1.101  -2.476  0.00  0.00    -0.395 OA
ATOM     24  C   LIG    1        7.359   2.402  -1.859  0.00  0.00    +0.589 C 
ATOM     25  F   LIG    1        8.008   2.423  -0.633  0.00  0.00    -0.125 F 
ATOM     26  O   LIG    1        5.944   2.223  -1.556  0.00  0.00    -0.395 OA
ATOM     27  F   LIG    1        7.640   3.399  -2.683  0.00  0.00    -0.125 F 
ATOM     28  C   LIG    1        5.881   0.939  -0.950  0.00  0.00    +0.173 A 
ENDBRANCH  15  19
ENDBRANCH  11  15
ENDBRANCH   1  13
BRANCH   5  29
ATOM     29  C   LIG    1       -4.115   1.706   1.221  0.00  0.00    +0.028 C 
ATOM     30  C   LIG    1       -5.005   1.000   2.232  0.00  0.00    +0.019 C 
ATOM     31  C   LIG    1       -4.954   2.386   0.184  0.00  0.00    +0.019 C 
BRANCH  29  32
ATOM     32  C   LIG    1       -3.463   2.870   2.011  0.00  0.00    +0.168 C 
BRANCH  32  33
ATOM     33  O   LIG    1       -4.434   3.742   2.484  0.00  0.00    -0.394 OA
ATOM     34  H   LIG    1       -4.279   4.674   2.126  0.00  0.00    +0.209 HD
ENDBRANCH  32  33
ENDBRANCH  29  32
ENDBRANCH   5  29
BRANCH   6  35
ATOM     35  C   LIG    1       -4.169  -0.624  -0.888  0.00  0.00    +0.155 C 
BRANCH  35  36
ATOM     36  C   LIG    1       -4.571  -0.104  -2.211  0.00  0.00    +0.159 C 
BRANCH  36  37
ATOM     37  O   LIG    1       -3.683  -0.314  -3.257  0.00  0.00    -0.388 OA
ATOM     38  H   LIG    1       -3.509  -1.281  -3.392  0.00  0.00    +0.210 HD
ENDBRANCH  36  37
BRANCH  36  39
ATOM     39  C   LIG    1       -5.837  -0.945  -2.582  0.00  0.00    +0.188 C 
BRANCH  39  40
ATOM     40  O   LIG    1       -6.412  -0.526  -3.744  0.00  0.00    -0.392 OA
ATOM     41  H   LIG    1       -6.907  -1.248  -4.208  0.00  0.00    +0.210 HD
ENDBRANCH  39  40
ENDBRANCH  36  39
ENDBRANCH  35  36
ENDBRANCH   6  35
TORSDOF 11
