REMARK  Name = molecules/MJVAVZPDRWSRRC-UHFFFAOYSA-N.pdb
REMARK                            x       y       z     vdW  Elec       q    Type
REMARK                         _______ _______ _______ _____ _____    ______ ____
ROOT
ATOM      1  O   LIG    1       -0.967  -2.201  -0.595  0.00  0.00    -0.287 OA
ATOM      2  C   LIG    1       -0.764  -1.010  -0.254  0.00  0.00    +0.190 C 
ATOM      3  C   LIG    1       -1.915  -0.173   0.025  0.00  0.00    +0.000 C 
ATOM      4  C   LIG    1       -1.731   1.073   0.382  0.00  0.00    +0.058 C 
ATOM      5  C   LIG    1       -0.396   1.647   0.509  0.00  0.00    +0.187 C 
ATOM      6  O   LIG    1       -0.229   2.853   0.856  0.00  0.00    -0.287 OA
ATOM      7  C   LIG    1        0.782   0.837   0.238  0.00  0.00    +0.032 A 
ATOM      8  C   LIG    1        2.074   1.341   0.346  0.00  0.00    +0.012 A 
ATOM      9  C   LIG    1        3.140   0.509   0.071  0.00  0.00    +0.001 A 
ATOM     10  C   LIG    1        2.972  -0.810  -0.308  0.00  0.00    +0.001 A 
ATOM     11  C   LIG    1        1.659  -1.274  -0.403  0.00  0.00    +0.012 A 
ATOM     12  C   LIG    1       -3.301  -0.751  -0.102  0.00  0.00    +0.048 C 
ATOM     13  C   LIG    1        0.585  -0.474  -0.138  0.00  0.00    +0.033 A 
ENDROOT
TORSDOF 0
