REMARK  Name = molecules/MJVGBKJNTFCUJM-UHFFFAOYSA-N.pdb
REMARK                            x       y       z     vdW  Elec       q    Type
REMARK                         _______ _______ _______ _____ _____    ______ ____
ROOT
ATOM      1  C   LIG    1       -0.867   0.907  -0.611  0.00  0.00    +0.064 A 
ATOM      2  C   LIG    1       -1.214  -0.038   0.314  0.00  0.00    +0.019 A 
ATOM      3  C   LIG    1       -2.531  -0.354   0.620  0.00  0.00    +0.046 A 
ATOM      4  C   LIG    1       -3.559   0.310  -0.029  0.00  0.00    +0.124 A 
ATOM      5  C   LIG    1       -3.207   1.260  -0.956  0.00  0.00    +0.091 A 
ATOM      6  C   LIG    1       -1.905   1.571  -1.259  0.00  0.00    +0.131 A 
ENDROOT
BRANCH   1   7
ATOM      7  C   LIG    1        0.500   1.285  -0.911  0.00  0.00    +0.197 C 
ATOM      8  O   LIG    1        0.720   2.368  -1.548  0.00  0.00    -0.287 OA
BRANCH   7   9
ATOM      9  C   LIG    1        1.664   0.518  -0.537  0.00  0.00    +0.022 A 
ATOM     10  C   LIG    1        2.836   1.206  -0.219  0.00  0.00    +0.012 A 
ATOM     11  C   LIG    1        3.943   0.505   0.179  0.00  0.00    +0.004 A 
ATOM     12  C   LIG    1        3.968  -0.868   0.284  0.00  0.00    -0.050 A 
ATOM     13  C   LIG    1        5.216  -1.552   0.724  0.00  0.00    +0.044 C 
ATOM     14  C   LIG    1        2.836  -1.549  -0.023  0.00  0.00    +0.004 A 
ATOM     15  C   LIG    1        1.691  -0.852  -0.432  0.00  0.00    +0.012 A 
ENDBRANCH   7   9
ENDBRANCH   1   7
BRANCH   4  16
ATOM     16  O   LIG    1       -4.887   0.066   0.208  0.00  0.00    -0.495 OA
ATOM     17  C   LIG    1       -5.385  -0.879   1.128  0.00  0.00    +0.277 C 
ENDBRANCH   4  16
BRANCH   6  18
ATOM     18  O   LIG    1       -1.549   2.529  -2.194  0.00  0.00    -0.506 OA
ATOM     19  H   LIG    1       -2.309   3.008  -2.660  0.00  0.00    +0.292 HD
ENDBRANCH   6  18
TORSDOF 4
