REMARK  Name = molecules/MKELYWOVSPVORM-DTWKUNHWSA-N.pdb
REMARK                            x       y       z     vdW  Elec       q    Type
REMARK                         _______ _______ _______ _____ _____    ______ ____
ROOT
ATOM      1  C   LIG    1        1.353   0.404   0.020  0.00  0.00    +0.130 C 
ATOM      2  C   LIG    1        2.054  -0.563   0.916  0.00  0.00    +0.236 C 
ATOM      3  O   LIG    1        2.393  -0.250   2.092  0.00  0.00    -0.274 OA
ATOM      4  N   LIG    1        2.330  -1.854   0.399  0.00  0.00    -0.239 N 
ATOM      5  H   LIG    1        2.443  -2.668   1.068  0.00  0.00    +0.159 HD
ATOM      6  C   LIG    1        2.457  -2.069  -0.999  0.00  0.00    +0.312 C 
ATOM      7  O   LIG    1        2.702  -3.200  -1.482  0.00  0.00    -0.252 OA
ATOM      8  N   LIG    1        2.292  -0.927  -1.839  0.00  0.00    -0.239 N 
ATOM      9  H   LIG    1        2.379  -1.038  -2.892  0.00  0.00    +0.159 HD
ATOM     10  C   LIG    1        2.013   0.362  -1.284  0.00  0.00    +0.236 C 
ATOM     11  O   LIG    1        2.361   1.357  -1.969  0.00  0.00    -0.274 OA
ENDROOT
BRANCH   1  12
ATOM     12  C   LIG    1       -0.064  -0.067  -0.053  0.00  0.00    +0.004 C 
ATOM     13  C   LIG    1       -0.914  -0.253   1.153  0.00  0.00    +0.013 C 
ATOM     14  C   LIG    1       -2.287   0.348   0.983  0.00  0.00    -0.010 C 
ATOM     15  C   LIG    1       -3.271  -0.813   0.783  0.00  0.00    +0.004 C 
ATOM     16  C   LIG    1       -2.763  -1.366  -0.545  0.00  0.00    +0.004 C 
ATOM     17  C   LIG    1       -2.133  -0.208  -1.280  0.00  0.00    -0.007 C 
ATOM     18  C   LIG    1       -2.427   1.014  -0.394  0.00  0.00    +0.007 C 
ATOM     19  C   LIG    1       -0.628  -0.337  -1.244  0.00  0.00    +0.004 C 
ENDBRANCH   1  12
BRANCH   1  20
ATOM     20  C   LIG    1        1.315   1.781   0.634  0.00  0.00    +0.023 C 
ATOM     21  C   LIG    1        2.679   2.349   0.896  0.00  0.00    +0.005 C 
ENDBRANCH   1  20
TORSDOF 2
