REMARK  Name = molecules/MKJIEFSOBYUXJB-VFJJUKLQSA-N.pdb
REMARK                            x       y       z     vdW  Elec       q    Type
REMARK                         _______ _______ _______ _____ _____    ______ ____
ROOT
ATOM      1  C   LIG    1       -3.816   0.286  -0.445  0.00  0.00    +0.162 A 
ATOM      2  C   LIG    1       -4.122   0.440   0.890  0.00  0.00    +0.162 A 
ATOM      3  C   LIG    1       -3.221   0.076   1.885  0.00  0.00    +0.053 A 
ATOM      4  C   LIG    1       -1.991  -0.453   1.565  0.00  0.00    -0.038 A 
ATOM      5  C   LIG    1       -1.082  -0.822   2.699  0.00  0.00    +0.051 C 
ATOM      6  C   LIG    1       -0.034  -1.810   2.162  0.00  0.00    +0.089 C 
ATOM      7  N   LIG    1        0.480  -1.194   0.987  0.00  0.00    -0.294 NA
ATOM      8  C   LIG    1        1.857  -1.458   0.703  0.00  0.00    +0.096 C 
ATOM      9  C   LIG    1        2.432  -0.089   0.259  0.00  0.00    +0.070 C 
ATOM     10  C   LIG    1        1.417   0.498  -0.592  0.00  0.00    +0.139 C 
ATOM     11  O   LIG    1        1.372   1.673  -0.875  0.00  0.00    -0.297 OA
ATOM     12  C   LIG    1        0.334  -0.333  -1.190  0.00  0.00    +0.098 C 
ATOM     13  C   LIG    1       -0.370  -1.171  -0.144  0.00  0.00    +0.094 C 
ATOM     14  C   LIG    1       -1.678  -0.610   0.239  0.00  0.00    -0.023 A 
ATOM     15  C   LIG    1       -2.587  -0.242  -0.764  0.00  0.00    +0.054 A 
ENDROOT
BRANCH   1  16
ATOM     16  O   LIG    1       -4.728   0.655  -1.434  0.00  0.00    -0.491 OA
ATOM     17  C   LIG    1       -4.450   0.511  -2.804  0.00  0.00    +0.277 C 
ENDBRANCH   1  16
BRANCH   2  18
ATOM     18  O   LIG    1       -5.365   0.975   1.196  0.00  0.00    -0.491 OA
ATOM     19  C   LIG    1       -5.703   1.143   2.568  0.00  0.00    +0.277 C 
ENDBRANCH   2  18
BRANCH   9  20
ATOM     20  C   LIG    1        3.798  -0.230  -0.195  0.00  0.00    +0.015 C 
BRANCH  20  21
ATOM     21  C   LIG    1        4.606   0.885  -0.673  0.00  0.00    -0.016 C 
ATOM     22  C   LIG    1        6.047   0.430  -0.947  0.00  0.00    +0.007 C 
ATOM     23  C   LIG    1        4.178   1.669  -1.841  0.00  0.00    +0.007 C 
ENDBRANCH  20  21
ENDBRANCH   9  20
TORSDOF 4
