REMARK  Name = molecules/MKPLKVHSHYCHOC-AHTXBMBWSA-N.pdb
REMARK                            x       y       z     vdW  Elec       q    Type
REMARK                         _______ _______ _______ _____ _____    ______ ____
ROOT
ATOM      1  C   LIG    1        0.879   0.125   0.219  0.00  0.00    +0.031 C 
ATOM      2  C   LIG    1        0.713   1.637   0.332  0.00  0.00    +0.121 C 
ATOM      3  C   LIG    1        0.344   1.994  -1.110  0.00  0.00    +0.063 C 
ATOM      4  C   LIG    1       -0.289   0.773  -1.689  0.00  0.00    +0.124 C 
ATOM      5  C   LIG    1       -0.360  -0.243  -0.530  0.00  0.00    +0.046 C 
ENDROOT
BRANCH   2   6
ATOM      6  O   LIG    1        1.917   2.233   0.638  0.00  0.00    -0.391 OA
ATOM      7  H   LIG    1        2.306   1.796   1.423  0.00  0.00    +0.210 HD
ENDBRANCH   2   6
BRANCH   4   8
ATOM      8  O   LIG    1        0.268   0.261  -2.813  0.00  0.00    -0.391 OA
ATOM      9  H   LIG    1       -0.407  -0.252  -3.326  0.00  0.00    +0.210 HD
ENDBRANCH   4   8
BRANCH   5  10
ATOM     10  C   LIG    1       -1.652   0.079   0.135  0.00  0.00    -0.022 C 
ATOM     11  C   LIG    1       -2.615  -0.855   0.173  0.00  0.00    +0.003 C 
BRANCH  11  12
ATOM     12  C   LIG    1       -3.954  -0.688   0.788  0.00  0.00    +0.174 C 
BRANCH  12  13
ATOM     13  O   LIG    1       -3.969  -0.885   2.159  0.00  0.00    -0.384 OA
ATOM     14  H   LIG    1       -4.816  -0.485   2.515  0.00  0.00    +0.210 HD
ENDBRANCH  12  13
BRANCH  12  15
ATOM     15  C   LIG    1       -4.531   0.641   0.383  0.00  0.00    +0.264 C 
BRANCH  15  16
ATOM     16  O   LIG    1       -5.831   0.908   0.657  0.00  0.00    -0.489 OA
BRANCH  16  17
ATOM     17  C   LIG    1       -6.972   0.346   0.186  0.00  0.00    +0.121 A 
ATOM     18  C   LIG    1       -8.168   0.854   0.715  0.00  0.00    +0.058 A 
ATOM     19  C   LIG    1       -9.394   0.405   0.341  0.00  0.00    +0.058 A 
ATOM     20  C   LIG    1       -9.459  -0.611  -0.612  0.00  0.00    +0.012 A 
ATOM     21  C   LIG    1       -8.318  -1.134  -1.151  0.00  0.00    +0.004 A 
ATOM     22  C   LIG    1       -7.081  -0.654  -0.750  0.00  0.00    +0.045 A 
BRANCH  19  23
ATOM     23  C   LIG    1      -10.613   0.986   0.950  0.00  0.00    +0.418 C 
ATOM     24  F   LIG    1      -10.261   1.825   1.980  0.00  0.00    -0.166 F 
ATOM     25  F   LIG    1      -11.452  -0.016   1.400  0.00  0.00    -0.166 F 
ATOM     26  F   LIG    1      -11.235   1.751  -0.034  0.00  0.00    -0.166 F 
ENDBRANCH  19  23
ENDBRANCH  16  17
ENDBRANCH  15  16
ENDBRANCH  12  15
ENDBRANCH  11  12
ENDBRANCH   5  10
BRANCH   1  27
ATOM     27  C   LIG    1        2.087  -0.121  -0.726  0.00  0.00    +0.033 C 
BRANCH  27  28
ATOM     28  C   LIG    1        2.134  -1.504  -1.065  0.00  0.00    -0.031 C 
ATOM     29  C   LIG    1        3.178  -2.255  -0.950  0.00  0.00    -0.031 C 
BRANCH  29  30
ATOM     30  C   LIG    1        4.470  -1.872  -0.492  0.00  0.00    +0.027 C 
BRANCH  30  31
ATOM     31  C   LIG    1        4.935  -2.601   0.745  0.00  0.00    +0.015 C 
BRANCH  31  32
ATOM     32  C   LIG    1        6.361  -2.314   1.069  0.00  0.00    +0.121 C 
BRANCH  32  33
ATOM     33  C   LIG    1        6.739  -0.924   1.242  0.00  0.00    +0.307 C 
ATOM     34  O   LIG    1        6.605  -0.344   2.358  0.00  0.00    -0.251 OA
BRANCH  33  35
ATOM     35  O   LIG    1        7.255  -0.186   0.208  0.00  0.00    -0.462 OA
BRANCH  35  36
ATOM     36  C   LIG    1        7.651   1.131   0.353  0.00  0.00    +0.170 C 
ATOM     37  C   LIG    1        9.087   1.240  -0.113  0.00  0.00    +0.052 C 
ATOM     38  C   LIG    1        6.823   2.042  -0.572  0.00  0.00    +0.052 C 
ENDBRANCH  35  36
ENDBRANCH  33  35
ENDBRANCH  32  33
ENDBRANCH  31  32
ENDBRANCH  30  31
ENDBRANCH  29  30
ENDBRANCH  27  28
ENDBRANCH   1  27
TORSDOF 17
