REMARK  Name = molecules/MKUXAQIIEYXACX-UHFFFAOYSA-N.pdb
REMARK                            x       y       z     vdW  Elec       q    Type
REMARK                         _______ _______ _______ _____ _____    ______ ____
ROOT
ATOM      1  C   LIG    1       -3.190  -0.727   0.246  0.00  0.00    +0.195 A 
ATOM      2  N   LIG    1       -1.887  -0.715   0.579  0.00  0.00    -0.196 NA
ATOM      3  C   LIG    1       -1.092   0.269   0.143  0.00  0.00    +0.171 A 
ATOM      4  N   LIG    1        0.245   0.543   0.314  0.00  0.00    -0.291 N 
ATOM      5  C   LIG    1        0.542   1.657  -0.338  0.00  0.00    +0.203 A 
ATOM      6  N   LIG    1       -0.574   2.116  -0.930  0.00  0.00    -0.229 NA
ATOM      7  C   LIG    1       -1.605   1.267  -0.644  0.00  0.00    +0.172 A 
ATOM      8  C   LIG    1       -2.938   1.242  -0.977  0.00  0.00    +0.280 A 
ATOM      9  O   LIG    1       -3.380   2.173  -1.702  0.00  0.00    -0.265 OA
ATOM     10  N   LIG    1       -3.714   0.241  -0.525  0.00  0.00    -0.293 N 
ATOM     11  H   LIG    1       -4.743   0.225  -0.784  0.00  0.00    +0.172 HD
ENDROOT
BRANCH   1  12
ATOM     12  N   LIG    1       -4.036  -1.791   0.721  0.00  0.00    -0.329 N 
ATOM     13  H   LIG    1       -4.956  -1.549   1.152  0.00  0.00    +0.145 HD
ATOM     14  H   LIG    1       -3.720  -2.784   0.628  0.00  0.00    +0.145 HD
ENDBRANCH   1  12
BRANCH   4  15
ATOM     15  C   LIG    1        1.119  -0.298   1.099  0.00  0.00    +0.287 C 
BRANCH  15  16
ATOM     16  O   LIG    1        1.726  -1.310   0.423  0.00  0.00    -0.357 OA
BRANCH  16  17
ATOM     17  C   LIG    1        2.605  -1.011  -0.566  0.00  0.00    +0.190 C 
BRANCH  17  18
ATOM     18  C   LIG    1        3.857  -0.306  -0.166  0.00  0.00    +0.184 C 
BRANCH  18  19
ATOM     19  O   LIG    1        3.711   0.908   0.442  0.00  0.00    -0.393 OA
ATOM     20  H   LIG    1        4.157   1.664  -0.009  0.00  0.00    +0.209 HD
ENDBRANCH  18  19
ENDBRANCH  17  18
ENDBRANCH  16  17
ENDBRANCH  15  16
ENDBRANCH   4  15
TORSDOF 6
