REMARK  Name = molecules/MKXKFYHWDHIYRV-UHFFFAOYSA-N.pdb
REMARK                            x       y       z     vdW  Elec       q    Type
REMARK                         _______ _______ _______ _____ _____    ______ ____
ROOT
ATOM      1  C   LIG    1       -2.764   0.491   0.227  0.00  0.00    +0.087 A 
ATOM      2  C   LIG    1       -1.451   0.805   0.464  0.00  0.00    +0.038 A 
ATOM      3  C   LIG    1       -0.452  -0.117   0.166  0.00  0.00    +0.034 A 
ATOM      4  C   LIG    1       -0.827  -1.324  -0.362  0.00  0.00    +0.025 A 
ATOM      5  C   LIG    1       -2.140  -1.642  -0.601  0.00  0.00    +0.035 A 
ATOM      6  C   LIG    1       -3.130  -0.733  -0.308  0.00  0.00    +0.138 A 
ENDROOT
BRANCH   1   7
ATOM      7  C   LIG    1       -3.830   1.472   0.558  0.00  0.00    +0.420 C 
ATOM      8  F   LIG    1       -4.592   1.086   1.633  0.00  0.00    -0.166 F 
ATOM      9  F   LIG    1       -3.204   2.672   0.941  0.00  0.00    -0.166 F 
ATOM     10  F   LIG    1       -4.588   1.795  -0.525  0.00  0.00    -0.166 F 
ENDBRANCH   1   7
BRANCH   3  11
ATOM     11  N   LIG    1        0.879   0.266   0.433  0.00  0.00    -0.285 N 
ATOM     12  H   LIG    1        1.034   1.232   0.855  0.00  0.00    +0.155 HD
ATOM     13  C   LIG    1        2.024  -0.509   0.194  0.00  0.00    +0.220 C 
ATOM     14  O   LIG    1        2.041  -1.665  -0.295  0.00  0.00    -0.275 OA
BRANCH  13  15
ATOM     15  C   LIG    1        3.348   0.141   0.575  0.00  0.00    +0.069 C 
ATOM     16  C   LIG    1        4.465  -0.833   0.339  0.00  0.00    +0.017 C 
ATOM     17  C   LIG    1        3.454   1.397  -0.242  0.00  0.00    +0.017 C 
ENDBRANCH  13  15
ENDBRANCH   3  11
BRANCH   6  18
ATOM     18  N   LIG    1       -4.451  -1.129  -0.594  0.00  0.00    +0.057 N 
ATOM     19  O   LIG    1       -5.394  -0.745   0.085  0.00  0.00    -0.126 OA
ATOM     20  O   LIG    1       -4.690  -1.960  -1.646  0.00  0.00    -0.126 OA
ENDBRANCH   6  18
TORSDOF 4
