REMARK  Name = molecules/MKXZASYAUGDDCJ-NJAFHUGGSA-N.pdb
REMARK                            x       y       z     vdW  Elec       q    Type
REMARK                         _______ _______ _______ _____ _____    ______ ____
ROOT
ATOM      1  C   LIG    1        3.093  -0.103  -0.008  0.00  0.00    +0.120 A 
ATOM      2  C   LIG    1        1.889  -0.610   0.449  0.00  0.00    +0.050 A 
ATOM      3  C   LIG    1        0.696  -0.094  -0.009  0.00  0.00    -0.034 A 
ATOM      4  C   LIG    1       -0.566  -0.646   0.493  0.00  0.00    +0.002 C 
ATOM      5  C   LIG    1       -0.889   0.050   1.824  0.00  0.00    +0.027 C 
ATOM      6  C   LIG    1       -1.260   1.489   1.615  0.00  0.00    +0.085 C 
ATOM      7  N   LIG    1       -1.931   1.809   0.447  0.00  0.00    -0.302 NA
ATOM      8  C   LIG    1       -2.895   2.837   0.448  0.00  0.00    +0.105 C 
ATOM      9  C   LIG    1       -1.746   1.073  -0.727  0.00  0.00    +0.065 C 
ATOM     10  C   LIG    1       -0.511   1.503  -1.433  0.00  0.00    +0.054 C 
ATOM     11  C   LIG    1       -0.357  -2.116   0.780  0.00  0.00    +0.012 C 
ATOM     12  C   LIG    1       -1.557  -2.890   0.260  0.00  0.00    +0.001 C 
ATOM     13  C   LIG    1       -1.532  -2.695  -1.262  0.00  0.00    +0.000 C 
ATOM     14  C   LIG    1       -1.843  -1.273  -1.582  0.00  0.00    +0.006 C 
ATOM     15  C   LIG    1       -1.761  -0.400  -0.384  0.00  0.00    +0.017 C 
ATOM     16  C   LIG    1        0.735   0.917  -0.912  0.00  0.00    -0.042 A 
ATOM     17  C   LIG    1        1.954   1.440  -1.383  0.00  0.00    +0.007 A 
ATOM     18  C   LIG    1        3.135   0.920  -0.923  0.00  0.00    +0.046 A 
ENDROOT
BRANCH   1  19
ATOM     19  O   LIG    1        4.284  -0.629   0.458  0.00  0.00    -0.495 OA
ATOM     20  C   LIG    1        5.529  -0.162   0.036  0.00  0.00    +0.277 C 
ENDBRANCH   1  19
TORSDOF 1
