REMARK  Name = molecules/MLBVMOWEQCZNCC-OEMFJLHTSA-N.pdb
REMARK                            x       y       z     vdW  Elec       q    Type
REMARK                         _______ _______ _______ _____ _____    ______ ____
ROOT
ATOM      1  C   LIG    1       -0.312   1.743   0.020  0.00  0.00    +0.166 C 
ENDROOT
BRANCH   1   2
ATOM      2  C   LIG    1       -1.645   1.412  -0.553  0.00  0.00    +0.111 C 
BRANCH   2   3
ATOM      3  N   LIG    1       -2.214   0.338   0.281  0.00  0.00    -0.275 N 
ATOM      4  H   LIG    1       -2.451   0.576   1.255  0.00  0.00    +0.152 HD
ATOM      5  C   LIG    1       -2.443  -0.975  -0.185  0.00  0.00    +0.401 C 
ATOM      6  O   LIG    1       -2.166  -1.320  -1.384  0.00  0.00    -0.226 OA
BRANCH   5   7
ATOM      7  O   LIG    1       -2.978  -1.977   0.608  0.00  0.00    -0.445 OA
BRANCH   7   8
ATOM      8  C   LIG    1       -3.194  -3.281   0.108  0.00  0.00    +0.206 C 
ATOM      9  C   LIG    1       -2.475  -4.292   1.005  0.00  0.00    +0.075 C 
ATOM     10  C   LIG    1       -3.592  -4.942   1.805  0.00  0.00    +0.163 C 
ATOM     11  O   LIG    1       -4.721  -4.144   1.631  0.00  0.00    -0.376 OA
ATOM     12  C   LIG    1       -4.637  -3.704   0.292  0.00  0.00    +0.204 C 
ENDBRANCH   7   8
ENDBRANCH   5   7
ENDBRANCH   2   3
BRANCH   2  13
ATOM     13  C   LIG    1       -2.685   2.439  -0.664  0.00  0.00    +0.060 C 
BRANCH  13  14
ATOM     14  C   LIG    1       -2.459   3.623  -1.478  0.00  0.00    -0.046 A 
ATOM     15  C   LIG    1       -2.097   4.836  -0.951  0.00  0.00    +0.004 A 
ATOM     16  C   LIG    1       -1.931   5.972  -1.750  0.00  0.00    +0.000 A 
ATOM     17  C   LIG    1       -2.140   5.863  -3.112  0.00  0.00    +0.000 A 
ATOM     18  C   LIG    1       -2.505   4.648  -3.660  0.00  0.00    +0.000 A 
ATOM     19  C   LIG    1       -2.663   3.541  -2.856  0.00  0.00    +0.004 A 
ENDBRANCH  13  14
ENDBRANCH   2  13
ENDBRANCH   1   2
BRANCH   1  20
ATOM     20  O   LIG    1        0.425   2.712  -0.579  0.00  0.00    -0.280 OA
BRANCH  20  21
ATOM     21  P   LIG    1        1.008   3.908   0.428  0.00  0.00    +0.473 P 
ATOM     22  O   LIG    1        0.079   3.949   1.651  0.00  0.00    -0.228 OA
BRANCH  21  23
ATOM     23  O   LIG    1        1.015   5.432  -0.235  0.00  0.00    -0.303 OA
ATOM     24  H   LIG    1        1.266   5.438  -1.194  0.00  0.00    +0.222 HD
ENDBRANCH  21  23
BRANCH  21  25
ATOM     25  O   LIG    1        2.507   3.451   1.041  0.00  0.00    -0.303 OA
ATOM     26  H   LIG    1        2.833   4.053   1.748  0.00  0.00    +0.222 HD
ENDBRANCH  21  25
ENDBRANCH  20  21
ENDBRANCH   1  20
BRANCH   1  27
ATOM     27  C   LIG    1        0.464   0.419   0.151  0.00  0.00    +0.143 C 
BRANCH  27  28
ATOM     28  N   LIG    1        1.688   0.516   0.850  0.00  0.00    -0.174 NA
BRANCH  28  29
ATOM     29  S   LIG    1        3.061   0.414  -0.231  0.00  0.00    +0.061 S 
ATOM     30  O   LIG    1        4.289   0.675   0.593  0.00  0.00    -0.153 OA
ATOM     31  O   LIG    1        3.007   1.549  -1.246  0.00  0.00    -0.153 OA
BRANCH  29  32
ATOM     32  C   LIG    1        3.128  -1.117  -1.059  0.00  0.00    +0.106 A 
ATOM     33  C   LIG    1        3.833  -2.161  -0.506  0.00  0.00    +0.030 A 
ATOM     34  C   LIG    1        3.891  -3.364  -1.148  0.00  0.00    +0.024 A 
ATOM     35  C   LIG    1        3.259  -3.574  -2.350  0.00  0.00    +0.025 A 
ATOM     36  C   LIG    1        2.554  -2.548  -2.915  0.00  0.00    +0.024 A 
ATOM     37  C   LIG    1        2.498  -1.317  -2.252  0.00  0.00    +0.030 A 
BRANCH  35  38
ATOM     38  N   LIG    1        3.352  -4.868  -2.987  0.00  0.00    -0.358 N 
ATOM     39  H   LIG    1        2.982  -5.685  -2.464  0.00  0.00    +0.142 HD
ATOM     40  H   LIG    1        3.784  -4.882  -3.922  0.00  0.00    +0.142 HD
ENDBRANCH  35  38
ENDBRANCH  29  32
ENDBRANCH  28  29
BRANCH  28  41
ATOM     41  C   LIG    1        1.795  -0.629   1.740  0.00  0.00    +0.112 C 
BRANCH  41  42
ATOM     42  C   LIG    1        2.606  -0.309   2.974  0.00  0.00    -0.001 C 
ATOM     43  C   LIG    1        2.669  -1.548   3.848  0.00  0.00    +0.008 C 
ATOM     44  C   LIG    1        1.942   0.819   3.731  0.00  0.00    +0.008 C 
ENDBRANCH  41  42
ENDBRANCH  28  41
ENDBRANCH  27  28
ENDBRANCH   1  27
TORSDOF 17
