REMARK  Name = molecules/MLCGWPUVZKTVLO-UHFFFAOYSA-N.pdb
REMARK                            x       y       z     vdW  Elec       q    Type
REMARK                         _______ _______ _______ _____ _____    ______ ____
ROOT
ATOM      1  O   LIG    1       -0.997   0.992   1.998  0.00  0.00    -0.286 OA
ATOM      2  C   LIG    1       -1.116   0.452   0.859  0.00  0.00    +0.202 A 
ATOM      3  C   LIG    1       -2.396   0.217   0.392  0.00  0.00    +0.084 A 
ATOM      4  C   LIG    1       -3.525   0.547   1.116  0.00  0.00    +0.018 A 
ATOM      5  C   LIG    1       -4.799   0.297   0.618  0.00  0.00    +0.021 A 
ATOM      6  C   LIG    1       -4.851  -0.293  -0.629  0.00  0.00    +0.114 A 
ATOM      7  N   LIG    1       -3.738  -0.606  -1.317  0.00  0.00    -0.220 NA
ATOM      8  C   LIG    1       -2.493  -0.373  -0.854  0.00  0.00    +0.231 A 
ATOM      9  O   LIG    1       -1.419  -0.695  -1.558  0.00  0.00    -0.435 OA
ATOM     10  C   LIG    1       -0.197  -0.480  -1.133  0.00  0.00    +0.159 A 
ATOM     11  C   LIG    1        0.908  -0.839  -1.916  0.00  0.00    +0.085 A 
ATOM     12  C   LIG    1        2.190  -0.611  -1.464  0.00  0.00    +0.035 A 
ATOM     13  C   LIG    1        2.357  -0.023  -0.225  0.00  0.00    +0.023 A 
ATOM     14  C   LIG    1        1.269   0.334   0.555  0.00  0.00    +0.027 A 
ATOM     15 CL   LIG    1        0.660  -1.588  -3.496  0.00  0.00    -0.080 Cl
ATOM     16  C   LIG    1       -0.014   0.106   0.102  0.00  0.00    +0.067 A 
ENDROOT
BRANCH  13  17
ATOM     17  C   LIG    1        3.690   0.223   0.264  0.00  0.00    +0.179 A 
ATOM     18  N   LIG    1        4.030   0.775   1.425  0.00  0.00    -0.108 NA
ATOM     19  N   LIG    1        5.339   0.836   1.523  0.00  0.00    -0.023 NA
ATOM     20  N   LIG    1        5.840   0.323   0.426  0.00  0.00    -0.046 NA
ATOM     21  N   LIG    1        4.848  -0.056  -0.353  0.00  0.00    -0.239 N 
ATOM     22  H   LIG    1        4.927  -0.502  -1.298  0.00  0.00    +0.192 HD
ENDBRANCH  13  17
TORSDOF 1
