REMARK  Name = molecules/MLHBDHJHNDJBLI-MRXNPFEDSA-N.pdb
REMARK                            x       y       z     vdW  Elec       q    Type
REMARK                         _______ _______ _______ _____ _____    ______ ____
ROOT
ATOM      1  O   LIG    1        1.041   0.460   0.881  0.00  0.00    -0.460 OA
ENDROOT
BRANCH   1   2
ATOM      2  C   LIG    1        1.965   0.648  -0.127  0.00  0.00    +0.339 C 
ATOM      3  O   LIG    1        1.613   1.426  -1.027  0.00  0.00    -0.245 OA
BRANCH   2   4
ATOM      4  C   LIG    1        3.262   0.025  -0.198  0.00  0.00    +0.059 A 
ATOM      5  C   LIG    1        3.732  -0.830   0.760  0.00  0.00    +0.017 A 
ATOM      6  C   LIG    1        4.976  -1.400   0.663  0.00  0.00    +0.023 A 
ATOM      7  C   LIG    1        5.829  -1.141  -0.414  0.00  0.00    +0.025 A 
ATOM      8  C   LIG    1        5.361  -0.279  -1.386  0.00  0.00    +0.023 A 
ATOM      9  C   LIG    1        4.110   0.283  -1.270  0.00  0.00    +0.017 A 
BRANCH   7  10
ATOM     10  N   LIG    1        7.117  -1.732  -0.505  0.00  0.00    -0.358 N 
ATOM     11  H   LIG    1        7.698  -1.978   0.320  0.00  0.00    +0.142 HD
ATOM     12  H   LIG    1        7.494  -1.928  -1.450  0.00  0.00    +0.142 HD
ENDBRANCH   7  10
ENDBRANCH   2   4
ENDBRANCH   1   2
BRANCH   1  13
ATOM     13  C   LIG    1       -0.200   1.002   1.029  0.00  0.00    +0.251 C 
BRANCH  13  14
ATOM     14  C   LIG    1       -1.250   0.664  -0.024  0.00  0.00    +0.094 C 
BRANCH  14  15
ATOM     15  N   LIG    1       -2.462   1.305   0.152  0.00  0.00    -0.297 NA
BRANCH  15  16
ATOM     16  C   LIG    1       -3.239   1.299   1.289  0.00  0.00    +0.081 C 
ATOM     17  C   LIG    1       -3.923   0.058   1.760  0.00  0.00    +0.020 C 
ENDBRANCH  15  16
BRANCH  15  18
ATOM     18  C   LIG    1       -2.878   2.291  -0.820  0.00  0.00    +0.081 C 
ATOM     19  C   LIG    1       -2.093   3.553  -0.832  0.00  0.00    +0.020 C 
ENDBRANCH  15  18
ENDBRANCH  14  15
BRANCH  14  20
ATOM     20  C   LIG    1       -1.014  -0.567  -0.750  0.00  0.00    +0.025 C 
BRANCH  20  21
ATOM     21  C   LIG    1       -1.641  -1.867  -0.492  0.00  0.00    -0.016 C 
ATOM     22  C   LIG    1       -1.157  -2.506   0.827  0.00  0.00    +0.007 C 
ATOM     23  C   LIG    1       -3.111  -1.995  -0.650  0.00  0.00    +0.007 C 
ENDBRANCH  20  21
ENDBRANCH  14  20
ENDBRANCH  13  14
ENDBRANCH   1  13
TORSDOF 10
