REMARK  Name = molecules/MLKXDPUZXIRXEP-WXKFDZDZSA-N.pdb
REMARK                            x       y       z     vdW  Elec       q    Type
REMARK                         _______ _______ _______ _____ _____    ______ ____
ROOT
ATOM      1  C   LIG    1       -2.427  -0.505  -1.078  0.00  0.00    -0.011 A 
ATOM      2  C   LIG    1       -3.192  -0.424   0.165  0.00  0.00    -0.025 C 
ATOM      3  C   LIG    1       -2.363  -0.383   1.194  0.00  0.00    -0.038 C 
ATOM      4  C   LIG    1       -2.769  -0.310   2.612  0.00  0.00    +0.044 C 
ATOM      5  C   LIG    1       -0.984  -0.433   0.672  0.00  0.00    -0.014 C 
ATOM      6  C   LIG    1        0.120  -0.309   1.387  0.00  0.00    +0.016 C 
ATOM      7  C   LIG    1       -1.055  -0.514  -0.770  0.00  0.00    -0.010 A 
ATOM      8  C   LIG    1       -0.110  -0.613  -1.743  0.00  0.00    +0.012 A 
ATOM      9  C   LIG    1       -0.527  -0.703  -3.072  0.00  0.00    +0.039 A 
ATOM     10  C   LIG    1       -1.854  -0.696  -3.415  0.00  0.00    +0.124 A 
ATOM     11  F   LIG    1       -2.226  -0.783  -4.709  0.00  0.00    -0.205 F 
ATOM     12  C   LIG    1       -2.798  -0.596  -2.401  0.00  0.00    +0.047 A 
ENDROOT
BRANCH   6  13
ATOM     13  C   LIG    1        1.465  -0.216   0.885  0.00  0.00    -0.024 A 
ATOM     14  C   LIG    1        2.417  -1.155   1.141  0.00  0.00    +0.009 A 
ATOM     15  C   LIG    1        3.749  -0.997   0.738  0.00  0.00    +0.017 A 
ATOM     16  C   LIG    1        4.124   0.142   0.056  0.00  0.00    +0.026 A 
ATOM     17  C   LIG    1        3.164   1.109  -0.213  0.00  0.00    +0.017 A 
ATOM     18  C   LIG    1        1.856   0.919   0.203  0.00  0.00    +0.009 A 
BRANCH  16  19
ATOM     19  S   LIG    1        5.796   0.287  -0.430  0.00  0.00    -0.015 S 
ATOM     20  C   LIG    1        6.821   1.181   0.706  0.00  0.00    +0.112 C 
ATOM     21  O   LIG    1        5.881   0.748  -1.862  0.00  0.00    -0.157 OA
ENDBRANCH  16  19
ENDBRANCH   6  13
BRANCH   2  22
ATOM     22  C   LIG    1       -4.659  -0.398   0.317  0.00  0.00    +0.156 C 
BRANCH  22  23
ATOM     23  C   LIG    1       -5.338   0.766  -0.220  0.00  0.00    +0.309 C 
ATOM     24  O   LIG    1       -5.701   0.832  -1.408  0.00  0.00    -0.251 OA
BRANCH  23  25
ATOM     25  O   LIG    1       -5.607   1.869   0.604  0.00  0.00    -0.480 OA
ATOM     26  H   LIG    1       -4.933   2.205   1.272  0.00  0.00    +0.295 HD
ENDBRANCH  23  25
ENDBRANCH  22  23
ENDBRANCH   2  22
TORSDOF 5
