REMARK  Name = molecules/MLYYVTUWGNIJIB-BXKDBHETSA-N.pdb
REMARK                            x       y       z     vdW  Elec       q    Type
REMARK                         _______ _______ _______ _____ _____    ______ ____
ROOT
ATOM      1  CA  LIG    1        0.909  -0.178  -0.027  0.00  0.00    +0.123 C 
ATOM      2  C   LIG    1        1.204  -1.022   0.914  0.00  0.00    -0.021 C 
ATOM      3  C   LIG    1        0.619  -0.907   2.290  0.00  0.00    +0.104 C 
ATOM      4  S   LIG    1       -1.135  -0.429   2.063  0.00  0.00    -0.131 S 
ATOM      5  C   LIG    1       -0.864   1.167   1.268  0.00  0.00    +0.169 C 
ATOM      6  CA  LIG    1       -1.875   1.612   0.247  0.00  0.00    +0.191 C 
ATOM      7  C   LIG    1       -0.581   2.074  -0.406  0.00  0.00    +0.244 C 
ATOM      8  O   LIG    1       -0.261   3.054  -1.094  0.00  0.00    -0.273 OA
ATOM      9  N   LIG    1       -0.003   0.908   0.139  0.00  0.00    -0.249 N 
ENDROOT
BRANCH   6  10
ATOM     10  N   LIG    1       -2.521   0.579  -0.485  0.00  0.00    -0.300 N 
ATOM     11  C   LIG    1       -3.922   0.583  -0.650  0.00  0.00    +0.235 C 
ATOM     12  O   LIG    1       -4.638   1.495  -0.157  0.00  0.00    -0.274 OA
ATOM     13  H   LIG    1       -1.967  -0.188  -0.906  0.00  0.00    +0.150 HD
BRANCH  11  14
ATOM     14  C   LIG    1       -4.636  -0.491  -1.416  0.00  0.00    +0.242 C 
BRANCH  14  15
ATOM     15  N   LIG    1       -6.070  -0.260  -1.434  0.00  0.00    -0.223 N 
ATOM     16  C   LIG    1       -6.938  -0.720  -0.535  0.00  0.00    +0.245 A 
ATOM     17  N   LIG    1       -8.151  -0.289  -0.905  0.00  0.00    -0.117 NA
ATOM     18  N   LIG    1       -8.006   0.412  -2.000  0.00  0.00    -0.023 NA
ATOM     19  N   LIG    1       -6.742   0.431  -2.325  0.00  0.00    -0.044 NA
ENDBRANCH  14  15
ENDBRANCH  11  14
ENDBRANCH   6  10
BRANCH   1  20
ATOM     20  C   LIG    1        1.510  -0.319  -1.345  0.00  0.00    +0.351 C 
ATOM     21  O   LIG    1        1.199   0.533  -2.267  0.00  0.00    -0.244 OA
BRANCH  20  22
ATOM     22  OXT LIG    1        2.396  -1.266  -1.765  0.00  0.00    -0.476 OA
ATOM     23  HXT LIG    1        2.351  -1.709  -2.665  0.00  0.00    +0.295 HD
ENDBRANCH  20  22
ENDBRANCH   1  20
BRANCH   2  24
ATOM     24  C   LIG    1        2.120  -2.155   0.775  0.00  0.00    +0.110 C 
BRANCH  24  25
ATOM     25  S   LIG    1        3.523  -1.951   1.970  0.00  0.00    -0.093 S 
BRANCH  25  26
ATOM     26  C   LIG    1        4.486  -0.516   1.471  0.00  0.00    +0.159 A 
ATOM     27  N   LIG    1        4.345   0.754   1.834  0.00  0.00    -0.135 NA
ATOM     28  N   LIG    1        5.127   1.631   1.372  0.00  0.00    -0.146 NA
ATOM     29  C   LIG    1        6.088   1.282   0.523  0.00  0.00    +0.100 A 
ATOM     30  C   LIG    1        7.107   2.179  -0.128  0.00  0.00    +0.075 C 
ATOM     31  S   LIG    1        5.827  -0.401   0.404  0.00  0.00    -0.044 S 
ENDBRANCH  25  26
ENDBRANCH  24  25
ENDBRANCH   2  24
TORSDOF 8
