REMARK  Name = molecules/MMNICIJVQJJHHF-LJQANCHMSA-N.pdb
REMARK                            x       y       z     vdW  Elec       q    Type
REMARK                         _______ _______ _______ _____ _____    ______ ____
ROOT
ATOM      1  C   LIG    1       -2.230   0.901   1.272  0.00  0.00    +0.131 C 
ENDROOT
BRANCH   1   2
ATOM      2  C   LIG    1       -2.837  -0.467   1.158  0.00  0.00    +0.007 C 
ATOM      3  C   LIG    1       -4.282  -0.460   1.605  0.00  0.00    +0.004 C 
ATOM      4  C   LIG    1       -5.224  -0.639   0.432  0.00  0.00    +0.000 C 
ATOM      5  C   LIG    1       -4.987  -1.983  -0.201  0.00  0.00    +0.000 C 
ATOM      6  C   LIG    1       -3.545  -2.426  -0.159  0.00  0.00    +0.000 C 
ATOM      7  C   LIG    1       -2.713  -1.129  -0.174  0.00  0.00    +0.004 C 
ENDBRANCH   1   2
BRANCH   1   8
ATOM      8  C   LIG    1       -2.884   1.916   0.362  0.00  0.00    -0.026 A 
ATOM      9  C   LIG    1       -3.774   2.823   0.831  0.00  0.00    +0.012 A 
ATOM     10  C   LIG    1       -4.301   3.705  -0.076  0.00  0.00    +0.045 A 
ATOM     11  S   LIG    1       -3.550   3.248  -1.534  0.00  0.00    -0.105 S 
ATOM     12  C   LIG    1       -2.593   1.961  -0.967  0.00  0.00    +0.049 A 
ENDBRANCH   1   8
BRANCH   1  13
ATOM     13  C   LIG    1       -0.780   0.911   1.001  0.00  0.00    +0.315 C 
ATOM     14  O   LIG    1        0.004   1.219   1.937  0.00  0.00    -0.250 OA
BRANCH  13  15
ATOM     15  O   LIG    1       -0.229   0.602  -0.223  0.00  0.00    -0.463 OA
BRANCH  15  16
ATOM     16  C   LIG    1        1.152   0.608  -0.486  0.00  0.00    +0.247 C 
BRANCH  16  17
ATOM     17  C   LIG    1        1.915  -0.360   0.360  0.00  0.00    +0.125 C 
BRANCH  17  18
ATOM     18  N   LIG    1        3.337  -0.345   0.074  0.00  0.00    -0.299 NA
ATOM     19  C   LIG    1        3.971   0.872   0.469  0.00  0.00    +0.084 C 
ATOM     20  C   LIG    1        5.257   0.622   1.248  0.00  0.00    +0.015 C 
ATOM     21  C   LIG    1        5.919  -0.663   0.771  0.00  0.00    +0.001 C 
ATOM     22  C   LIG    1        6.015  -0.695  -0.729  0.00  0.00    +0.001 C 
ATOM     23  C   LIG    1        4.907  -1.518  -1.306  0.00  0.00    +0.015 C 
ATOM     24  C   LIG    1        3.593  -0.742  -1.288  0.00  0.00    +0.084 C 
ENDBRANCH  17  18
ENDBRANCH  16  17
ENDBRANCH  15  16
ENDBRANCH  13  15
ENDBRANCH   1  13
TORSDOF 7
