REMARK  Name = molecules/MMOXZBCLCQITDF-UHFFFAOYSA-N.pdb
REMARK                            x       y       z     vdW  Elec       q    Type
REMARK                         _______ _______ _______ _____ _____    ______ ____
ROOT
ATOM      1  C   LIG    1        0.298   0.459  -0.747  0.00  0.00    +0.247 C 
ATOM      2  N   LIG    1        1.556  -0.052  -0.963  0.00  0.00    -0.298 N 
ATOM      3  O   LIG    1        0.115   1.675  -1.221  0.00  0.00    -0.270 OA
ENDROOT
BRANCH   1   4
ATOM      4  C   LIG    1       -0.890  -0.065  -0.099  0.00  0.00    +0.037 A 
ATOM      5  C   LIG    1       -0.976  -1.225   0.622  0.00  0.00    +0.013 A 
ATOM      6  C   LIG    1       -2.167  -1.628   1.234  0.00  0.00    +0.001 A 
ATOM      7  C   LIG    1       -3.303  -0.856   1.126  0.00  0.00    +0.003 A 
ATOM      8  C   LIG    1       -3.264   0.320   0.411  0.00  0.00    -0.050 A 
ATOM      9  C   LIG    1       -4.503   1.163   0.294  0.00  0.00    +0.044 C 
ATOM     10  C   LIG    1       -2.083   0.686  -0.175  0.00  0.00    +0.016 A 
ENDBRANCH   1   4
BRANCH   2  11
ATOM     11  C   LIG    1        2.016  -1.359  -0.625  0.00  0.00    +0.104 C 
ATOM     12  C   LIG    1        2.593  -1.456   0.755  0.00  0.00    +0.024 C 
ENDBRANCH   2  11
BRANCH   2  13
ATOM     13  C   LIG    1        2.509   0.874  -1.662  0.00  0.00    +0.104 C 
ATOM     14  C   LIG    1        3.261   1.708  -0.677  0.00  0.00    +0.024 C 
ENDBRANCH   2  13
TORSDOF 3
