REMARK  Name = molecules/MNSQDVCVWNXBFQ-UHFFFAOYSA-N.pdb
REMARK                            x       y       z     vdW  Elec       q    Type
REMARK                         _______ _______ _______ _____ _____    ______ ____
ROOT
ATOM      1  C   LIG    1       -1.629  -0.392   0.272  0.00  0.00    +0.071 C 
ATOM      2  C   LIG    1       -1.764  -0.970   1.667  0.00  0.00    +0.018 C 
ATOM      3  C   LIG    1       -2.615  -2.207   1.702  0.00  0.00    +0.001 C 
ATOM      4  C   LIG    1       -1.925  -3.277   0.890  0.00  0.00    +0.000 C 
ATOM      5  C   LIG    1       -1.513  -2.797  -0.468  0.00  0.00    +0.001 C 
ATOM      6  C   LIG    1       -1.992  -1.408  -0.784  0.00  0.00    +0.018 C 
ENDROOT
BRANCH   1   7
ATOM      7  C   LIG    1       -2.503   0.797   0.147  0.00  0.00    +0.006 C 
ATOM      8  C   LIG    1       -3.957   0.539   0.480  0.00  0.00    +0.004 C 
ATOM      9  C   LIG    1       -4.699   1.851   0.211  0.00  0.00    +0.000 C 
ATOM     10  C   LIG    1       -3.759   3.036   0.231  0.00  0.00    +0.000 C 
ATOM     11  C   LIG    1       -2.746   2.966  -0.891  0.00  0.00    +0.000 C 
ATOM     12  C   LIG    1       -2.485   1.479  -1.194  0.00  0.00    +0.004 C 
ENDBRANCH   1   7
BRANCH   1  13
ATOM     13  C   LIG    1       -0.196   0.043   0.110  0.00  0.00    +0.314 C 
ATOM     14  O   LIG    1        0.546  -0.006   1.122  0.00  0.00    -0.250 OA
BRANCH  13  15
ATOM     15  O   LIG    1        0.339   0.479  -1.040  0.00  0.00    -0.463 OA
BRANCH  15  16
ATOM     16  C   LIG    1        1.594   0.907  -1.373  0.00  0.00    +0.247 C 
BRANCH  16  17
ATOM     17  C   LIG    1        2.738  -0.026  -1.206  0.00  0.00    +0.125 C 
BRANCH  17  18
ATOM     18  N   LIG    1        3.042  -0.469   0.109  0.00  0.00    -0.299 NA
ATOM     19  C   LIG    1        3.605   0.590   0.942  0.00  0.00    +0.084 C 
ATOM     20  C   LIG    1        4.857   1.167   0.306  0.00  0.00    +0.015 C 
ATOM     21  C   LIG    1        5.872   0.122  -0.019  0.00  0.00    +0.002 C 
ATOM     22  C   LIG    1        5.292  -1.128  -0.622  0.00  0.00    +0.015 C 
ATOM     23  C   LIG    1        4.021  -1.522   0.061  0.00  0.00    +0.084 C 
ENDBRANCH  17  18
ENDBRANCH  16  17
ENDBRANCH  15  16
ENDBRANCH  13  15
ENDBRANCH   1  13
TORSDOF 6
