REMARK  Name = molecules/MOYGZHXDRJNJEP-HHHXNRCGSA-N.pdb
REMARK                            x       y       z     vdW  Elec       q    Type
REMARK                         _______ _______ _______ _____ _____    ______ ____
ROOT
ATOM      1  N   LIG    1       -2.376  -0.102  -0.664  0.00  0.00    -0.289 NA
ATOM      2  C   LIG    1       -1.645  -0.751   0.307  0.00  0.00    +0.100 C 
ATOM      3  C   LIG    1       -0.420  -0.062   0.904  0.00  0.00    +0.100 C 
ATOM      4  N   LIG    1        0.203   0.765  -0.064  0.00  0.00    -0.296 NA
ATOM      5  C   LIG    1       -0.828   1.800  -0.384  0.00  0.00    +0.100 C 
ATOM      6  C   LIG    1       -1.862   1.128  -1.195  0.00  0.00    +0.100 C 
ENDROOT
BRANCH   1   7
ATOM      7  C   LIG    1       -3.764  -0.243  -0.828  0.00  0.00    +0.117 C 
BRANCH   7   8
ATOM      8  C   LIG    1       -4.458  -1.410  -0.364  0.00  0.00    -0.026 A 
ATOM      9  C   LIG    1       -5.693  -1.261   0.282  0.00  0.00    +0.007 A 
ATOM     10  C   LIG    1       -6.405  -2.329   0.744  0.00  0.00    +0.020 A 
ATOM     11  C   LIG    1       -5.916  -3.609   0.585  0.00  0.00    +0.041 A 
ATOM     12 CL   LIG    1       -6.834  -5.007   1.176  0.00  0.00    -0.084 Cl
ATOM     13  C   LIG    1       -4.708  -3.784  -0.047  0.00  0.00    +0.020 A 
ATOM     14  C   LIG    1       -4.001  -2.685  -0.509  0.00  0.00    +0.007 A 
ENDBRANCH   7   8
BRANCH   7  15
ATOM     15  C   LIG    1       -4.510   1.015  -0.473  0.00  0.00    -0.026 A 
ATOM     16  C   LIG    1       -4.230   1.609   0.716  0.00  0.00    +0.005 A 
ATOM     17  C   LIG    1       -4.926   2.760   1.044  0.00  0.00    +0.000 A 
ATOM     18  C   LIG    1       -5.877   3.301   0.207  0.00  0.00    +0.000 A 
ATOM     19  C   LIG    1       -6.143   2.665  -1.012  0.00  0.00    +0.000 A 
ATOM     20  C   LIG    1       -5.453   1.532  -1.330  0.00  0.00    +0.005 A 
ENDBRANCH   7  15
ENDBRANCH   1   7
BRANCH   4  21
ATOM     21  C   LIG    1        1.403   1.413   0.170  0.00  0.00    +0.119 C 
BRANCH  21  22
ATOM     22  C   LIG    1        2.719   0.762   0.133  0.00  0.00    -0.033 A 
ATOM     23  C   LIG    1        3.017  -0.527   0.430  0.00  0.00    +0.005 A 
ATOM     24  C   LIG    1        4.341  -1.004   0.407  0.00  0.00    +0.004 A 
ATOM     25  C   LIG    1        5.417  -0.221   0.086  0.00  0.00    -0.042 A 
ATOM     26  C   LIG    1        5.112   1.105  -0.226  0.00  0.00    +0.004 A 
ATOM     27  C   LIG    1        3.836   1.577  -0.205  0.00  0.00    +0.005 A 
BRANCH  25  28
ATOM     28  C   LIG    1        6.810  -0.671   0.137  0.00  0.00    -0.013 C 
ATOM     29  C   LIG    1        6.999  -1.770   1.178  0.00  0.00    +0.015 C 
ATOM     30  C   LIG    1        7.709   0.487   0.664  0.00  0.00    +0.015 C 
ATOM     31  C   LIG    1        7.442  -1.103  -1.142  0.00  0.00    +0.015 C 
ENDBRANCH  25  28
ENDBRANCH  21  22
ENDBRANCH   4  21
TORSDOF 6
