REMARK  Name = molecules/MPBVHIBUJCELCL-UHFFFAOYSA-N.pdb
REMARK                            x       y       z     vdW  Elec       q    Type
REMARK                         _______ _______ _______ _____ _____    ______ ____
ROOT
ATOM      1  C   LIG    1       -2.696  -0.159  -0.250  0.00  0.00    +0.268 C 
ENDROOT
BRANCH   1   2
ATOM      2  P   LIG    1       -2.901   1.599   0.081  0.00  0.00    +0.371 P 
ATOM      3  O   LIG    1       -2.692   2.419  -1.197  0.00  0.00    -0.255 OA
BRANCH   2   4
ATOM      4  O   LIG    1       -1.810   2.196   1.208  0.00  0.00    -0.322 OA
ATOM      5  H   LIG    1       -1.601   3.164   1.056  0.00  0.00    +0.220 HD
ENDBRANCH   2   4
BRANCH   2   6
ATOM      6  O   LIG    1       -4.508   1.936   0.561  0.00  0.00    -0.322 OA
ATOM      7  H   LIG    1       -4.498   2.849   0.949  0.00  0.00    +0.220 HD
ENDBRANCH   2   6
ENDBRANCH   1   2
BRANCH   1   8
ATOM      8  P   LIG    1       -4.377  -0.919  -0.334  0.00  0.00    +0.371 P 
ATOM      9  O   LIG    1       -4.324  -2.092  -1.306  0.00  0.00    -0.255 OA
BRANCH   8  10
ATOM     10  O   LIG    1       -4.856  -1.445   1.201  0.00  0.00    -0.322 OA
ATOM     11  H   LIG    1       -5.195  -2.369   1.104  0.00  0.00    +0.220 HD
ENDBRANCH   8  10
BRANCH   8  12
ATOM     12  O   LIG    1       -5.470   0.195  -0.922  0.00  0.00    -0.322 OA
ATOM     13  H   LIG    1       -6.078  -0.256  -1.559  0.00  0.00    +0.220 HD
ENDBRANCH   8  12
ENDBRANCH   1   8
BRANCH   1  14
ATOM     14  O   LIG    1       -2.158  -0.313  -1.522  0.00  0.00    -0.367 OA
ATOM     15  H   LIG    1       -1.685   0.521  -1.769  0.00  0.00    +0.212 HD
ENDBRANCH   1  14
BRANCH   1  16
ATOM     16  C   LIG    1       -1.974  -0.895   0.812  0.00  0.00    +0.075 C 
BRANCH  16  17
ATOM     17  C   LIG    1       -0.549  -0.581   1.027  0.00  0.00    +0.088 C 
BRANCH  17  18
ATOM     18  N   LIG    1        0.316  -0.793  -0.091  0.00  0.00    -0.305 NA
ATOM     19  C   LIG    1        0.422  -2.165  -0.508  0.00  0.00    +0.104 C 
BRANCH  18  20
ATOM     20  C   LIG    1        1.677  -0.425   0.357  0.00  0.00    +0.084 C 
BRANCH  20  21
ATOM     21  C   LIG    1        2.617  -0.391  -0.810  0.00  0.00    +0.015 C 
BRANCH  21  22
ATOM     22  C   LIG    1        4.003  -0.033  -0.374  0.00  0.00    +0.001 C 
BRANCH  22  24
ATOM     23  C   LIG    1        5.504   1.655   0.695  0.00  0.00    +0.004 C 
ATOM     24  C   LIG    1        4.081   1.320   0.283  0.00  0.00    -0.003 C 
ENDBRANCH  22  24
ENDBRANCH  21  22
ENDBRANCH  20  21
ENDBRANCH  18  20
ENDBRANCH  17  18
ENDBRANCH  16  17
ENDBRANCH   1  16
TORSDOF 14
