REMARK  Name = molecules/MPQWSYJGFLADEW-PXAZEXFGSA-N.pdb
REMARK                            x       y       z     vdW  Elec       q    Type
REMARK                         _______ _______ _______ _____ _____    ______ ____
ROOT
ATOM      1  C   LIG    1        0.785  -1.614  -0.820  0.00  0.00    +0.117 C 
ENDROOT
BRANCH   1   2
ATOM      2  N   LIG    1        0.419  -1.588   0.552  0.00  0.00    -0.311 NA
ATOM      3  H   LIG    1        0.729  -2.441   1.075  0.00  0.00    +0.122 HD
BRANCH   2   4
ATOM      4  C   LIG    1       -0.943  -1.234   0.846  0.00  0.00    +0.051 C 
ATOM      5  C   LIG    1       -1.046  -1.281   2.379  0.00  0.00    +0.024 C 
BRANCH   4   6
ATOM      6  C   LIG    1       -1.821  -2.293   0.228  0.00  0.00    +0.023 C 
BRANCH   6   7
ATOM      7  C   LIG    1       -3.292  -2.034   0.471  0.00  0.00    +0.037 C 
BRANCH   7   8
ATOM      8  C   LIG    1       -3.716  -0.721  -0.115  0.00  0.00    -0.044 A 
ATOM      9  C   LIG    1       -3.666   0.453   0.606  0.00  0.00    +0.053 A 
ATOM     10  C   LIG    1       -4.061   1.650   0.046  0.00  0.00    +0.166 A 
ATOM     11  O   LIG    1       -4.094   2.950   0.584  0.00  0.00    -0.453 OA
ATOM     12  C   LIG    1       -5.022   3.679  -0.230  0.00  0.00    +0.466 C 
ATOM     13  O   LIG    1       -4.823   3.049  -1.481  0.00  0.00    -0.453 OA
ATOM     14  C   LIG    1       -4.525   1.716  -1.267  0.00  0.00    +0.166 A 
ATOM     15  C   LIG    1       -4.576   0.543  -1.987  0.00  0.00    +0.050 A 
ATOM     16  C   LIG    1       -4.180  -0.651  -1.423  0.00  0.00    +0.007 A 
ENDBRANCH   7   8
ENDBRANCH   6   7
ENDBRANCH   4   6
ENDBRANCH   2   4
ENDBRANCH   1   2
BRANCH   1  17
ATOM     17  C   LIG    1        2.275  -1.950  -0.902  0.00  0.00    +0.158 C 
BRANCH  17  18
ATOM     18  C   LIG    1        3.034  -0.824  -0.336  0.00  0.00    -0.017 A 
ATOM     19  C   LIG    1        3.212  -0.701   1.012  0.00  0.00    +0.010 A 
ATOM     20  C   LIG    1        3.924   0.350   1.526  0.00  0.00    +0.046 A 
ATOM     21  C   LIG    1        4.473   1.309   0.646  0.00  0.00    +0.129 A 
ATOM     22  C   LIG    1        4.305   1.203  -0.711  0.00  0.00    +0.078 A 
ATOM     23  C   LIG    1        3.565   0.103  -1.180  0.00  0.00    +0.023 A 
BRANCH  22  24
ATOM     24  C   LIG    1        4.827   2.129  -1.694  0.00  0.00    +0.245 C 
ATOM     25  N   LIG    1        5.576   3.261  -1.389  0.00  0.00    -0.325 N 
ATOM     26  H   LIG    1        5.174   4.229  -1.213  0.00  0.00    +0.145 HD
ATOM     27  H   LIG    1        6.632   3.145  -1.334  0.00  0.00    +0.145 HD
ATOM     28  O   LIG    1        4.605   1.927  -2.935  0.00  0.00    -0.270 OA
ENDBRANCH  22  24
BRANCH  21  29
ATOM     29  O   LIG    1        5.171   2.331   1.224  0.00  0.00    -0.506 OA
ATOM     30  H   LIG    1        5.618   3.076   0.806  0.00  0.00    +0.292 HD
ENDBRANCH  21  29
ENDBRANCH  17  18
BRANCH  17  31
ATOM     31  O   LIG    1        2.553  -3.179  -0.316  0.00  0.00    -0.386 OA
ATOM     32  H   LIG    1        3.411  -3.514  -0.657  0.00  0.00    +0.210 HD
ENDBRANCH  17  31
ENDBRANCH   1  17
TORSDOF 10
