REMARK  Name = molecules/MQLRYUCJDNBWMV-GHXIOONMSA-N.pdb
REMARK                            x       y       z     vdW  Elec       q    Type
REMARK                         _______ _______ _______ _____ _____    ______ ____
ROOT
ATOM      1  N   LIG    1        0.427   0.315  -0.449  0.00  0.00    -0.296 N 
ATOM      2  H   LIG    1        0.248   0.950   0.326  0.00  0.00    +0.150 HD
ATOM      3  C   LIG    1        1.700  -0.033  -0.927  0.00  0.00    +0.268 C 
ATOM      4  O   LIG    1        1.749  -0.863  -1.929  0.00  0.00    -0.268 OA
ENDROOT
BRANCH   1  10
ATOM      5  CA  LIG    1       -4.008   0.117  -0.108  0.00  0.00    +0.122 C 
ATOM      6  C   LIG    1       -4.251  -0.154   1.165  0.00  0.00    -0.034 C 
ATOM      7  C   LIG    1       -3.235  -0.494   2.190  0.00  0.00    +0.103 C 
ATOM      8  S   LIG    1       -1.561  -0.651   1.549  0.00  0.00    -0.131 S 
ATOM      9  C   LIG    1       -1.732  -0.909  -0.220  0.00  0.00    +0.169 C 
ATOM     10  CA  LIG    1       -0.736  -0.272  -1.102  0.00  0.00    +0.191 C 
ATOM     11  C   LIG    1       -1.758   0.665  -1.542  0.00  0.00    +0.244 C 
ATOM     12  O   LIG    1       -1.769   1.602  -2.382  0.00  0.00    -0.273 OA
ATOM     13  C   LIG    1       -5.670  -0.112   1.659  0.00  0.00    +0.042 C 
ATOM     14  N   LIG    1       -2.687   0.090  -0.655  0.00  0.00    -0.249 N 
BRANCH   5  15
ATOM     15  C   LIG    1       -5.062   0.458  -1.054  0.00  0.00    +0.351 C 
ATOM     16  OXT LIG    1       -6.243   0.496  -0.664  0.00  0.00    -0.244 OA
BRANCH  15  17
ATOM     17  O   LIG    1       -4.837   0.749  -2.384  0.00  0.00    -0.476 OA
ATOM     18  H   LIG    1       -4.550   1.684  -2.670  0.00  0.00    +0.295 HD
ENDBRANCH  15  17
ENDBRANCH   5  15
ENDBRANCH   1  10
BRANCH   3  19
ATOM     19  C   LIG    1        2.980   0.408  -0.454  0.00  0.00    +0.190 C 
ATOM     20  N   LIG    1        3.042   1.218   0.520  0.00  0.00    -0.078 NA
BRANCH  19  21
ATOM     21  C   LIG    1        4.258  -0.075  -1.095  0.00  0.00    +0.107 A 
ATOM     22  N   LIG    1        5.413   0.363  -0.620  0.00  0.00    -0.223 NA
ATOM     23  C   LIG    1        6.540  -0.028  -1.143  0.00  0.00    +0.156 A 
ATOM     24  S   LIG    1        6.041  -1.076  -2.384  0.00  0.00    -0.060 S 
ATOM     25  C   LIG    1        4.328  -0.940  -2.141  0.00  0.00    +0.078 A 
BRANCH  23  26
ATOM     26  N   LIG    1        7.888   0.347  -0.753  0.00  0.00    -0.338 N 
ATOM     27  H   LIG    1        8.576  -0.337  -0.395  0.00  0.00    +0.144 HD
ATOM     28  H   LIG    1        8.121   1.353  -0.856  0.00  0.00    +0.144 HD
ENDBRANCH  23  26
ENDBRANCH  19  21
BRANCH  20  29
ATOM     29  O   LIG    1        1.999   1.725   1.180  0.00  0.00    -0.396 OA
ATOM     30  C   LIG    1        2.126   1.932   2.593  0.00  0.00    +0.313 C 
ENDBRANCH  20  29
ENDBRANCH   3  19
TORSDOF 7
