REMARK  Name = molecules/MQOBSOSZFYZQOK-UHFFFAOYSA-N.pdb
REMARK                            x       y       z     vdW  Elec       q    Type
REMARK                         _______ _______ _______ _____ _____    ______ ____
ROOT
ATOM      1  C   LIG    1        1.269  -0.456  -0.710  0.00  0.00    -0.005 A 
ATOM      2  C   LIG    1        0.484   0.439  -0.070  0.00  0.00    +0.010 A 
ATOM      3  C   LIG    1       -0.923   0.282   0.026  0.00  0.00    +0.046 A 
ATOM      4  C   LIG    1       -1.573  -0.782  -0.522  0.00  0.00    +0.122 A 
ATOM      5  C   LIG    1       -0.772  -1.722  -1.192  0.00  0.00    +0.046 A 
ATOM      6  C   LIG    1        0.575  -1.560  -1.276  0.00  0.00    +0.010 A 
ENDROOT
BRANCH   1   7
ATOM      7  C   LIG    1        2.705  -0.418  -0.885  0.00  0.00    +0.194 C 
ATOM      8  O   LIG    1        3.148  -0.977  -2.001  0.00  0.00    -0.213 OA
BRANCH   7   9
ATOM      9  C   LIG    1        3.759   0.104  -0.064  0.00  0.00    -0.005 A 
ATOM     10  C   LIG    1        3.685   1.185   0.762  0.00  0.00    +0.008 A 
ATOM     11  C   LIG    1        4.783   1.534   1.557  0.00  0.00    +0.020 A 
ATOM     12  C   LIG    1        5.942   0.814   1.528  0.00  0.00    +0.041 A 
ATOM     13 CL   LIG    1        7.332   1.228   2.517  0.00  0.00    -0.084 Cl
ATOM     14  C   LIG    1        6.007  -0.273   0.691  0.00  0.00    +0.020 A 
ATOM     15  C   LIG    1        4.960  -0.622  -0.079  0.00  0.00    +0.008 A 
ENDBRANCH   7   9
ENDBRANCH   1   7
BRANCH   4  16
ATOM     16  O   LIG    1       -2.910  -0.958  -0.445  0.00  0.00    -0.475 OA
BRANCH  16  17
ATOM     17  C   LIG    1       -3.890  -0.190   0.139  0.00  0.00    +0.200 C 
ATOM     18  C   LIG    1       -3.711  -0.188   1.640  0.00  0.00    +0.067 C 
ATOM     19  C   LIG    1       -5.271  -0.802  -0.163  0.00  0.00    +0.067 C 
BRANCH  17  20
ATOM     20  C   LIG    1       -3.932   1.156  -0.465  0.00  0.00    +0.348 C 
ATOM     21  O   LIG    1       -3.195   1.483  -1.425  0.00  0.00    -0.247 OA
BRANCH  20  22
ATOM     22  O   LIG    1       -4.802   2.152   0.004  0.00  0.00    -0.478 OA
ATOM     23  H   LIG    1       -4.447   2.725   0.750  0.00  0.00    +0.295 HD
ENDBRANCH  20  22
ENDBRANCH  17  20
ENDBRANCH  16  17
ENDBRANCH   4  16
TORSDOF 6
