REMARK  Name = molecules/MQTOSJVFKKJCRP-BICOPXKESA-N.pdb
REMARK                            x       y       z     vdW  Elec       q    Type
REMARK                         _______ _______ _______ _____ _____    ______ ____
ROOT
ATOM      1  C   LIG    1        1.147   0.114   1.688  0.00  0.00    +0.158 C 
ATOM      2  C   LIG    1        1.109  -0.294   3.153  0.00  0.00    +0.090 C 
ATOM      3  C   LIG    1        1.159   0.886   4.097  0.00  0.00    +0.044 C 
ATOM      4  C   LIG    1       -0.159  -1.040   3.508  0.00  0.00    +0.041 C 
ATOM      5  C   LIG    1       -0.001  -2.530   3.288  0.00  0.00    +0.003 C 
ATOM      6  C   LIG    1        0.364  -3.229   4.554  0.00  0.00    +0.009 C 
ATOM      7  C   LIG    1       -1.285  -3.098   2.648  0.00  0.00    +0.087 C 
ATOM      8  N   LIG    1       -1.132  -4.328   2.043  0.00  0.00    -0.300 NA
ATOM      9  C   LIG    1       -1.459  -5.480   2.857  0.00  0.00    +0.105 C 
ATOM     10  C   LIG    1       -1.060  -4.541   0.659  0.00  0.00    +0.085 C 
ATOM     11  C   LIG    1        0.398  -4.501   0.181  0.00  0.00    +0.027 C 
ATOM     12  C   LIG    1       -2.029  -3.906  -0.246  0.00  0.00    +0.166 C 
ATOM     13  C   LIG    1       -1.490  -3.353  -1.534  0.00  0.00    +0.127 C 
ATOM     14  C   LIG    1       -2.406  -2.360  -2.204  0.00  0.00    +0.210 C 
ATOM     15  O   LIG    1       -2.458  -1.097  -1.738  0.00  0.00    -0.458 OA
ATOM     16  C   LIG    1       -1.765  -0.028  -1.397  0.00  0.00    +0.313 C 
ATOM     17  C   LIG    1       -1.506   0.218   0.081  0.00  0.00    +0.124 C 
ATOM     18  C   LIG    1       -2.875   0.363   0.754  0.00  0.00    +0.022 C 
ATOM     19  C   LIG    1       -0.662   1.382   0.364  0.00  0.00    +0.140 C 
ATOM     20  O   LIG    1       -1.247   0.882  -2.136  0.00  0.00    -0.250 OA
ATOM     21  C   LIG    1       -1.340  -4.545  -2.491  0.00  0.00    +0.048 C 
ATOM     22  C   LIG    1        0.339   1.352   1.438  0.00  0.00    +0.047 C 
ATOM     23  C   LIG    1        1.288   2.517   1.207  0.00  0.00    +0.013 C 
ENDROOT
BRANCH  12  24
ATOM     24  O   LIG    1       -2.821  -2.921   0.335  0.00  0.00    -0.387 OA
ATOM     25  H   LIG    1       -3.547  -3.289   0.905  0.00  0.00    +0.210 HD
ENDBRANCH  12  24
BRANCH  13  26
ATOM     26  O   LIG    1       -0.225  -2.793  -1.456  0.00  0.00    -0.383 OA
ATOM     27  H   LIG    1       -0.162  -1.884  -1.817  0.00  0.00    +0.210 HD
ENDBRANCH  13  26
BRANCH  14  28
ATOM     28  C   LIG    1       -3.844  -2.885  -2.276  0.00  0.00    +0.044 C 
ATOM     29  C   LIG    1       -4.651  -1.987  -3.235  0.00  0.00    +0.007 C 
ENDBRANCH  14  28
BRANCH   2  30
ATOM     30  O   LIG    1        2.136  -1.216   3.444  0.00  0.00    -0.386 OA
ATOM     31  H   LIG    1        2.531  -1.625   2.654  0.00  0.00    +0.210 HD
ENDBRANCH   2  30
BRANCH   1  32
ATOM     32  O   LIG    1        2.389   0.311   1.172  0.00  0.00    -0.342 OA
BRANCH  32  33
ATOM     33  C   LIG    1        2.938  -0.415   0.234  0.00  0.00    +0.281 C 
ATOM     34  O   LIG    1        4.203  -0.907   0.646  0.00  0.00    -0.346 OA
ATOM     35  C   LIG    1        4.600  -1.908  -0.225  0.00  0.00    +0.120 C 
ATOM     36  C   LIG    1        5.831  -2.571   0.403  0.00  0.00    +0.038 C 
ATOM     37  C   LIG    1        4.927  -1.348  -1.564  0.00  0.00    +0.053 C 
ATOM     38  C   LIG    1        4.367   0.001  -1.822  0.00  0.00    +0.092 C 
ATOM     39  C   LIG    1        3.281   0.490  -0.955  0.00  0.00    +0.187 C 
BRANCH  38  40
ATOM     40  N   LIG    1        5.475   0.990  -1.838  0.00  0.00    -0.303 NA
ATOM     41  C   LIG    1        4.894   2.134  -2.562  0.00  0.00    +0.105 C 
ATOM     42  C   LIG    1        6.547   0.489  -2.679  0.00  0.00    +0.105 C 
ENDBRANCH  38  40
BRANCH  39  43
ATOM     43  O   LIG    1        2.122   0.717  -1.724  0.00  0.00    -0.385 OA
ATOM     44  H   LIG    1        2.124   0.079  -2.478  0.00  0.00    +0.210 HD
ENDBRANCH  39  43
ENDBRANCH  32  33
ENDBRANCH   1  32
BRANCH  19  45
ATOM     45  O   LIG    1       -1.512   2.478   0.662  0.00  0.00    -0.347 OA
BRANCH  45  46
ATOM     46  C   LIG    1       -1.464   3.503  -0.238  0.00  0.00    +0.254 C 
ATOM     47  O   LIG    1       -1.052   4.716   0.360  0.00  0.00    -0.346 OA
ATOM     48  C   LIG    1       -0.864   5.666  -0.615  0.00  0.00    +0.149 C 
ATOM     49  C   LIG    1       -2.217   6.146  -1.054  0.00  0.00    +0.175 C 
ATOM     50  C   LIG    1       -3.304   5.132  -0.878  0.00  0.00    +0.099 C 
ATOM     51  C   LIG    1       -4.139   5.205  -2.177  0.00  0.00    +0.044 C 
ATOM     52  C   LIG    1       -0.073   5.191  -1.790  0.00  0.00    +0.041 C 
ATOM     53  C   LIG    1       -2.857   3.721  -0.762  0.00  0.00    +0.098 C 
BRANCH  49  54
ATOM     54  O   LIG    1       -2.534   7.296  -0.298  0.00  0.00    -0.386 OA
ATOM     55  H   LIG    1       -2.000   8.071  -0.609  0.00  0.00    +0.210 HD
ENDBRANCH  49  54
BRANCH  50  56
ATOM     56  O   LIG    1       -4.223   5.500   0.109  0.00  0.00    -0.374 OA
ATOM     57  C   LIG    1       -3.752   5.379   1.383  0.00  0.00    +0.194 C 
ENDBRANCH  50  56
ENDBRANCH  45  46
ENDBRANCH  19  45
TORSDOF 12
