REMARK  Name = molecules/MRMBZHPJVKCOMA-YJFSRANCSA-N.pdb
REMARK                            x       y       z     vdW  Elec       q    Type
REMARK                         _______ _______ _______ _____ _____    ______ ____
ROOT
ATOM      1  N   LIG    1       -1.831  -0.568   1.275  0.00  0.00    -0.260 N 
ATOM      2  C   LIG    1       -3.090  -0.394   1.870  0.00  0.00    +0.228 C 
ATOM      3  O   LIG    1       -3.530  -0.693   3.014  0.00  0.00    -0.275 OA
ATOM      4  C   LIG    1       -3.564   0.241   0.615  0.00  0.00    +0.125 C 
ATOM      5  C   LIG    1       -0.423  -0.724   1.004  0.00  0.00    +0.135 C 
ATOM      6  C   LIG    1       -0.148  -0.373  -0.231  0.00  0.00    +0.019 C 
ATOM      7  C   LIG    1       -1.501   0.057  -0.860  0.00  0.00    +0.046 C 
ATOM      8  C   LIG    1       -1.585   1.548  -0.865  0.00  0.00    +0.015 C 
ATOM      9  C   LIG    1       -2.502  -0.632  -0.013  0.00  0.00    +0.104 C 
ENDROOT
BRANCH   5  10
ATOM     10  C   LIG    1        0.449  -1.252   2.019  0.00  0.00    +0.401 C 
ATOM     11  O   LIG    1       -0.024  -1.509   3.181  0.00  0.00    -0.239 OA
ATOM     12  O   LIG    1        1.774  -1.523   1.879  0.00  0.00    -0.239 OA
ENDBRANCH   5  10
BRANCH   4  13
ATOM     13  C   LIG    1       -4.981  -0.149   0.267  0.00  0.00    +0.125 C 
ATOM     14  C   LIG    1       -5.403   0.676  -0.928  0.00  0.00    +0.038 C 
BRANCH  13  15
ATOM     15  O   LIG    1       -5.135  -1.501   0.089  0.00  0.00    -0.391 OA
ATOM     16  H   LIG    1       -5.535  -1.634  -0.818  0.00  0.00    +0.210 HD
ENDBRANCH  13  15
ENDBRANCH   4  13
BRANCH   6  17
ATOM     17  S   LIG    1        1.320  -0.344  -1.133  0.00  0.00    -0.121 S 
BRANCH  17  18
ATOM     18  C   LIG    1        2.911  -0.461  -0.556  0.00  0.00    +0.086 C 
ATOM     19  C   LIG    1        3.451   0.678   0.301  0.00  0.00    +0.141 C 
ATOM     20  N   LIG    1        4.868   0.378   0.233  0.00  0.00    -0.251 N 
ATOM     21  C   LIG    1        6.028   0.421   0.903  0.00  0.00    +0.195 C 
ATOM     22  N   LIG    1        7.030  -0.070   0.152  0.00  0.00    -0.251 NA
ATOM     23  C   LIG    1        6.467  -0.426  -1.016  0.00  0.00    +0.233 C 
ATOM     24  N   LIG    1        5.151  -0.147  -0.952  0.00  0.00    -0.197 NA
ATOM     25  C   LIG    1        3.937  -0.231  -1.749  0.00  0.00    +0.124 C 
ENDBRANCH  17  18
ENDBRANCH   6  17
TORSDOF 5
