REMARK  Name = molecules/MROJXXOCABQVEF-UHFFFAOYSA-N.pdb
REMARK                            x       y       z     vdW  Elec       q    Type
REMARK                         _______ _______ _______ _____ _____    ______ ____
ROOT
ATOM      1  C   LIG    1       -1.683  -0.460  -0.356  0.00  0.00    -0.037 A 
ATOM      2  C   LIG    1       -1.141  -1.170   0.691  0.00  0.00    +0.006 A 
ATOM      3  C   LIG    1        0.190  -1.089   1.005  0.00  0.00    +0.023 A 
ATOM      4  C   LIG    1        1.008  -0.260   0.234  0.00  0.00    +0.033 A 
ATOM      5  C   LIG    1        0.457   0.444  -0.808  0.00  0.00    +0.023 A 
ATOM      6  C   LIG    1       -0.910   0.354  -1.123  0.00  0.00    +0.006 A 
ENDROOT
BRANCH   4   7
ATOM      7  N   LIG    1        2.368  -0.183   0.569  0.00  0.00    -0.286 N 
ATOM      8  H   LIG    1        2.715  -0.717   1.425  0.00  0.00    +0.155 HD
ATOM      9  C   LIG    1        3.373   0.536  -0.102  0.00  0.00    +0.214 C 
ATOM     10  C   LIG    1        4.800   0.507   0.404  0.00  0.00    +0.109 C 
ATOM     11  O   LIG    1        3.151   1.220  -1.126  0.00  0.00    -0.276 OA
ENDBRANCH   4   7
BRANCH   1  12
ATOM     12  C   LIG    1       -3.129  -0.575  -0.665  0.00  0.00    +0.155 C 
BRANCH  12  13
ATOM     13  C   LIG    1       -3.921   0.427   0.067  0.00  0.00    +0.309 C 
ATOM     14  O   LIG    1       -3.449   1.272   0.850  0.00  0.00    -0.251 OA
BRANCH  13  15
ATOM     15  O   LIG    1       -5.301   0.431  -0.132  0.00  0.00    -0.480 OA
ATOM     16  H   LIG    1       -5.818   1.291  -0.043  0.00  0.00    +0.295 HD
ENDBRANCH  13  15
ENDBRANCH  12  13
ENDBRANCH   1  12
TORSDOF 4
