REMARK  Name = molecules/MRWQRJMESRRJJB-UHFFFAOYSA-N.pdb
REMARK                            x       y       z     vdW  Elec       q    Type
REMARK                         _______ _______ _______ _____ _____    ______ ____
ROOT
ATOM      1  O   LIG    1       -1.032   0.404   1.560  0.00  0.00    -0.265 OA
ATOM      2  C   LIG    1       -1.516  -0.060   0.474  0.00  0.00    +0.282 A 
ATOM      3  C   LIG    1       -2.856   0.179   0.270  0.00  0.00    +0.151 A 
ATOM      4  N   LIG    1       -3.795   0.811   0.983  0.00  0.00    -0.328 N 
ATOM      5  C   LIG    1       -3.630   1.475   2.284  0.00  0.00    +0.150 C 
ATOM      6  C   LIG    1       -4.933   0.717   0.262  0.00  0.00    +0.202 A 
ATOM      7  N   LIG    1       -4.694   0.033  -0.882  0.00  0.00    -0.218 NA
ATOM      8  C   LIG    1       -3.392  -0.320  -0.907  0.00  0.00    +0.168 A 
ATOM      9  N   LIG    1       -2.651  -0.998  -1.800  0.00  0.00    -0.280 N 
ATOM     10  C   LIG    1       -1.347  -1.200  -1.545  0.00  0.00    +0.333 A 
ATOM     11  O   LIG    1       -0.582  -1.824  -2.326  0.00  0.00    -0.246 OA
ATOM     12  C   LIG    1       -3.182  -1.530  -3.035  0.00  0.00    +0.155 C 
ATOM     13  N   LIG    1       -0.777  -0.731  -0.407  0.00  0.00    -0.259 N 
ENDROOT
BRANCH  13  14
ATOM     14  C   LIG    1        0.627  -0.938  -0.113  0.00  0.00    +0.130 C 
BRANCH  14  15
ATOM     15  C   LIG    1        1.396   0.245  -0.699  0.00  0.00    +0.022 C 
BRANCH  15  16
ATOM     16  C   LIG    1        2.875   0.113  -0.441  0.00  0.00    +0.002 C 
BRANCH  16  17
ATOM     17  C   LIG    1        3.183   0.061   1.041  0.00  0.00    -0.000 C 
BRANCH  17  18
ATOM     18  C   LIG    1        4.670  -0.069   1.292  0.00  0.00    -0.003 C 
ATOM     19  C   LIG    1        5.447   1.081   0.723  0.00  0.00    +0.004 C 
ENDBRANCH  17  18
ENDBRANCH  16  17
ENDBRANCH  15  16
ENDBRANCH  14  15
ENDBRANCH  13  14
TORSDOF 5
