REMARK  Name = molecules/MSCCTZZBYHQMQJ-AZAGJHQNSA-N.pdb
REMARK                            x       y       z     vdW  Elec       q    Type
REMARK                         _______ _______ _______ _____ _____    ______ ____
ROOT
ATOM      1  C   LIG    1        3.336  -0.681   2.616  0.00  0.00    +0.048 C 
ATOM      2  C   LIG    1        4.219  -0.626   1.419  0.00  0.00    -0.002 A 
ATOM      3  C   LIG    1        5.612  -0.545   1.569  0.00  0.00    -0.001 A 
ATOM      4  C   LIG    1        6.162  -0.512   2.925  0.00  0.00    +0.048 C 
ATOM      5  C   LIG    1        6.440  -0.496   0.470  0.00  0.00    +0.138 A 
ATOM      6  C   LIG    1        5.866  -0.528  -0.785  0.00  0.00    -0.001 A 
ATOM      7  C   LIG    1        4.514  -0.607  -1.003  0.00  0.00    +0.001 A 
ATOM      8  C   LIG    1        3.883  -0.659  -2.343  0.00  0.00    +0.043 C 
ATOM      9  C   LIG    1        2.478  -0.236  -2.436  0.00  0.00    +0.052 C 
ATOM     10  C   LIG    1        1.804   0.013  -1.156  0.00  0.00    +0.108 C 
ATOM     11  O   LIG    1        2.349  -0.730  -0.102  0.00  0.00    -0.485 OA
ATOM     12  C   LIG    1        1.822   1.485  -0.805  0.00  0.00    +0.055 C 
ATOM     13  C   LIG    1        6.775  -0.475  -1.959  0.00  0.00    +0.048 C 
ATOM     14  C   LIG    1        3.723  -0.653   0.153  0.00  0.00    +0.128 A 
ENDROOT
BRANCH   5  15
ATOM     15  O   LIG    1        7.810  -0.416   0.680  0.00  0.00    -0.422 OA
BRANCH  15  16
ATOM     16  C   LIG    1        8.517   0.788   0.726  0.00  0.00    +0.346 C 
ATOM     17  O   LIG    1        7.831   1.829   0.563  0.00  0.00    -0.244 OA
BRANCH  16  18
ATOM     18  C   LIG    1        9.946   0.853   0.946  0.00  0.00    +0.077 A 
ATOM     19  C   LIG    1       10.693  -0.281   1.130  0.00  0.00    +0.125 A 
ATOM     20  N   LIG    1       12.038  -0.172   1.333  0.00  0.00    -0.262 NA
ATOM     21  C   LIG    1       12.646   1.019   1.357  0.00  0.00    +0.111 A 
ATOM     22  C   LIG    1       11.937   2.187   1.177  0.00  0.00    +0.020 A 
ATOM     23  C   LIG    1       10.562   2.081   0.969  0.00  0.00    +0.018 A 
ENDBRANCH  16  18
ENDBRANCH  15  16
ENDBRANCH   5  15
BRANCH  10  24
ATOM     24  C   LIG    1        0.338  -0.468  -1.266  0.00  0.00    +0.048 C 
BRANCH  24  25
ATOM     25  C   LIG    1       -0.363   0.255  -2.356  0.00  0.00    +0.004 C 
BRANCH  25  26
ATOM     26  C   LIG    1       -1.756  -0.133  -2.591  0.00  0.00    +0.003 C 
BRANCH  26  27
ATOM     27  C   LIG    1       -2.761   0.029  -1.489  0.00  0.00    -0.014 C 
ATOM     28  C   LIG    1       -2.463  -0.916  -0.321  0.00  0.00    +0.007 C 
BRANCH  27  29
ATOM     29  C   LIG    1       -4.095  -0.410  -2.108  0.00  0.00    +0.003 C 
BRANCH  29  30
ATOM     30  C   LIG    1       -5.250  -0.297  -1.130  0.00  0.00    +0.001 C 
BRANCH  30  31
ATOM     31  C   LIG    1       -5.451   1.074  -0.630  0.00  0.00    +0.003 C 
BRANCH  31  32
ATOM     32  C   LIG    1       -6.554   1.300   0.336  0.00  0.00    -0.014 C 
ATOM     33  C   LIG    1       -6.691   2.825   0.551  0.00  0.00    +0.007 C 
BRANCH  32  34
ATOM     34  C   LIG    1       -6.549   0.672   1.660  0.00  0.00    +0.003 C 
BRANCH  34  35
ATOM     35  C   LIG    1       -6.537  -0.790   1.817  0.00  0.00    +0.001 C 
BRANCH  35  36
ATOM     36  C   LIG    1       -7.651  -1.549   1.228  0.00  0.00    +0.003 C 
BRANCH  36  37
ATOM     37  C   LIG    1       -9.003  -1.358   1.809  0.00  0.00    -0.017 C 
ATOM     38  C   LIG    1       -9.647  -0.039   1.802  0.00  0.00    +0.007 C 
ATOM     39  C   LIG    1       -9.940  -2.347   1.069  0.00  0.00    +0.007 C 
ENDBRANCH  36  37
ENDBRANCH  35  36
ENDBRANCH  34  35
ENDBRANCH  32  34
ENDBRANCH  31  32
ENDBRANCH  30  31
ENDBRANCH  29  30
ENDBRANCH  27  29
ENDBRANCH  26  27
ENDBRANCH  25  26
ENDBRANCH  24  25
ENDBRANCH  10  24
TORSDOF 15
