REMARK  Name = molecules/MSJLJWCAEPENBL-UHFFFAOYSA-N.pdb
REMARK                            x       y       z     vdW  Elec       q    Type
REMARK                         _______ _______ _______ _____ _____    ______ ____
ROOT
ATOM      1  C   LIG    1       -1.897   1.380  -1.603  0.00  0.00    -0.030 A 
ATOM      2  C   LIG    1       -1.083   1.681  -0.540  0.00  0.00    +0.005 A 
ATOM      3  C   LIG    1        0.196   1.172  -0.409  0.00  0.00    +0.005 A 
ATOM      4  C   LIG    1        0.698   0.335  -1.354  0.00  0.00    -0.030 A 
ATOM      5  C   LIG    1       -0.126   0.032  -2.425  0.00  0.00    +0.005 A 
ATOM      6  C   LIG    1       -1.389   0.525  -2.571  0.00  0.00    +0.005 A 
ENDROOT
BRANCH   1   7
ATOM      7  C   LIG    1       -3.258   1.887  -1.826  0.00  0.00    +0.143 C 
BRANCH   7   8
ATOM      8  N   LIG    1       -4.006   1.880  -0.582  0.00  0.00    -0.293 N 
ATOM      9  C   LIG    1       -3.996   3.045   0.219  0.00  0.00    +0.249 C 
ATOM     10  O   LIG    1       -3.358   4.103  -0.102  0.00  0.00    -0.273 OA
BRANCH   9  11
ATOM     11  C   LIG    1       -4.736   3.109   1.489  0.00  0.00    +0.256 C 
ATOM     12 CL   LIG    1       -4.251   4.533   2.457  0.00  0.00    -0.094 Cl
ATOM     13 CL   LIG    1       -6.475   3.296   1.034  0.00  0.00    -0.094 Cl
ENDBRANCH   9  11
BRANCH   8  14
ATOM     14  C   LIG    1       -4.750   0.725  -0.186  0.00  0.00    +0.136 C 
BRANCH  14  15
ATOM     15  C   LIG    1       -4.005  -0.297   0.624  0.00  0.00    +0.178 C 
BRANCH  15  16
ATOM     16  O   LIG    1       -2.911  -0.836  -0.046  0.00  0.00    -0.378 OA
BRANCH  16  17
ATOM     17  C   LIG    1       -2.299  -1.765   0.790  0.00  0.00    +0.156 C 
ATOM     18  C   LIG    1       -3.279  -2.862   1.141  0.00  0.00    +0.034 C 
ENDBRANCH  16  17
ENDBRANCH  15  16
ENDBRANCH  14  15
ENDBRANCH   8  14
ENDBRANCH   7   8
ENDBRANCH   1   7
BRANCH   4  19
ATOM     19  C   LIG    1        2.029  -0.285  -1.357  0.00  0.00    +0.143 C 
BRANCH  19  20
ATOM     20  N   LIG    1        2.959   0.246  -0.406  0.00  0.00    -0.293 N 
ATOM     21  C   LIG    1        3.891   1.265  -0.633  0.00  0.00    +0.249 C 
ATOM     22  O   LIG    1        4.638   1.650   0.278  0.00  0.00    -0.273 OA
BRANCH  21  23
ATOM     23  C   LIG    1        3.982   1.882  -1.963  0.00  0.00    +0.256 C 
ATOM     24 CL   LIG    1        5.300   3.094  -2.040  0.00  0.00    -0.094 Cl
ATOM     25 CL   LIG    1        2.517   2.686  -2.500  0.00  0.00    -0.094 Cl
ENDBRANCH  21  23
BRANCH  20  26
ATOM     26  C   LIG    1        2.914  -0.354   0.930  0.00  0.00    +0.136 C 
BRANCH  26  27
ATOM     27  C   LIG    1        3.865  -1.518   0.934  0.00  0.00    +0.178 C 
BRANCH  27  28
ATOM     28  O   LIG    1        3.921  -2.176   2.139  0.00  0.00    -0.378 OA
BRANCH  28  29
ATOM     29  C   LIG    1        4.829  -3.228   2.015  0.00  0.00    +0.156 C 
ATOM     30  C   LIG    1        6.175  -2.687   1.661  0.00  0.00    +0.034 C 
ENDBRANCH  28  29
ENDBRANCH  27  28
ENDBRANCH  26  27
ENDBRANCH  20  26
ENDBRANCH  19  20
ENDBRANCH   4  19
TORSDOF 14
