REMARK  Name = molecules/MSNWSDPPULHLDL-UHFFFAOYSA-K.pdb
REMARK                            x       y       z     vdW  Elec       q    Type
REMARK                         _______ _______ _______ _____ _____    ______ ____
ROOT
ATOM      1 FE   LIG    1        0.158  -0.120   0.697  0.00  0.00    +0.000 Fe
ENDROOT
BRANCH   1   2
ATOM      2  O   LIG    1       -0.342   1.534   0.449  0.00  0.00    +0.000 OA
ATOM      3  H   LIG    1       -0.852   1.641  -0.389  0.00  0.00    +0.000 HD
ENDBRANCH   1   2
BRANCH   1   4
ATOM      4  O   LIG    1       -0.889  -1.226   0.405  0.00  0.00    +0.000 OA
ATOM      5  H   LIG    1       -1.591  -1.226  -0.295  0.00  0.00    +0.000 HD
ENDBRANCH   1   4
BRANCH   1   6
ATOM      6  O   LIG    1        1.763  -0.298   0.066  0.00  0.00    +0.000 OA
ATOM      7  H   LIG    1        1.752  -0.304  -0.933  0.00  0.00    +0.000 HD
ENDBRANCH   1   6
TORSDOF 3
