REMARK  Name = molecules/MSPRUJDUTKRMLM-UHFFFAOYSA-N.pdb
REMARK                            x       y       z     vdW  Elec       q    Type
REMARK                         _______ _______ _______ _____ _____    ______ ____
ROOT
ATOM      1  N   LIG    1       -0.960  -1.236   0.692  0.00  0.00    -0.304 N 
ATOM      2  C   LIG    1        0.184  -0.985   1.358  0.00  0.00    +0.274 A 
ATOM      3  O   LIG    1        0.224   0.089   2.009  0.00  0.00    -0.266 OA
ATOM      4  C   LIG    1        1.267  -1.833   1.349  0.00  0.00    +0.111 A 
ATOM      5  N   LIG    1        1.136  -2.953   0.633  0.00  0.00    -0.244 NA
ATOM      6  C   LIG    1        0.029  -3.278  -0.060  0.00  0.00    +0.088 A 
ATOM      7  C   LIG    1       -0.057  -4.440  -0.784  0.00  0.00    +0.030 A 
ATOM      8  C   LIG    1       -1.179  -4.785  -1.498  0.00  0.00    +0.002 A 
ATOM      9  C   LIG    1       -2.242  -3.914  -1.469  0.00  0.00    +0.002 A 
ATOM     10  C   LIG    1       -2.161  -2.747  -0.744  0.00  0.00    +0.028 A 
ATOM     11  C   LIG    1       -1.040  -2.374  -0.014  0.00  0.00    +0.070 A 
ENDROOT
BRANCH   1  12
ATOM     12  C   LIG    1       -2.110  -0.336   0.700  0.00  0.00    +0.141 C 
BRANCH  12  13
ATOM     13  C   LIG    1       -2.038   0.661  -0.397  0.00  0.00    +0.106 C 
BRANCH  13  14
ATOM     14  N   LIG    1       -3.091   1.565  -0.535  0.00  0.00    -0.301 NA
BRANCH  14  15
ATOM     15  C   LIG    1       -3.055   2.722   0.308  0.00  0.00    +0.081 C 
ATOM     16  C   LIG    1       -1.897   3.587  -0.141  0.00  0.00    +0.020 C 
ENDBRANCH  14  15
BRANCH  14  17
ATOM     17  C   LIG    1       -4.349   1.165  -0.988  0.00  0.00    +0.081 C 
ATOM     18  C   LIG    1       -5.194   0.286  -0.148  0.00  0.00    +0.020 C 
ENDBRANCH  14  17
ENDBRANCH  13  14
ENDBRANCH  12  13
ENDBRANCH   1  12
BRANCH   4  19
ATOM     19  C   LIG    1        2.540  -1.562   2.066  0.00  0.00    +0.096 C 
BRANCH  19  20
ATOM     20  C   LIG    1        3.389  -0.582   1.365  0.00  0.00    -0.041 A 
ATOM     21  C   LIG    1        3.320   0.732   1.707  0.00  0.00    +0.007 A 
ATOM     22  C   LIG    1        4.117   1.626   1.026  0.00  0.00    +0.046 A 
ATOM     23  C   LIG    1        4.959   1.199   0.028  0.00  0.00    +0.120 A 
ATOM     24  C   LIG    1        5.007  -0.145  -0.298  0.00  0.00    +0.046 A 
ATOM     25  C   LIG    1        4.226  -1.051   0.363  0.00  0.00    +0.007 A 
BRANCH  23  26
ATOM     26  O   LIG    1        5.736   2.113  -0.631  0.00  0.00    -0.495 OA
ATOM     27  C   LIG    1        5.760   3.481  -0.382  0.00  0.00    +0.277 C 
ENDBRANCH  23  26
ENDBRANCH  19  20
ENDBRANCH   4  19
TORSDOF 8
