REMARK  Name = molecules/MSRJTTSHWYDFIU-UHFFFAOYSA-N.pdb
REMARK                            x       y       z     vdW  Elec       q    Type
REMARK                         _______ _______ _______ _____ _____    ______ ____
ROOT
ATOM      1 SI   LIG    1       -1.940  -0.340  -0.290  0.00  0.00    +0.000 Si
ENDROOT
BRANCH   1   2
ATOM      2  O   LIG    1       -3.412  -0.902   0.500  0.00  0.00    +0.000 OA
BRANCH   2   3
ATOM      3  C   LIG    1       -3.113  -1.363   1.756  0.00  0.00    +0.000 C 
ATOM      4  C   LIG    1       -4.526  -1.463   2.455  0.00  0.00    +0.000 C 
ENDBRANCH   2   3
ENDBRANCH   1   2
BRANCH   1   5
ATOM      5  C   LIG    1       -0.479  -1.013   0.385  0.00  0.00    +0.000 C 
BRANCH   5   6
ATOM      6  C   LIG    1        0.891  -0.857  -0.190  0.00  0.00    +0.000 C 
BRANCH   6   7
ATOM      7  C   LIG    1        1.268   0.605  -0.341  0.00  0.00    +0.000 C 
BRANCH   7   8
ATOM      8  C   LIG    1        2.733   0.679  -0.519  0.00  0.00    +0.000 C 
BRANCH   8   9
ATOM      9  C   LIG    1        3.458  -0.012  -1.596  0.00  0.00    +0.000 C 
BRANCH   9  10
ATOM     10  C   LIG    1        4.955   0.248  -1.160  0.00  0.00    +0.000 C 
BRANCH  10  11
ATOM     11  C   LIG    1        5.092  -0.509   0.115  0.00  0.00    +0.000 C 
ATOM     12  C   LIG    1        6.347  -0.189   0.883  0.00  0.00    +0.000 C 
ENDBRANCH  10  11
ENDBRANCH   9  10
ENDBRANCH   8   9
ENDBRANCH   7   8
ENDBRANCH   6   7
ENDBRANCH   5   6
ENDBRANCH   1   5
BRANCH   1  13
ATOM     13  O   LIG    1       -2.167   1.411  -0.118  0.00  0.00    +0.000 OA
BRANCH  13  14
ATOM     14  C   LIG    1       -1.645   2.108   0.856  0.00  0.00    +0.000 C 
ATOM     15  C   LIG    1       -2.886   2.649   1.724  0.00  0.00    +0.000 C 
ENDBRANCH  13  14
ENDBRANCH   1  13
BRANCH   1  16
ATOM     16  O   LIG    1       -2.151  -0.503  -1.969  0.00  0.00    +0.000 OA
BRANCH  16  17
ATOM     17  C   LIG    1       -3.579  -0.700  -2.183  0.00  0.00    +0.000 C 
ATOM     18  C   LIG    1       -3.984   0.369  -3.209  0.00  0.00    +0.000 C 
ENDBRANCH  16  17
ENDBRANCH   1  16
TORSDOF 13
