REMARK  Name = molecules/MSWZFWKMSRAUBD-QZABAPFNSA-N.pdb
REMARK                            x       y       z     vdW  Elec       q    Type
REMARK                         _______ _______ _______ _____ _____    ______ ____
ROOT
ATOM      1  C   LIG    1        1.423   0.071   0.539  0.00  0.00    +0.139 C 
ATOM      2  C   LIG    1        0.603   1.349   0.516  0.00  0.00    +0.267 C 
ATOM      3  O   LIG    1       -0.731   0.950   0.762  0.00  0.00    -0.342 OA
ATOM      4  C   LIG    1       -1.192   0.225  -0.320  0.00  0.00    +0.178 C 
ATOM      5  C   LIG    1       -0.437  -1.083  -0.458  0.00  0.00    +0.176 C 
ATOM      6  C   LIG    1        1.019  -0.708  -0.695  0.00  0.00    +0.167 C 
ENDROOT
BRANCH   1   7
ATOM      7  N   LIG    1        2.831   0.356   0.584  0.00  0.00    -0.321 NA
ATOM      8  H   LIG    1        3.041   0.651   1.584  0.00  0.00    +0.119 HD
ATOM      9  H   LIG    1        3.379  -0.497   0.423  0.00  0.00    +0.119 HD
ENDBRANCH   1   7
BRANCH   2  10
ATOM     10  O   LIG    1        1.075   2.225   1.456  0.00  0.00    -0.366 OA
ATOM     11  H   LIG    1        0.973   3.177   1.168  0.00  0.00    +0.213 HD
ENDBRANCH   2  10
BRANCH   5  12
ATOM     12  O   LIG    1       -0.954  -1.863  -1.458  0.00  0.00    -0.387 OA
ATOM     13  H   LIG    1       -1.407  -2.645  -1.029  0.00  0.00    +0.210 HD
ENDBRANCH   5  12
BRANCH   6  14
ATOM     14  O   LIG    1        1.816  -1.814  -0.912  0.00  0.00    -0.387 OA
ATOM     15  H   LIG    1        2.416  -1.683  -1.701  0.00  0.00    +0.210 HD
ENDBRANCH   6  14
BRANCH   4  16
ATOM     16  C   LIG    1       -2.649  -0.108  -0.070  0.00  0.00    +0.190 C 
BRANCH  16  17
ATOM     17  O   LIG    1       -3.413   1.049   0.073  0.00  0.00    -0.392 OA
ATOM     18  H   LIG    1       -3.268   1.377   1.012  0.00  0.00    +0.210 HD
ENDBRANCH  16  17
ENDBRANCH   4  16
TORSDOF 6
