REMARK  Name = molecules/MSYKRHVOOPPJKU-BDAKNGLRSA-N.pdb
REMARK                            x       y       z     vdW  Elec       q    Type
REMARK                         _______ _______ _______ _____ _____    ______ ____
ROOT
ATOM      1  C   LIG    1       -1.323  -1.112  -0.167  0.00  0.00    +0.015 C 
ATOM      2  C   LIG    1       -0.415  -1.866   0.791  0.00  0.00    +0.101 C 
ATOM      3  C   LIG    1        0.909  -1.398   0.315  0.00  0.00    +0.217 C 
ATOM      4  O   LIG    1        1.997  -1.987   0.426  0.00  0.00    -0.276 OA
ATOM      5  N   LIG    1        0.709  -0.134  -0.301  0.00  0.00    -0.290 N 
ATOM      6  C   LIG    1       -0.719   0.247  -0.084  0.00  0.00    +0.112 C 
ENDROOT
BRANCH   5   7
ATOM      7  C   LIG    1        1.651   0.662  -1.004  0.00  0.00    +0.161 C 
BRANCH   7   8
ATOM      8  C   LIG    1        2.151  -0.002  -2.248  0.00  0.00    +0.231 C 
ATOM      9  O   LIG    1        1.725  -1.141  -2.558  0.00  0.00    -0.274 OA
ATOM     10  N   LIG    1        3.099   0.601  -3.115  0.00  0.00    -0.328 N 
ATOM     11  H   LIG    1        4.131   0.594  -2.940  0.00  0.00    +0.145 HD
ATOM     12  H   LIG    1        2.806   1.100  -4.001  0.00  0.00    +0.145 HD
ENDBRANCH   7   8
BRANCH   7  13
ATOM     13  C   LIG    1        2.817   1.112  -0.157  0.00  0.00    +0.028 C 
ATOM     14  C   LIG    1        2.375   1.939   1.015  0.00  0.00    +0.006 C 
ENDBRANCH   7  13
ENDBRANCH   5   7
BRANCH   1  15
ATOM     15  C   LIG    1       -2.759  -1.276   0.047  0.00  0.00    +0.005 C 
BRANCH  15  16
ATOM     16  C   LIG    1       -3.362  -0.873   1.337  0.00  0.00    -0.003 C 
ATOM     17  C   LIG    1       -3.218   0.589   1.628  0.00  0.00    +0.004 C 
ENDBRANCH  15  16
ENDBRANCH   1  15
TORSDOF 5
