REMARK  Name = molecules/MSYUMPGNGDNTIQ-HXUWFJFHSA-N.pdb
REMARK                            x       y       z     vdW  Elec       q    Type
REMARK                         _______ _______ _______ _____ _____    ______ ____
ROOT
ATOM      1  C   LIG    1       -2.006  -2.692  -0.687  0.00  0.00    +0.010 C 
ATOM      2  C   LIG    1       -1.464  -1.325  -0.464  0.00  0.00    +0.018 C 
ENDROOT
BRANCH   2   3
ATOM      3  C   LIG    1       -2.268  -0.415   0.439  0.00  0.00    +0.115 C 
BRANCH   3   4
ATOM      4  N   LIG    1       -3.609  -0.158   0.027  0.00  0.00    -0.301 N 
ATOM      5  C   LIG    1       -4.637  -1.037   0.486  0.00  0.00    +0.029 C 
ATOM      6  C   LIG    1       -4.317  -2.086   1.362  0.00  0.00    +0.069 C 
ATOM      7  C   LIG    1       -5.263  -2.968   1.864  0.00  0.00    -0.020 C 
ATOM      8  C   LIG    1       -6.575  -2.832   1.502  0.00  0.00    -0.021 C 
ATOM      9  C   LIG    1       -6.921  -1.814   0.645  0.00  0.00    +0.061 C 
ATOM     10  C   LIG    1       -5.963  -0.955   0.164  0.00  0.00    +0.016 C 
ATOM     11  S   LIG    1       -6.510   0.344  -0.928  0.00  0.00    -0.090 S 
ATOM     12  C   LIG    1       -5.074   1.287  -1.334  0.00  0.00    +0.033 C 
ATOM     13  C   LIG    1       -5.250   2.355  -2.168  0.00  0.00    +0.013 C 
ATOM     14  C   LIG    1       -4.218   3.169  -2.582  0.00  0.00    -0.017 C 
ATOM     15  C   LIG    1       -2.977   2.831  -2.094  0.00  0.00    +0.047 C 
ATOM     16  C   LIG    1       -2.776   1.762  -1.254  0.00  0.00    +0.006 C 
ATOM     17  C   LIG    1       -3.834   0.958  -0.850  0.00  0.00    +0.044 C 
ENDBRANCH   3   4
ENDBRANCH   2   3
BRANCH   2  18
ATOM     18  C   LIG    1       -0.109  -1.490   0.233  0.00  0.00    +0.089 C 
BRANCH  18  19
ATOM     19  N   LIG    1        0.442  -0.203   0.439  0.00  0.00    -0.300 NA
ATOM     20  C   LIG    1        1.256  -0.010   1.591  0.00  0.00    +0.100 C 
ATOM     21  C   LIG    1        1.934   1.354   1.410  0.00  0.00    +0.100 C 
ATOM     22  N   LIG    1        2.918   1.301   0.333  0.00  0.00    -0.298 NA
ATOM     23  C   LIG    1        2.427   0.517  -0.782  0.00  0.00    +0.100 C 
ATOM     24  C   LIG    1        0.901   0.499  -0.724  0.00  0.00    +0.100 C 
BRANCH  22  25
ATOM     25  C   LIG    1        4.092   0.677   0.919  0.00  0.00    +0.112 C 
BRANCH  25  26
ATOM     26  C   LIG    1        5.292   0.684   0.011  0.00  0.00    +0.175 C 
BRANCH  26  27
ATOM     27  O   LIG    1        6.325   0.075   0.704  0.00  0.00    -0.376 OA
BRANCH  27  28
ATOM     28  C   LIG    1        7.502  -0.036   0.007  0.00  0.00    +0.187 C 
BRANCH  28  29
ATOM     29  C   LIG    1        8.069   1.293  -0.444  0.00  0.00    +0.184 C 
BRANCH  29  30
ATOM     30  O   LIG    1        9.262   1.010  -1.132  0.00  0.00    -0.393 OA
ATOM     31  H   LIG    1        9.829   1.796  -1.102  0.00  0.00    +0.209 HD
ENDBRANCH  29  30
ENDBRANCH  28  29
ENDBRANCH  27  28
ENDBRANCH  26  27
ENDBRANCH  25  26
ENDBRANCH  22  25
ENDBRANCH  18  19
ENDBRANCH   2  18
TORSDOF 10
