REMARK  Name = molecules/MTCUAOILFDZKCO-UHFFFAOYSA-N.pdb
REMARK                            x       y       z     vdW  Elec       q    Type
REMARK                         _______ _______ _______ _____ _____    ______ ____
ROOT
ATOM      1  C   LIG    1       -0.523  -0.376  -0.946  0.00  0.00    -0.000 C 
ENDROOT
BRANCH   1   2
ATOM      2  C   LIG    1       -0.900  -1.022   0.318  0.00  0.00    -0.000 C 
BRANCH   2   3
ATOM      3  C   LIG    1       -1.594  -0.178   1.324  0.00  0.00    -0.002 C 
BRANCH   3   4
ATOM      4  C   LIG    1       -2.892   0.435   0.884  0.00  0.00    -0.018 C 
BRANCH   4   5
ATOM      5  C   LIG    1       -3.923  -0.566   0.499  0.00  0.00    -0.076 C 
BRANCH   5   6
ATOM      6  N   LIG    1       -5.176   0.049   0.091  0.00  0.00    +0.374 N 
ATOM      7  C   LIG    1       -5.421   1.295   0.747  0.00  0.00    -0.093 C 
ATOM      8  C   LIG    1       -6.236  -0.875   0.450  0.00  0.00    -0.093 C 
ATOM      9  C   LIG    1       -5.247   0.225  -1.350  0.00  0.00    -0.093 C 
ENDBRANCH   5   6
ENDBRANCH   4   5
ENDBRANCH   3   4
ENDBRANCH   2   3
ENDBRANCH   1   2
BRANCH   1  10
ATOM     10  C   LIG    1        0.313   0.811  -1.018  0.00  0.00    -0.000 C 
BRANCH  10  11
ATOM     11  C   LIG    1        1.710   0.818  -0.479  0.00  0.00    -0.000 C 
BRANCH  11  12
ATOM     12  C   LIG    1        1.889   0.647   0.970  0.00  0.00    -0.002 C 
BRANCH  12  13
ATOM     13  C   LIG    1        3.238   0.708   1.547  0.00  0.00    -0.018 C 
BRANCH  13  14
ATOM     14  C   LIG    1        4.317  -0.213   1.237  0.00  0.00    -0.076 C 
BRANCH  14  15
ATOM     15  N   LIG    1        4.923  -0.332  -0.029  0.00  0.00    +0.374 N 
ATOM     16  C   LIG    1        6.381  -0.589   0.265  0.00  0.00    -0.093 C 
ATOM     17  C   LIG    1        4.543  -1.499  -0.801  0.00  0.00    -0.093 C 
ATOM     18  C   LIG    1        4.945   0.829  -0.862  0.00  0.00    -0.093 C 
ENDBRANCH  14  15
ENDBRANCH  13  14
ENDBRANCH  12  13
ENDBRANCH  11  12
ENDBRANCH  10  11
ENDBRANCH   1  10
TORSDOF 11
