REMARK  Name = molecules/MTTYXGPMZKRTCI-VIFPVBQESA-N.pdb
REMARK                            x       y       z     vdW  Elec       q    Type
REMARK                         _______ _______ _______ _____ _____    ______ ____
ROOT
ATOM      1  C   LIG    1       -0.926  -0.771  -0.017  0.00  0.00    +0.282 C 
ENDROOT
BRANCH   1   2
ATOM      2  C   LIG    1        0.518  -0.366   0.105  0.00  0.00    +0.005 A 
ATOM      3  C   LIG    1        1.302  -0.779   1.165  0.00  0.00    +0.008 A 
ATOM      4  C   LIG    1        2.634  -0.405   1.277  0.00  0.00    +0.000 A 
ATOM      5  C   LIG    1        3.208   0.396   0.323  0.00  0.00    +0.000 A 
ATOM      6  C   LIG    1        2.447   0.822  -0.745  0.00  0.00    +0.000 A 
ATOM      7  C   LIG    1        1.120   0.441  -0.844  0.00  0.00    +0.008 A 
ENDBRANCH   1   2
BRANCH   1   8
ATOM      8  C   LIG    1       -1.097  -1.824  -1.003  0.00  0.00    -0.057 C 
ATOM      9  C   LIG    1       -1.224  -2.689  -1.812  0.00  0.00    +0.008 C 
ENDBRANCH   1   8
BRANCH   1  10
ATOM     10  O   LIG    1       -1.637   0.411  -0.373  0.00  0.00    -0.429 OA
BRANCH  10  13
ATOM     11  N   LIG    1       -3.235   2.126   0.121  0.00  0.00    -0.295 N 
ATOM     12  H   LIG    1       -3.419   2.862   0.815  0.00  0.00    +0.148 HD
ATOM     13  C   LIG    1       -2.551   0.957   0.505  0.00  0.00    +0.399 C 
ATOM     14  O   LIG    1       -2.716   0.369   1.604  0.00  0.00    -0.227 OA
ATOM     15  H   LIG    1       -3.550   2.244  -0.852  0.00  0.00    +0.148 HD
ENDBRANCH  10  13
ENDBRANCH   1  10
TORSDOF 4
