REMARK  Name = molecules/MUAOHYJGHYFDSA-PRWLTRJASA-N.pdb
REMARK                            x       y       z     vdW  Elec       q    Type
REMARK                         _______ _______ _______ _____ _____    ______ ____
ROOT
ATOM      1  C   LIG    1       -3.167  -3.139  -1.913  0.00  0.00    +0.136 C 
ATOM      2  C   LIG    1       -3.425  -2.004  -0.910  0.00  0.00    +0.155 C 
ATOM      3  C   LIG    1       -2.421  -2.133   0.189  0.00  0.00    +0.140 C 
ATOM      4  C   LIG    1       -2.308  -1.015   1.133  0.00  0.00    +0.064 C 
ATOM      5  C   LIG    1       -2.309   0.365   0.637  0.00  0.00    +0.128 C 
ATOM      6  C   LIG    1       -1.046   0.762  -0.085  0.00  0.00    +0.027 C 
ATOM      7  C   LIG    1       -0.577   1.997  -0.083  0.00  0.00    +0.002 C 
ATOM      8  C   LIG    1       -0.429   2.865   1.066  0.00  0.00    +0.000 C 
ATOM      9  C   LIG    1        0.218   2.594   2.196  0.00  0.00    +0.000 C 
ATOM     10  C   LIG    1        1.631   2.253   2.295  0.00  0.00    -0.000 C 
ATOM     11  C   LIG    1        2.612   2.658   1.514  0.00  0.00    -0.000 C 
ATOM     12  C   LIG    1        2.692   2.427   0.064  0.00  0.00    -0.000 C 
ATOM     13  C   LIG    1        2.689   1.276  -0.549  0.00  0.00    -0.000 C 
ATOM     14  C   LIG    1        3.626   0.134  -0.256  0.00  0.00    +0.048 C 
ATOM     15  C   LIG    1        4.996   0.418  -0.861  0.00  0.00    +0.177 C 
ATOM     16  O   LIG    1        5.683  -0.728  -1.245  0.00  0.00    -0.461 OA
ATOM     17  C   LIG    1        6.420  -1.571  -0.427  0.00  0.00    +0.312 C 
ATOM     18  C   LIG    1        5.965  -2.052   0.869  0.00  0.00    +0.118 C 
ATOM     19  C   LIG    1        4.757  -2.542   1.109  0.00  0.00    +0.041 C 
ATOM     20  C   LIG    1        4.050  -3.465   0.189  0.00  0.00    +0.152 C 
ATOM     21  C   LIG    1        3.151  -4.340   0.830  0.00  0.00    +0.150 C 
ATOM     22  C   LIG    1        2.017  -4.913   0.005  0.00  0.00    +0.065 C 
ATOM     23  C   LIG    1        1.201  -3.790  -0.599  0.00  0.00    +0.122 C 
ATOM     24  C   LIG    1       -0.003  -4.386  -1.297  0.00  0.00    +0.096 C 
ATOM     25  C   LIG    1       -1.226  -3.906  -0.591  0.00  0.00    +0.172 C 
ATOM     26  O   LIG    1        4.398  -4.901   0.487  0.00  0.00    -0.368 OA
ATOM     27  O   LIG    1        7.577  -1.963  -0.818  0.00  0.00    -0.250 OA
ATOM     28  O   LIG    1       -1.191  -2.527  -0.372  0.00  0.00    -0.344 OA
ATOM     29  C   LIG    1       -2.514  -4.317  -1.261  0.00  0.00    +0.097 C 
ENDROOT
BRANCH  25  30
ATOM     30  O   LIG    1       -1.228  -4.503   0.690  0.00  0.00    -0.364 OA
ATOM     31  H   LIG    1       -1.056  -5.466   0.624  0.00  0.00    +0.213 HD
ENDBRANCH  25  30
BRANCH  23  32
ATOM     32  O   LIG    1        1.892  -3.041  -1.520  0.00  0.00    -0.392 OA
ATOM     33  H   LIG    1        1.726  -3.398  -2.422  0.00  0.00    +0.210 HD
ENDBRANCH  23  32
BRANCH   2  34
ATOM     34  C   LIG    1       -4.761  -2.281  -0.344  0.00  0.00    +0.313 C 
ATOM     35  O   LIG    1       -5.693  -1.471  -0.471  0.00  0.00    -0.251 OA
BRANCH  34  36
ATOM     36  O   LIG    1       -4.972  -3.462   0.337  0.00  0.00    -0.480 OA
ATOM     37  H   LIG    1       -5.165  -3.518   1.327  0.00  0.00    +0.295 HD
ENDBRANCH  34  36
ENDBRANCH   2  34
BRANCH   1  38
ATOM     38  O   LIG    1       -4.378  -3.512  -2.487  0.00  0.00    -0.391 OA
ATOM     39  H   LIG    1       -4.556  -4.467  -2.276  0.00  0.00    +0.210 HD
ENDBRANCH   1  38
BRANCH  15  40
ATOM     40  C   LIG    1        5.787   1.370  -0.005  0.00  0.00    +0.044 C 
BRANCH  40  41
ATOM     41  C   LIG    1        7.126   1.648  -0.602  0.00  0.00    +0.003 C 
BRANCH  41  42
ATOM     42  C   LIG    1        7.846   2.623   0.340  0.00  0.00    -0.003 C 
ATOM     43  C   LIG    1        7.076   3.910   0.488  0.00  0.00    +0.004 C 
ENDBRANCH  41  42
ENDBRANCH  40  41
ENDBRANCH  15  40
BRANCH   5  44
ATOM     44  O   LIG    1       -3.382   0.779  -0.096  0.00  0.00    -0.345 OA
BRANCH  44  45
ATOM     45  C   LIG    1       -4.090   1.834   0.443  0.00  0.00    +0.281 C 
ATOM     46  O   LIG    1       -5.416   1.426   0.579  0.00  0.00    -0.343 OA
ATOM     47  C   LIG    1       -6.242   2.378   1.117  0.00  0.00    +0.148 C 
ATOM     48  C   LIG    1       -7.681   1.886   0.908  0.00  0.00    +0.041 C 
ATOM     49  C   LIG    1       -6.153   3.729   0.477  0.00  0.00    +0.162 C 
ATOM     50  C   LIG    1       -4.766   4.145   0.107  0.00  0.00    +0.116 C 
ATOM     51  C   LIG    1       -4.092   2.966  -0.565  0.00  0.00    +0.189 C 
BRANCH  50  52
ATOM     52  N   LIG    1       -4.886   5.244  -0.859  0.00  0.00    -0.323 NA
ATOM     53  H   LIG    1       -5.266   6.088  -0.422  0.00  0.00    +0.119 HD
ATOM     54  H   LIG    1       -3.993   5.388  -1.377  0.00  0.00    +0.119 HD
ENDBRANCH  50  52
BRANCH  49  55
ATOM     55  O   LIG    1       -6.742   4.658   1.316  0.00  0.00    -0.388 OA
ATOM     56  H   LIG    1       -7.506   5.092   0.905  0.00  0.00    +0.210 HD
ENDBRANCH  49  55
BRANCH  51  57
ATOM     57  O   LIG    1       -4.875   2.630  -1.669  0.00  0.00    -0.385 OA
ATOM     58  H   LIG    1       -4.544   3.092  -2.501  0.00  0.00    +0.210 HD
ENDBRANCH  51  57
ENDBRANCH  44  45
ENDBRANCH   5  44
TORSDOF 13
