REMARK  Name = molecules/MUNMIGOEDGHVLE-LGYYRGKSSA-N.pdb
REMARK                            x       y       z     vdW  Elec       q    Type
REMARK                         _______ _______ _______ _____ _____    ______ ____
ROOT
ATOM      1  C   LIG    1       -2.309  -2.310   0.878  0.00  0.00    +0.148 C 
ATOM      2  C   LIG    1       -1.398  -1.222   0.394  0.00  0.00    +0.109 C 
ATOM      3  S   LIG    1       -0.437  -1.897  -1.012  0.00  0.00    -0.091 S 
ATOM      4  S   LIG    1        1.586  -2.064  -0.387  0.00  0.00    -0.091 S 
ATOM      5  C   LIG    1        2.042  -0.501   0.452  0.00  0.00    +0.112 C 
ATOM      6  C   LIG    1        3.214   0.176  -0.185  0.00  0.00    +0.170 C 
ATOM      7  N   LIG    1        2.986   1.496  -0.692  0.00  0.00    -0.302 N 
ATOM      8  H   LIG    1        3.958   2.017  -0.826  0.00  0.00    +0.150 HD
ATOM      9  C   LIG    1        1.892   2.232  -1.071  0.00  0.00    +0.234 C 
ATOM     10  C   LIG    1        0.738   2.801  -0.270  0.00  0.00    +0.168 C 
ATOM     11  N   LIG    1       -0.475   2.153  -0.612  0.00  0.00    -0.302 N 
ATOM     12  C   LIG    1       -1.808   2.473  -0.765  0.00  0.00    +0.234 C 
ATOM     13  C   LIG    1       -2.877   2.799   0.206  0.00  0.00    +0.159 C 
ATOM     14  N   LIG    1       -2.936   1.903   1.341  0.00  0.00    -0.302 N 
ATOM     15  C   LIG    1       -4.122   1.601   1.998  0.00  0.00    +0.234 C 
ATOM     16  O   LIG    1       -4.170   1.658   3.269  0.00  0.00    -0.274 OA
ATOM     17  C   LIG    1       -5.364   1.206   1.301  0.00  0.00    +0.163 C 
ATOM     18  N   LIG    1       -5.783  -0.072   1.819  0.00  0.00    -0.302 N 
ATOM     19  H   LIG    1       -6.207  -0.060   2.792  0.00  0.00    +0.150 HD
ATOM     20  C   LIG    1       -5.672  -1.313   1.147  0.00  0.00    +0.234 C 
ATOM     21  O   LIG    1       -5.973  -2.354   1.776  0.00  0.00    -0.274 OA
ATOM     22  C   LIG    1       -5.222  -1.465  -0.255  0.00  0.00    +0.163 C 
ATOM     23  N   LIG    1       -4.452  -2.656  -0.502  0.00  0.00    -0.302 N 
ATOM     24  H   LIG    1       -4.948  -3.504  -0.846  0.00  0.00    +0.150 HD
ATOM     25  H   LIG    1       -2.025   1.466   1.656  0.00  0.00    +0.150 HD
ATOM     26  O   LIG    1       -2.264   2.503  -2.007  0.00  0.00    -0.274 OA
ATOM     27  H   LIG    1       -0.286   1.086  -0.875  0.00  0.00    +0.150 HD
ATOM     28  O   LIG    1        1.806   2.509  -2.351  0.00  0.00    -0.274 OA
ATOM     29  C   LIG    1       -3.060  -2.802  -0.315  0.00  0.00    +0.231 C 
ATOM     30  O   LIG    1       -2.326  -3.389  -1.188  0.00  0.00    -0.274 OA
ENDROOT
BRANCH   6  31
ATOM     31  C   LIG    1        3.608  -0.758  -1.317  0.00  0.00    +0.237 C 
ATOM     32  N   LIG    1        4.169  -2.021  -1.141  0.00  0.00    -0.288 N 
ATOM     33  C   LIG    1        4.645  -2.622   0.085  0.00  0.00    +0.162 C 
ATOM     34  C   LIG    1        4.496  -4.116  -0.106  0.00  0.00    +0.033 C 
ATOM     35  C   LIG    1        4.023  -4.294  -1.520  0.00  0.00    +0.021 C 
ATOM     36  C   LIG    1        4.460  -2.991  -2.185  0.00  0.00    +0.109 C 
ATOM     37  O   LIG    1        3.397  -0.328  -2.483  0.00  0.00    -0.274 OA
BRANCH  33  38
ATOM     38  C   LIG    1        6.137  -2.385   0.209  0.00  0.00    +0.234 C 
ATOM     39  O   LIG    1        6.746  -2.972   1.113  0.00  0.00    -0.274 OA
ATOM     40  N   LIG    1        6.809  -1.531  -0.672  0.00  0.00    -0.302 N 
ATOM     41  H   LIG    1        6.312  -1.026  -1.414  0.00  0.00    +0.150 HD
BRANCH  40  42
ATOM     42  C   LIG    1        8.259  -1.333  -0.536  0.00  0.00    +0.159 C 
BRANCH  42  43
ATOM     43  C   LIG    1        8.531   0.097  -0.225  0.00  0.00    +0.234 C 
ATOM     44  N   LIG    1        9.775   0.651   0.095  0.00  0.00    -0.305 N 
ATOM     45  H   LIG    1       10.641   0.101   0.160  0.00  0.00    +0.149 HD
ATOM     46  O   LIG    1        7.482   0.853  -0.268  0.00  0.00    -0.274 OA
BRANCH  44  47
ATOM     47  C   LIG    1        9.876   2.064   0.367  0.00  0.00    +0.199 C 
BRANCH  47  48
ATOM     48  C   LIG    1        9.021   2.422   1.533  0.00  0.00    +0.228 C 
ATOM     49  N   LIG    1        8.263   1.438   2.207  0.00  0.00    -0.328 N 
ATOM     50  H   LIG    1        7.373   1.737   2.702  0.00  0.00    +0.145 HD
ATOM     51  H   LIG    1        8.544   0.442   2.233  0.00  0.00    +0.145 HD
ATOM     52  O   LIG    1        8.972   3.635   1.933  0.00  0.00    -0.274 OA
ENDBRANCH  47  48
ENDBRANCH  44  47
ENDBRANCH  42  43
BRANCH  42  53
ATOM     53  C   LIG    1        8.877  -1.778  -1.853  0.00  0.00    +0.033 C 
BRANCH  53  54
ATOM     54  C   LIG    1       10.348  -1.685  -1.950  0.00  0.00    +0.017 C 
BRANCH  54  55
ATOM     55  C   LIG    1       11.075  -2.527  -0.918  0.00  0.00    +0.078 C 
BRANCH  55  56
ATOM     56  N   LIG    1       12.486  -2.333  -1.136  0.00  0.00    -0.330 NA
ATOM     57  H   LIG    1       12.854  -1.647  -0.458  0.00  0.00    +0.118 HD
ATOM     58  H   LIG    1       13.023  -3.225  -1.184  0.00  0.00    +0.118 HD
ENDBRANCH  55  56
ENDBRANCH  54  55
ENDBRANCH  53  54
ENDBRANCH  42  53
ENDBRANCH  40  42
ENDBRANCH  33  38
ENDBRANCH   6  31
BRANCH   1  59
ATOM     59  N   LIG    1       -1.436  -3.390   1.362  0.00  0.00    -0.319 NA
ATOM     60  H   LIG    1       -2.073  -4.137   1.718  0.00  0.00    +0.119 HD
ATOM     61  H   LIG    1       -0.915  -3.782   0.532  0.00  0.00    +0.119 HD
ENDBRANCH   1  59
BRANCH  17  62
ATOM     62  C   LIG    1       -6.425   2.237   1.599  0.00  0.00    +0.067 C 
BRANCH  62  63
ATOM     63  C   LIG    1       -7.683   1.819   0.944  0.00  0.00    -0.045 A 
ATOM     64  C   LIG    1       -8.612   1.059   1.608  0.00  0.00    +0.004 A 
ATOM     65  C   LIG    1       -9.799   0.661   0.997  0.00  0.00    +0.000 A 
ATOM     66  C   LIG    1      -10.080   1.021  -0.301  0.00  0.00    +0.000 A 
ATOM     67  C   LIG    1       -9.143   1.788  -0.972  0.00  0.00    +0.000 A 
ATOM     68  C   LIG    1       -7.968   2.181  -0.367  0.00  0.00    +0.004 A 
ENDBRANCH  62  63
ENDBRANCH  17  62
BRANCH  22  69
ATOM     69  C   LIG    1       -6.457  -1.451  -1.135  0.00  0.00    +0.067 C 
BRANCH  69  70
ATOM     70  C   LIG    1       -7.346  -2.605  -0.941  0.00  0.00    -0.045 A 
ATOM     71  C   LIG    1       -8.316  -2.701   0.039  0.00  0.00    +0.007 A 
ATOM     72  C   LIG    1       -9.107  -3.837   0.172  0.00  0.00    +0.045 A 
ATOM     73  C   LIG    1       -8.956  -4.912  -0.669  0.00  0.00    +0.117 A 
ATOM     74  C   LIG    1       -8.006  -4.843  -1.646  0.00  0.00    +0.045 A 
ATOM     75  C   LIG    1       -7.224  -3.705  -1.768  0.00  0.00    +0.007 A 
BRANCH  73  76
ATOM     76  O   LIG    1       -9.732  -6.057  -0.559  0.00  0.00    -0.507 OA
ATOM     77  H   LIG    1      -10.595  -6.186  -1.034  0.00  0.00    +0.292 HD
ENDBRANCH  73  76
ENDBRANCH  69  70
ENDBRANCH  22  69
BRANCH  13  78
ATOM     78  C   LIG    1       -2.991   4.253   0.547  0.00  0.00    +0.041 C 
BRANCH  78  79
ATOM     79  C   LIG    1       -2.917   5.107  -0.716  0.00  0.00    +0.098 C 
BRANCH  79  80
ATOM     80  C   LIG    1       -3.027   6.535  -0.395  0.00  0.00    +0.211 C 
ATOM     81  O   LIG    1       -3.128   6.941   0.783  0.00  0.00    -0.276 OA
ATOM     82  N   LIG    1       -3.017   7.485  -1.461  0.00  0.00    -0.329 N 
ATOM     83  H   LIG    1       -2.755   8.461  -1.250  0.00  0.00    +0.145 HD
ATOM     84  H   LIG    1       -3.267   7.177  -2.412  0.00  0.00    +0.145 HD
ENDBRANCH  79  80
ENDBRANCH  78  79
ENDBRANCH  13  78
BRANCH  10  85
ATOM     85  C   LIG    1        1.167   2.972   1.130  0.00  0.00    +0.127 C 
BRANCH  85  86
ATOM     86  C   LIG    1        0.287   3.770   2.015  0.00  0.00    +0.213 C 
ATOM     87  O   LIG    1       -0.525   3.312   2.835  0.00  0.00    -0.276 OA
ATOM     88  N   LIG    1        0.356   5.210   1.944  0.00  0.00    -0.329 N 
ATOM     89  H   LIG    1       -0.437   5.817   2.231  0.00  0.00    +0.145 HD
ATOM     90  H   LIG    1        1.232   5.680   1.592  0.00  0.00    +0.145 HD
ENDBRANCH  85  86
ENDBRANCH  10  85
TORSDOF 21
