REMARK  Name = molecules/MUQNGPZZQDCDFT-JNQJZLCISA-N.pdb
REMARK                            x       y       z     vdW  Elec       q    Type
REMARK                         _______ _______ _______ _____ _____    ______ ____
ROOT
ATOM      1  C   LIG    1        2.544  -0.446   0.183  0.00  0.00    +0.163 C 
ATOM      2  C   LIG    1        1.106  -0.242   0.540  0.00  0.00    +0.012 C 
ATOM      3  C   LIG    1        0.703  -0.930   1.799  0.00  0.00    +0.015 C 
ATOM      4  C   LIG    1        0.677   1.207   0.641  0.00  0.00    +0.044 C 
ATOM      5  C   LIG    1       -0.804   1.397   0.616  0.00  0.00    +0.153 C 
ATOM      6  C   LIG    1       -1.596   0.443  -0.169  0.00  0.00    +0.149 C 
ATOM      7  C   LIG    1       -3.054   0.323   0.220  0.00  0.00    +0.026 C 
ATOM      8  C   LIG    1       -3.271  -0.447   1.507  0.00  0.00    +0.019 C 
ATOM      9  C   LIG    1       -3.772   1.619   0.346  0.00  0.00    +0.022 C 
ATOM     10  C   LIG    1       -4.209   2.276  -0.916  0.00  0.00    +0.080 C 
ATOM     11  C   LIG    1       -5.052   1.321  -1.693  0.00  0.00    +0.156 C 
ATOM     12  C   LIG    1       -4.555  -0.060  -1.711  0.00  0.00    +0.046 C 
ATOM     13  O   LIG    1       -6.077   1.726  -2.256  0.00  0.00    -0.293 OA
ATOM     14  C   LIG    1       -3.668  -0.500  -0.864  0.00  0.00    -0.057 C 
ATOM     15  C   LIG    1       -3.167  -1.903  -0.990  0.00  0.00    +0.032 C 
ATOM     16  C   LIG    1       -1.707  -1.710  -1.429  0.00  0.00    +0.011 C 
ATOM     17  C   LIG    1       -1.025  -0.953  -0.300  0.00  0.00    +0.034 C 
ATOM     18  F   LIG    1       -1.650   0.895  -1.510  0.00  0.00    -0.238 F 
ATOM     19  C   LIG    1        0.400  -0.723  -0.706  0.00  0.00    +0.007 C 
ATOM     20  C   LIG    1        1.208  -1.853  -1.161  0.00  0.00    +0.039 C 
ATOM     21  O   LIG    1        3.228   0.728  -0.049  0.00  0.00    -0.332 OA
ATOM     22  C   LIG    1        3.562   0.724  -1.395  0.00  0.00    +0.166 C 
ATOM     23  C   LIG    1        4.926   0.126  -1.673  0.00  0.00    +0.074 C 
ATOM     24  C   LIG    1        3.565   2.118  -1.917  0.00  0.00    +0.074 C 
ATOM     25  O   LIG    1        2.622  -0.115  -2.030  0.00  0.00    -0.343 OA
ATOM     26  C   LIG    1        2.590  -1.178  -1.160  0.00  0.00    +0.162 C 
ENDROOT
BRANCH   1  27
ATOM     27  C   LIG    1        3.186  -1.355   1.160  0.00  0.00    +0.182 C 
ATOM     28  O   LIG    1        2.671  -2.444   1.360  0.00  0.00    -0.293 OA
BRANCH  27  29
ATOM     29  C   LIG    1        4.415  -1.060   1.934  0.00  0.00    +0.186 C 
ATOM     30 CL   LIG    1        5.735  -2.073   1.285  0.00  0.00    -0.117 Cl
ENDBRANCH  27  29
ENDBRANCH   1  27
BRANCH   5  31
ATOM     31  O   LIG    1       -1.234   1.609   1.927  0.00  0.00    -0.389 OA
ATOM     32  H   LIG    1       -1.078   2.543   2.219  0.00  0.00    +0.210 HD
ENDBRANCH   5  31
TORSDOF 3
