REMARK  Name = molecules/MVGSNCBCUWPVDA-MFOYZWKCSA-N.pdb
REMARK                            x       y       z     vdW  Elec       q    Type
REMARK                         _______ _______ _______ _____ _____    ______ ____
ROOT
ATOM      1  C   LIG    1       -3.273  -0.101   0.262  0.00  0.00    -0.040 C 
ATOM      2  C   LIG    1       -2.535   0.950   0.487  0.00  0.00    -0.045 C 
ATOM      3  C   LIG    1       -2.938   2.309   0.939  0.00  0.00    +0.044 C 
ATOM      4  C   LIG    1       -1.127   0.551   0.215  0.00  0.00    -0.032 C 
ATOM      5  C   LIG    1       -1.107  -0.830  -0.192  0.00  0.00    -0.028 C 
ATOM      6  C   LIG    1       -0.085  -1.660  -0.544  0.00  0.00    +0.008 C 
ATOM      7  C   LIG    1       -0.390  -2.977  -0.894  0.00  0.00    +0.038 C 
ATOM      8  C   LIG    1       -1.693  -3.420  -0.880  0.00  0.00    +0.121 C 
ATOM      9  C   LIG    1       -2.699  -2.552  -0.517  0.00  0.00    +0.028 C 
ATOM     10  F   LIG    1       -1.965  -4.717  -1.228  0.00  0.00    -0.206 F 
ATOM     11  C   LIG    1       -2.418  -1.246  -0.169  0.00  0.00    +0.056 C 
ENDROOT
BRANCH   1  12
ATOM     12  C   LIG    1       -4.733  -0.278   0.382  0.00  0.00    +0.152 C 
BRANCH  12  13
ATOM     13  C   LIG    1       -5.483   0.853   0.930  0.00  0.00    +0.309 C 
ATOM     14  O   LIG    1       -5.383   1.175   2.162  0.00  0.00    -0.251 OA
BRANCH  13  15
ATOM     15  O   LIG    1       -6.327   1.608   0.126  0.00  0.00    -0.480 OA
ATOM     16  H   LIG    1       -6.665   2.539   0.367  0.00  0.00    +0.295 HD
ENDBRANCH  13  15
ENDBRANCH  12  13
ENDBRANCH   1  12
BRANCH   4  17
ATOM     17  C   LIG    1       -0.094   1.332   0.342  0.00  0.00    +0.061 C 
BRANCH  17  18
ATOM     18  C   LIG    1        1.280   1.001   0.094  0.00  0.00    -0.039 A 
ATOM     19  C   LIG    1        2.112   0.564   1.120  0.00  0.00    +0.006 A 
ATOM     20  C   LIG    1        3.446   0.285   0.907  0.00  0.00    +0.027 A 
ATOM     21  C   LIG    1        3.958   0.447  -0.365  0.00  0.00    +0.088 A 
ATOM     22  C   LIG    1        3.136   0.875  -1.372  0.00  0.00    +0.027 A 
ATOM     23  C   LIG    1        1.799   1.158  -1.172  0.00  0.00    +0.006 A 
BRANCH  21  24
ATOM     24  S   LIG    1        5.631   0.129  -0.744  0.00  0.00    -0.006 S 
ATOM     25  C   LIG    1        6.562  -0.417   0.650  0.00  0.00    +0.200 C 
ATOM     26  O   LIG    1        6.222   1.427  -1.247  0.00  0.00    -0.170 OA
ATOM     27  O   LIG    1        5.720  -0.926  -1.797  0.00  0.00    -0.170 OA
ENDBRANCH  21  24
ENDBRANCH  17  18
ENDBRANCH   4  17
TORSDOF 6
