REMARK  Name = molecules/MVMQESMQSYOVGV-HNNXBMFYSA-N.pdb
REMARK                            x       y       z     vdW  Elec       q    Type
REMARK                         _______ _______ _______ _____ _____    ______ ____
ROOT
ATOM      1  C   LIG    1       -0.884   1.001   0.046  0.00  0.00    -0.032 C 
ATOM      2  C   LIG    1       -0.855   2.476   0.206  0.00  0.00    -0.018 A 
ATOM      3  C   LIG    1       -1.823   3.417   0.485  0.00  0.00    +0.008 A 
ATOM      4  C   LIG    1       -1.528   4.755   0.602  0.00  0.00    +0.001 A 
ATOM      5  C   LIG    1       -0.241   5.183   0.440  0.00  0.00    +0.000 A 
ATOM      6  C   LIG    1        0.754   4.273   0.161  0.00  0.00    +0.004 A 
ATOM      7  C   LIG    1        0.408   2.932   0.052  0.00  0.00    -0.036 A 
ATOM      8  C   LIG    1        1.268   1.796  -0.245  0.00  0.00    +0.066 C 
ATOM      9  C   LIG    1        0.341   0.599  -0.194  0.00  0.00    -0.060 C 
ENDROOT
BRANCH   1  10
ATOM     10  C   LIG    1       -2.161   0.271   0.204  0.00  0.00    +0.065 C 
ATOM     11  C   LIG    1       -3.230   0.833  -0.746  0.00  0.00    +0.019 C 
BRANCH  10  12
ATOM     12  C   LIG    1       -2.119  -1.170   0.149  0.00  0.00    +0.048 A 
ATOM     13  N   LIG    1       -1.984  -1.886   1.276  0.00  0.00    -0.259 NA
ATOM     14  C   LIG    1       -1.960  -3.228   1.229  0.00  0.00    +0.111 A 
ATOM     15  C   LIG    1       -2.071  -3.927   0.047  0.00  0.00    +0.020 A 
ATOM     16  C   LIG    1       -2.211  -3.233  -1.134  0.00  0.00    +0.003 A 
ATOM     17  C   LIG    1       -2.232  -1.839  -1.052  0.00  0.00    +0.024 A 
ENDBRANCH  10  12
ENDBRANCH   1  10
BRANCH   9  18
ATOM     18  C   LIG    1        0.918  -0.728  -0.396  0.00  0.00    +0.046 C 
BRANCH  18  19
ATOM     19  C   LIG    1        2.052  -0.873   0.654  0.00  0.00    +0.088 C 
BRANCH  19  20
ATOM     20  N   LIG    1        2.663  -2.202   0.496  0.00  0.00    -0.308 NA
ATOM     21  C   LIG    1        3.712  -2.292   1.492  0.00  0.00    +0.104 C 
ATOM     22  C   LIG    1        3.346  -2.186  -0.807  0.00  0.00    +0.104 C 
ENDBRANCH  19  20
ENDBRANCH  18  19
ENDBRANCH   9  18
TORSDOF 5
