REMARK  Name = molecules/MVQVNTPHUGQQHK-UHFFFAOYSA-N.pdb
REMARK                            x       y       z     vdW  Elec       q    Type
REMARK                         _______ _______ _______ _____ _____    ______ ____
ROOT
ATOM      1  C   LIG    1       -0.436   0.110  -0.191  0.00  0.00    -0.004 A 
ATOM      2  C   LIG    1        0.113   1.354   0.053  0.00  0.00    +0.116 A 
ATOM      3  N   LIG    1        1.457   1.480   0.236  0.00  0.00    -0.263 NA
ATOM      4  C   LIG    1        2.256   0.404   0.183  0.00  0.00    +0.111 A 
ATOM      5  C   LIG    1        1.775  -0.866  -0.056  0.00  0.00    +0.020 A 
ATOM      6  C   LIG    1        0.400  -0.983  -0.241  0.00  0.00    +0.009 A 
ENDROOT
BRANCH   1   7
ATOM      7  C   LIG    1       -1.889  -0.099  -0.398  0.00  0.00    +0.192 C 
BRANCH   7   8
ATOM      8  O   LIG    1       -2.448  -0.384   0.860  0.00  0.00    -0.390 OA
ATOM      9  H   LIG    1       -2.067   0.222   1.526  0.00  0.00    +0.210 HD
ENDBRANCH   7   8
ENDBRANCH   1   7
TORSDOF 2
