REMARK  Name = molecules/MVRHVFSOIWFBTE-INIZCTEOSA-N.pdb
REMARK                            x       y       z     vdW  Elec       q    Type
REMARK                         _______ _______ _______ _____ _____    ______ ____
ROOT
ATOM      1  C   LIG    1       -0.810   0.348  -0.284  0.00  0.00    +0.136 A 
ATOM      2  N   LIG    1        0.395   0.015   0.294  0.00  0.00    -0.212 NA
ATOM      3  C   LIG    1        1.191  -0.964  -0.102  0.00  0.00    +0.156 A 
ATOM      4  C   LIG    1        0.833  -1.756  -1.187  0.00  0.00    +0.049 A 
ATOM      5  C   LIG    1       -0.367  -1.459  -1.796  0.00  0.00    +0.020 A 
ATOM      6  C   LIG    1       -1.192  -0.412  -1.350  0.00  0.00    +0.078 A 
ENDROOT
BRANCH   1   7
ATOM      7  N   LIG    1       -1.494   1.462   0.239  0.00  0.00    -0.309 N 
ATOM      8  C   LIG    1       -2.711   1.730   0.905  0.00  0.00    +0.110 C 
ATOM      9  C   LIG    1       -2.424   2.918   1.833  0.00  0.00    +0.005 C 
ATOM     10  C   LIG    1       -2.784   2.632   3.253  0.00  0.00    +0.009 C 
ATOM     11  C   LIG    1       -0.947   3.188   1.623  0.00  0.00    +0.030 C 
ATOM     12  C   LIG    1       -0.855   2.802   0.139  0.00  0.00    +0.031 C 
ATOM     13  C   LIG    1        0.553   2.736  -0.334  0.00  0.00    +0.031 C 
ATOM     14  C   LIG    1       -1.686   3.731  -0.667  0.00  0.00    +0.031 C 
ENDBRANCH   1   7
BRANCH   3  15
ATOM     15  N   LIG    1        2.429  -1.267   0.555  0.00  0.00    -0.218 N 
ATOM     16  C   LIG    1        2.538  -2.136   1.595  0.00  0.00    +0.120 A 
ATOM     17  C   LIG    1        3.844  -2.173   1.972  0.00  0.00    +0.088 A 
ATOM     18  C   LIG    1        4.533  -1.300   1.130  0.00  0.00    +0.234 A 
ATOM     19  N   LIG    1        3.615  -0.781   0.292  0.00  0.00    -0.127 NA
BRANCH  18  20
ATOM     20  O   LIG    1        5.885  -1.013   1.143  0.00  0.00    -0.475 OA
BRANCH  20  21
ATOM     21  C   LIG    1        6.491  -0.117   0.256  0.00  0.00    +0.246 C 
BRANCH  21  22
ATOM     22  C   LIG    1        7.990  -0.005   0.519  0.00  0.00    +0.094 C 
ATOM     23  C   LIG    1        8.188   0.401   1.951  0.00  0.00    +0.023 C 
ATOM     24  C   LIG    1        8.639   0.997  -0.387  0.00  0.00    +0.023 C 
BRANCH  22  25
ATOM     25  C   LIG    1        8.587  -1.390   0.332  0.00  0.00    +0.398 C 
ATOM     26  F   LIG    1        7.982  -2.250   1.236  0.00  0.00    -0.170 F 
ATOM     27  F   LIG    1        9.942  -1.321   0.594  0.00  0.00    -0.170 F 
ATOM     28  F   LIG    1        8.384  -1.823  -0.953  0.00  0.00    -0.170 F 
ENDBRANCH  22  25
ENDBRANCH  21  22
ENDBRANCH  20  21
ENDBRANCH  18  20
ENDBRANCH   3  15
BRANCH   6  29
ATOM     29  C   LIG    1       -2.442  -0.283  -2.035  0.00  0.00    +0.266 C 
ATOM     30  N   LIG    1       -3.672  -0.282  -1.366  0.00  0.00    -0.181 N 
ATOM     31  H   LIG    1       -3.690  -0.430  -0.332  0.00  0.00    +0.177 HD
ATOM     32  O   LIG    1       -2.444  -0.173  -3.292  0.00  0.00    -0.268 OA
BRANCH  30  33
ATOM     33  S   LIG    1       -5.215  -0.114  -2.133  0.00  0.00    +0.078 S 
ATOM     34  O   LIG    1       -5.916   1.131  -1.724  0.00  0.00    -0.150 OA
ATOM     35  O   LIG    1       -5.074  -0.218  -3.620  0.00  0.00    -0.150 OA
BRANCH  33  36
ATOM     36  C   LIG    1       -6.186  -1.482  -1.597  0.00  0.00    +0.149 A 
ATOM     37  C   LIG    1       -7.359  -1.496  -0.888  0.00  0.00    +0.137 A 
ATOM     38  N   LIG    1       -7.750  -2.753  -0.687  0.00  0.00    -0.272 N 
ATOM     39  C   LIG    1       -8.944  -3.217   0.023  0.00  0.00    +0.172 C 
ATOM     40  N   LIG    1       -6.845  -3.533  -1.257  0.00  0.00    -0.175 NA
ATOM     41  C   LIG    1       -5.864  -2.815  -1.830  0.00  0.00    +0.086 A 
ATOM     42  C   LIG    1       -4.702  -3.361  -2.551  0.00  0.00    +0.069 C 
ENDBRANCH  33  36
ENDBRANCH  30  33
ENDBRANCH   6  29
TORSDOF 9
