REMARK  Name = molecules/MWTBKTRZPHJQLH-UHFFFAOYSA-N.pdb
REMARK                            x       y       z     vdW  Elec       q    Type
REMARK                         _______ _______ _______ _____ _____    ______ ____
ROOT
ATOM      1  C   LIG    1       -2.746   1.968  -1.110  0.00  0.00    +0.101 A 
ATOM      2  C   LIG    1       -1.974   2.996  -0.633  0.00  0.00    +0.142 A 
ATOM      3  N   LIG    1       -1.020   2.438   0.099  0.00  0.00    -0.235 NA
ATOM      4  C   LIG    1       -1.157   1.131   0.102  0.00  0.00    +0.142 A 
ATOM      5  C   LIG    1       -0.225   0.211   0.808  0.00  0.00    +0.024 C 
ATOM      6  C   LIG    1       -0.674  -1.141   1.193  0.00  0.00    -0.011 A 
ATOM      7  C   LIG    1       -0.273  -1.463   2.454  0.00  0.00    +0.009 A 
ATOM      8  C   LIG    1       -0.600  -2.725   2.966  0.00  0.00    +0.001 A 
ATOM      9  C   LIG    1       -1.317  -3.572   2.150  0.00  0.00    +0.000 A 
ATOM     10  C   LIG    1       -1.729  -3.242   0.861  0.00  0.00    +0.004 A 
ATOM     11  C   LIG    1       -1.407  -2.020   0.380  0.00  0.00    -0.038 A 
ATOM     12  C   LIG    1       -1.918  -1.684  -1.000  0.00  0.00    +0.057 C 
ATOM     13  C   LIG    1       -2.831  -0.498  -0.958  0.00  0.00    +0.128 C 
ATOM     14  C   LIG    1        0.968   0.541   1.131  0.00  0.00    -0.056 C 
ATOM     15  C   LIG    1        2.032  -0.399   1.640  0.00  0.00    +0.047 C 
ATOM     16  C   LIG    1        3.259  -0.005   0.752  0.00  0.00    +0.088 C 
ATOM     17  N   LIG    1        2.801   0.448  -0.536  0.00  0.00    -0.305 NA
ATOM     18  C   LIG    1        2.308   1.829  -0.464  0.00  0.00    +0.088 C 
ATOM     19  C   LIG    1        3.864   0.415  -1.499  0.00  0.00    +0.104 C 
ATOM     20  C   LIG    1        1.534   1.885   0.851  0.00  0.00    +0.047 C 
ATOM     21  N   LIG    1       -2.247   0.771  -0.656  0.00  0.00    -0.321 N 
ENDROOT
BRANCH   1  22
ATOM     22  C   LIG    1       -3.915   2.106  -1.964  0.00  0.00    +0.278 C 
ATOM     23  O   LIG    1       -4.274   3.256  -2.314  0.00  0.00    -0.294 OA
ENDBRANCH   1  22
TORSDOF 1
