REMARK  Name = molecules/MXQKCNCLQIHHJA-UHFFFAOYSA-N.pdb
REMARK                            x       y       z     vdW  Elec       q    Type
REMARK                         _______ _______ _______ _____ _____    ______ ____
ROOT
ATOM      1  C   LIG    1       -4.421   0.395   0.985  0.00  0.00    +0.159 A 
ATOM      2  C   LIG    1       -3.416   0.469   1.944  0.00  0.00    +0.159 A 
ATOM      3  C   LIG    1       -2.104   0.370   1.549  0.00  0.00    +0.059 A 
ATOM      4  C   LIG    1       -1.742   0.203   0.251  0.00  0.00    +0.007 A 
ATOM      5  C   LIG    1       -0.396   0.113  -0.062  0.00  0.00    +0.053 A 
ATOM      6  N   LIG    1       -0.097  -0.053  -1.365  0.00  0.00    -0.259 NA
ATOM      7  C   LIG    1       -1.008  -0.132  -2.334  0.00  0.00    +0.111 A 
ATOM      8  C   LIG    1       -2.349  -0.042  -2.024  0.00  0.00    +0.028 A 
ATOM      9  C   LIG    1       -2.724   0.128  -0.706  0.00  0.00    -0.011 A 
ATOM     10  C   LIG    1       -4.054   0.226  -0.317  0.00  0.00    +0.057 A 
ENDROOT
BRANCH   1  11
ATOM     11  O   LIG    1       -5.745   0.495   1.395  0.00  0.00    -0.503 OA
ATOM     12  H   LIG    1       -6.453   0.438   0.673  0.00  0.00    +0.292 HD
ENDBRANCH   1  11
BRANCH   2  13
ATOM     13  O   LIG    1       -3.772   0.638   3.261  0.00  0.00    -0.503 OA
ATOM     14  H   LIG    1       -3.068   0.693   3.958  0.00  0.00    +0.292 HD
ENDBRANCH   2  13
BRANCH   5  15
ATOM     15  C   LIG    1        0.598   0.199   1.000  0.00  0.00    +0.091 C 
BRANCH  15  16
ATOM     16  C   LIG    1        1.955   0.071   0.364  0.00  0.00    -0.038 A 
ATOM     17  C   LIG    1        2.568  -1.152   0.193  0.00  0.00    +0.053 A 
ATOM     18  C   LIG    1        3.829  -1.209  -0.405  0.00  0.00    +0.158 A 
ATOM     19  C   LIG    1        4.481  -0.081  -0.828  0.00  0.00    +0.158 A 
ATOM     20  C   LIG    1        3.873   1.137  -0.659  0.00  0.00    +0.049 A 
ATOM     21  C   LIG    1        2.638   1.198  -0.074  0.00  0.00    +0.008 A 
BRANCH  18  22
ATOM     22  O   LIG    1        4.409  -2.457  -0.557  0.00  0.00    -0.503 OA
ATOM     23  H   LIG    1        5.315  -2.547  -0.982  0.00  0.00    +0.292 HD
ENDBRANCH  18  22
BRANCH  19  24
ATOM     24  O   LIG    1        5.740  -0.211  -1.418  0.00  0.00    -0.503 OA
ATOM     25  H   LIG    1        6.268   0.582  -1.749  0.00  0.00    +0.292 HD
ENDBRANCH  19  24
ENDBRANCH  15  16
ENDBRANCH   5  15
TORSDOF 6
