REMARK  Name = molecules/MXRGZXBFSKSZPH-LURJTMIESA-N.pdb
REMARK                            x       y       z     vdW  Elec       q    Type
REMARK                         _______ _______ _______ _____ _____    ______ ____
ROOT
ATOM      1  O   LIG    1       -0.059  -2.091   0.211  0.00  0.00    -0.265 OA
ATOM      2  C   LIG    1       -0.309  -0.858   0.249  0.00  0.00    +0.282 A 
ATOM      3  N   LIG    1        0.654   0.049   0.466  0.00  0.00    -0.257 N 
ATOM      4  C   LIG    1        0.315   1.345   0.492  0.00  0.00    +0.333 A 
ATOM      5  O   LIG    1        1.211   2.196   0.695  0.00  0.00    -0.246 OA
ATOM      6  N   LIG    1       -0.947   1.774   0.312  0.00  0.00    -0.280 N 
ATOM      7  C   LIG    1       -1.214   3.197   0.358  0.00  0.00    +0.155 C 
ATOM      8  C   LIG    1       -1.935   0.887   0.092  0.00  0.00    +0.168 A 
ATOM      9  N   LIG    1       -3.263   0.984  -0.121  0.00  0.00    -0.218 NA
ATOM     10  C   LIG    1       -3.809  -0.241  -0.289  0.00  0.00    +0.202 A 
ATOM     11  N   LIG    1       -2.794  -1.115  -0.178  0.00  0.00    -0.328 N 
ATOM     12  C   LIG    1       -2.958  -2.550  -0.296  0.00  0.00    +0.150 C 
ATOM     13  C   LIG    1       -1.641  -0.467   0.054  0.00  0.00    +0.151 A 
ENDROOT
BRANCH   3  14
ATOM     14  C   LIG    1        2.028  -0.331   0.668  0.00  0.00    +0.161 C 
BRANCH  14  15
ATOM     15  C   LIG    1        2.806  -0.396  -0.627  0.00  0.00    +0.131 C 
ATOM     16  C   LIG    1        4.228  -0.802  -0.300  0.00  0.00    +0.039 C 
BRANCH  15  17
ATOM     17  O   LIG    1        2.802   0.802  -1.308  0.00  0.00    -0.390 OA
ATOM     18  H   LIG    1        1.953   0.956  -1.786  0.00  0.00    +0.210 HD
ENDBRANCH  15  17
ENDBRANCH  14  15
ENDBRANCH   3  14
TORSDOF 3
