REMARK  Name = molecules/MXUNKHLAEDCYJL-JTQLQIEISA-N.pdb
REMARK                            x       y       z     vdW  Elec       q    Type
REMARK                         _______ _______ _______ _____ _____    ______ ____
ROOT
ATOM      1  N   LIG    1       -0.743  -0.283  -0.046  0.00  0.00    -0.234 N 
ATOM      2  C   LIG    1       -1.652   0.595   0.666  0.00  0.00    +0.164 C 
ATOM      3  C   LIG    1       -2.979   0.095   0.267  0.00  0.00    +0.221 C 
ATOM      4  O   LIG    1       -2.780  -0.514  -1.012  0.00  0.00    -0.443 OA
ATOM      5  C   LIG    1       -1.459  -0.889  -1.131  0.00  0.00    +0.408 C 
ATOM      6  O   LIG    1       -0.993  -1.624  -2.028  0.00  0.00    -0.226 OA
ENDROOT
BRANCH   1  13
ATOM      7  C   LIG    1        1.645   0.324  -0.030  0.00  0.00    +0.027 A 
ATOM      8  C   LIG    1        2.976   0.040   0.188  0.00  0.00    -0.049 A 
ATOM      9  C   LIG    1        3.311  -1.216   0.645  0.00  0.00    +0.003 A 
ATOM     10  C   LIG    1        2.300  -2.145   0.868  0.00  0.00    +0.002 A 
ATOM     11  C   LIG    1        0.970  -1.848   0.645  0.00  0.00    +0.023 A 
ATOM     12  C   LIG    1        4.047   1.051  -0.057  0.00  0.00    +0.044 C 
ATOM     13  C   LIG    1        0.629  -0.582   0.184  0.00  0.00    +0.040 A 
ENDBRANCH   1  13
BRANCH   3  14
ATOM     14  C   LIG    1       -4.091   1.054   0.172  0.00  0.00    +0.202 C 
BRANCH  14  15
ATOM     15  O   LIG    1       -3.956   2.091  -0.706  0.00  0.00    -0.391 OA
ATOM     16  H   LIG    1       -3.182   2.674  -0.568  0.00  0.00    +0.210 HD
ENDBRANCH  14  15
ENDBRANCH   3  14
TORSDOF 3
