REMARK  Name = molecules/MXVLJFCCQMXEEE-UHFFFAOYSA-N.pdb
REMARK                            x       y       z     vdW  Elec       q    Type
REMARK                         _______ _______ _______ _____ _____    ______ ____
ROOT
ATOM      1  C   LIG    1       -0.789   0.762  -0.534  0.00  0.00    +0.127 A 
ATOM      2  C   LIG    1       -1.006  -0.597  -0.501  0.00  0.00    +0.091 A 
ATOM      3  C   LIG    1       -2.272  -1.161  -0.434  0.00  0.00    +0.127 A 
ATOM      4  C   LIG    1       -3.326  -0.285  -0.402  0.00  0.00    +0.091 A 
ATOM      5  C   LIG    1       -3.144   1.109  -0.435  0.00  0.00    +0.127 A 
ATOM      6  C   LIG    1       -1.894   1.644  -0.501  0.00  0.00    +0.091 A 
ENDROOT
BRANCH   1   7
ATOM      7  O   LIG    1        0.425   1.365  -0.601  0.00  0.00    -0.490 OA
BRANCH   7   8
ATOM      8  C   LIG    1        1.726   0.919  -0.625  0.00  0.00    +0.244 C 
BRANCH   8   9
ATOM      9  C   LIG    1        2.108   0.228   0.634  0.00  0.00    +0.125 C 
BRANCH   9  10
ATOM     10  N   LIG    1        3.469  -0.252   0.644  0.00  0.00    -0.295 NA
ATOM     11  C   LIG    1        4.413   0.803   0.712  0.00  0.00    +0.112 C 
ATOM     12  C   LIG    1        5.708   0.601   0.025  0.00  0.00    +0.175 C 
ATOM     13  O   LIG    1        5.860  -0.541  -0.714  0.00  0.00    -0.377 OA
ATOM     14  C   LIG    1        5.217  -1.651  -0.156  0.00  0.00    +0.175 C 
ATOM     15  C   LIG    1        3.729  -1.317  -0.258  0.00  0.00    +0.112 C 
ENDBRANCH   9  10
ENDBRANCH   8   9
ENDBRANCH   7   8
ENDBRANCH   1   7
BRANCH   5  16
ATOM     16  O   LIG    1       -4.246   1.935  -0.398  0.00  0.00    -0.492 OA
BRANCH  16  17
ATOM     17  C   LIG    1       -4.126   3.324  -0.402  0.00  0.00    +0.225 C 
ATOM     18  C   LIG    1       -3.392   3.766   0.840  0.00  0.00    +0.048 C 
ENDBRANCH  16  17
ENDBRANCH   5  16
BRANCH   3  19
ATOM     19  O   LIG    1       -2.462  -2.533  -0.402  0.00  0.00    -0.492 OA
BRANCH  19  20
ATOM     20  C   LIG    1       -3.776  -3.028  -0.334  0.00  0.00    +0.225 C 
ATOM     21  C   LIG    1       -3.827  -4.533  -0.306  0.00  0.00    +0.048 C 
ENDBRANCH  19  20
ENDBRANCH   3  19
TORSDOF 8
