REMARK  Name = molecules/MXWHMTNPTTVWDM-NXOFHUPFSA-N.pdb
REMARK                            x       y       z     vdW  Elec       q    Type
REMARK                         _______ _______ _______ _____ _____    ______ ____
ROOT
ATOM      1  C   LIG    1       -0.622  -0.596   0.406  0.00  0.00    +0.094 C 
ATOM      2  C   LIG    1       -1.401  -1.592   1.181  0.00  0.00    +0.070 C 
ATOM      3  N   LIG    1       -1.186   0.509   0.056  0.00  0.00    -0.115 NA
ENDROOT
BRANCH   3   4
ATOM      4  N   LIG    1       -2.511   0.799   0.385  0.00  0.00    -0.155 N 
ATOM      5  H   LIG    1       -2.740   0.901   1.398  0.00  0.00    +0.292 HD
BRANCH   4   6
ATOM      6  C   LIG    1       -3.543   0.958  -0.577  0.00  0.00    +0.400 C 
ATOM      7  N   LIG    1       -4.335  -0.180  -0.886  0.00  0.00    -0.288 N 
ATOM      8  H   LIG    1       -5.201  -0.441  -0.380  0.00  0.00    +0.255 HD
ATOM      9  H   LIG    1       -4.015  -0.783  -1.672  0.00  0.00    +0.255 HD
BRANCH   6  10
ATOM     10  N   LIG    1       -3.762   2.097  -1.156  0.00  0.00    -0.128 NA
ATOM     11  H   LIG    1       -3.157   2.898  -0.898  0.00  0.00    +0.306 HD
ENDBRANCH   6  10
ENDBRANCH   4   6
ENDBRANCH   3   4
BRANCH   1  12
ATOM     12  C   LIG    1        0.765  -0.866   0.045  0.00  0.00    +0.174 C 
ATOM     13  N   LIG    1        1.467  -0.019  -0.629  0.00  0.00    -0.118 NA
BRANCH  13  14
ATOM     14  N   LIG    1        2.787  -0.278  -0.971  0.00  0.00    -0.155 N 
ATOM     15  H   LIG    1        2.996  -1.114  -1.542  0.00  0.00    +0.292 HD
BRANCH  14  16
ATOM     16  C   LIG    1        3.823   0.577  -0.553  0.00  0.00    +0.400 C 
ATOM     17  N   LIG    1        5.161   0.127  -0.340  0.00  0.00    -0.288 N 
ATOM     18  H   LIG    1        5.832   0.723   0.182  0.00  0.00    +0.255 HD
ATOM     19  H   LIG    1        5.491  -0.795  -0.698  0.00  0.00    +0.255 HD
BRANCH  16  20
ATOM     20  N   LIG    1        3.534   1.822  -0.358  0.00  0.00    -0.128 NA
ATOM     21  H   LIG    1        4.204   2.541  -0.052  0.00  0.00    +0.306 HD
ENDBRANCH  16  20
ENDBRANCH  14  16
ENDBRANCH  13  14
ENDBRANCH   1  12
TORSDOF 7
