REMARK  Name = molecules/MXZYUFNILISKBC-WXLIAARGSA-N.pdb
REMARK                            x       y       z     vdW  Elec       q    Type
REMARK                         _______ _______ _______ _____ _____    ______ ____
ROOT
ATOM      1  C   LIG    1        1.672   2.145  -0.676  0.00  0.00    +0.016 C 
ATOM      2  C   LIG    1        1.620   0.690  -0.383  0.00  0.00    +0.018 C 
ATOM      3  C   LIG    1        0.778   0.391   0.857  0.00  0.00    +0.003 C 
ATOM      4  C   LIG    1        1.424   1.239   1.868  0.00  0.00    +0.009 C 
ATOM      5  C   LIG    1        2.922   1.056   1.552  0.00  0.00    +0.057 C 
ATOM      6  C   LIG    1       -0.628   0.606   0.499  0.00  0.00    -0.002 C 
ATOM      7  C   LIG    1       -1.431   0.576   1.783  0.00  0.00    +0.020 C 
ATOM      8  C   LIG    1       -2.900   0.472   1.555  0.00  0.00    +0.120 C 
ATOM      9  C   LIG    1       -3.294   0.147   0.195  0.00  0.00    -0.049 C 
ATOM     10  C   LIG    1       -4.580   0.262  -0.148  0.00  0.00    +0.046 C 
ATOM     11  C   LIG    1       -4.960  -0.068  -1.507  0.00  0.00    +0.156 C 
ATOM     12  C   LIG    1       -4.396  -1.283  -2.117  0.00  0.00    +0.080 C 
ATOM     13  C   LIG    1       -3.009  -1.515  -1.593  0.00  0.00    +0.019 C 
ATOM     14  O   LIG    1       -5.763   0.663  -2.176  0.00  0.00    -0.293 OA
ATOM     15  C   LIG    1       -2.393  -0.323  -0.907  0.00  0.00    -0.007 C 
ATOM     16  C   LIG    1       -2.299   0.815  -1.900  0.00  0.00    +0.016 C 
ATOM     17  C   LIG    1       -1.022  -0.603  -0.366  0.00  0.00    +0.002 C 
ATOM     18  C   LIG    1       -0.015  -0.958  -1.376  0.00  0.00    +0.005 C 
ATOM     19  C   LIG    1        2.959   0.278   0.258  0.00  0.00    +0.176 C 
ATOM     20  C   LIG    1        1.206  -0.154  -1.516  0.00  0.00    +0.011 C 
ENDROOT
BRANCH   8  21
ATOM     21  C   LIG    1       -3.452  -0.534   2.546  0.00  0.00    +0.396 C 
ATOM     22  F   LIG    1       -3.210  -0.128   3.854  0.00  0.00    -0.170 F 
ATOM     23  F   LIG    1       -4.839  -0.590   2.433  0.00  0.00    -0.170 F 
ATOM     24  F   LIG    1       -2.997  -1.811   2.322  0.00  0.00    -0.170 F 
ENDBRANCH   8  21
BRANCH  19  25
ATOM     25  C   LIG    1        4.090   0.555  -0.599  0.00  0.00    +0.174 C 
ATOM     26  C   LIG    1        4.621   1.865  -1.024  0.00  0.00    +0.090 C 
ATOM     27  O   LIG    1        4.729  -0.430  -1.053  0.00  0.00    -0.293 OA
ENDBRANCH  19  25
BRANCH  19  28
ATOM     28  O   LIG    1        2.868  -1.145   0.544  0.00  0.00    -0.450 OA
BRANCH  28  29
ATOM     29  C   LIG    1        3.936  -1.800   1.134  0.00  0.00    +0.305 C 
ATOM     30  C   LIG    1        3.886  -3.264   1.446  0.00  0.00    +0.136 C 
ATOM     31  O   LIG    1        5.002  -1.210   1.441  0.00  0.00    -0.251 OA
ENDBRANCH  28  29
ENDBRANCH  19  28
TORSDOF 4
