REMARK  Name = molecules/MYBLAOJMRYYKMS-PVFLNQBWSA-N.pdb
REMARK                            x       y       z     vdW  Elec       q    Type
REMARK                         _______ _______ _______ _____ _____    ______ ____
ROOT
ATOM      1  C   LIG    1        0.336  -0.268  -0.076  0.00  0.00    +0.161 C 
ATOM      2  C   LIG    1        0.860   1.145  -0.323  0.00  0.00    +0.171 C 
ATOM      3  C   LIG    1        2.203   1.201   0.417  0.00  0.00    +0.176 C 
ATOM      4  C   LIG    1        3.096   0.201  -0.326  0.00  0.00    +0.178 C 
ATOM      5  O   LIG    1        2.620  -1.052  -0.039  0.00  0.00    -0.341 OA
ATOM      6  C   LIG    1        1.350  -1.314  -0.477  0.00  0.00    +0.270 C 
ENDROOT
BRANCH   1   7
ATOM      7  N   LIG    1       -0.898  -0.510  -0.736  0.00  0.00    -0.288 N 
ATOM      8  C   LIG    1       -2.058  -0.804   0.026  0.00  0.00    +0.319 C 
ATOM      9  O   LIG    1       -2.011  -0.855   1.293  0.00  0.00    -0.251 OA
ATOM     10  N   LIG    1       -3.318  -1.054  -0.592  0.00  0.00    -0.174 N 
ATOM     11  H   LIG    1       -1.001  -0.482  -1.779  0.00  0.00    +0.151 HD
BRANCH  10  12
ATOM     12  N   LIG    1       -3.408  -1.005  -1.996  0.00  0.00    +0.053 NA
ATOM     13  O   LIG    1       -3.619   0.062  -2.608  0.00  0.00    -0.079 OA
ENDBRANCH  10  12
BRANCH  10  14
ATOM     14  C   LIG    1       -4.502  -1.352   0.164  0.00  0.00    +0.148 C 
BRANCH  14  15
ATOM     15  C   LIG    1       -5.238  -0.068   0.503  0.00  0.00    +0.129 C 
ATOM     16 CL   LIG    1       -4.178   0.983   1.465  0.00  0.00    -0.124 Cl
ENDBRANCH  14  15
ENDBRANCH  10  14
ENDBRANCH   1   7
BRANCH   3  17
ATOM     17  O   LIG    1        2.738   2.464   0.428  0.00  0.00    -0.387 OA
ATOM     18  H   LIG    1        2.653   2.849   1.339  0.00  0.00    +0.210 HD
ENDBRANCH   3  17
BRANCH   2  19
ATOM     19  O   LIG    1       -0.010   2.055   0.223  0.00  0.00    -0.387 OA
ATOM     20  H   LIG    1        0.350   2.962   0.037  0.00  0.00    +0.210 HD
ENDBRANCH   2  19
BRANCH   6  21
ATOM     21  O   LIG    1        1.369  -1.558  -1.834  0.00  0.00    -0.365 OA
ATOM     22  H   LIG    1        0.973  -0.860  -2.384  0.00  0.00    +0.213 HD
ENDBRANCH   6  21
BRANCH   4  23
ATOM     23  C   LIG    1        4.490   0.332   0.225  0.00  0.00    +0.190 C 
BRANCH  23  24
ATOM     24  O   LIG    1        5.348  -0.597  -0.320  0.00  0.00    -0.392 OA
ATOM     25  H   LIG    1        6.218  -0.137  -0.505  0.00  0.00    +0.210 HD
ENDBRANCH  23  24
ENDBRANCH   4  23
TORSDOF 9
