REMARK  Name = molecules/MYCMTMIGRXJNSO-UHFFFAOYSA-N.pdb
REMARK                            x       y       z     vdW  Elec       q    Type
REMARK                         _______ _______ _______ _____ _____    ______ ____
ROOT
ATOM      1  C   LIG    1        0.485   0.355  -1.419  0.00  0.00    +0.054 A 
ATOM      2  C   LIG    1       -0.486  -0.192  -0.638  0.00  0.00    +0.007 A 
ATOM      3  C   LIG    1       -1.375   0.703  -0.030  0.00  0.00    -0.011 A 
ATOM      4  C   LIG    1       -2.389   0.177   0.763  0.00  0.00    +0.058 A 
ATOM      5  C   LIG    1       -2.520  -1.183   0.946  0.00  0.00    +0.162 A 
ATOM      6  C   LIG    1       -1.623  -2.041   0.327  0.00  0.00    +0.162 A 
ATOM      7  C   LIG    1       -1.270   2.066  -0.216  0.00  0.00    +0.032 A 
ATOM      8  C   LIG    1       -0.277   2.579  -1.014  0.00  0.00    +0.042 A 
ATOM      9  C   LIG    1       -0.598  -1.546  -0.472  0.00  0.00    +0.059 A 
ATOM     10  N   LIG    1        0.557   1.708  -1.582  0.00  0.00    -0.256 NA
ENDROOT
BRANCH   5  11
ATOM     11  O   LIG    1       -3.536  -1.689   1.740  0.00  0.00    -0.491 OA
ATOM     12  C   LIG    1       -4.427  -0.800   2.356  0.00  0.00    +0.277 C 
ENDBRANCH   5  11
BRANCH   6  13
ATOM     13  O   LIG    1       -1.774  -3.384   0.521  0.00  0.00    -0.491 OA
ATOM     14  C   LIG    1       -0.930  -4.368  -0.052  0.00  0.00    +0.277 C 
ENDBRANCH   6  13
BRANCH   8  15
ATOM     15  C   LIG    1       -0.165   4.057  -1.219  0.00  0.00    +0.052 C 
ATOM     16  C   LIG    1       -1.229   4.791  -0.431  0.00  0.00    +0.010 C 
ENDBRANCH   8  15
BRANCH   1  17
ATOM     17  C   LIG    1        1.535  -0.465  -2.058  0.00  0.00    +0.091 C 
BRANCH  17  18
ATOM     18  C   LIG    1        2.613  -0.683  -1.050  0.00  0.00    -0.042 A 
ATOM     19  C   LIG    1        2.877  -1.853  -0.397  0.00  0.00    +0.004 A 
ATOM     20  C   LIG    1        3.898  -1.985   0.552  0.00  0.00    +0.000 A 
ATOM     21  C   LIG    1        4.684  -0.902   0.856  0.00  0.00    +0.000 A 
ATOM     22  C   LIG    1        4.441   0.287   0.214  0.00  0.00    +0.000 A 
ATOM     23  C   LIG    1        3.446   0.396  -0.703  0.00  0.00    +0.004 A 
ENDBRANCH  17  18
ENDBRANCH   1  17
TORSDOF 5
