REMARK  Name = molecules/MYPYJXKWCTUITO-LYRMYLQWSA-N.pdb
REMARK                            x       y       z     vdW  Elec       q    Type
REMARK                         _______ _______ _______ _____ _____    ______ ____
ROOT
ATOM      1  C   UNK A  1       -0.544   2.133   0.959  0.00  0.00    +0.208 A 
ATOM      2  C   UNK A  1       -1.423   1.331   1.649  0.00  0.00    +0.174 A 
ATOM      3  O   UNK A  1       -2.151   2.150   2.669  0.00  0.00    -0.451 OA
ATOM      4  C   UNK A  1       -3.577   1.762   2.690  0.00  0.00    +0.147 A 
ATOM      5  C   UNK A  1       -3.795   0.733   3.563  0.00  0.00    +0.048 A 
ATOM      6  C   UNK A  1       -5.103   0.170   3.621  0.00  0.00    +0.010 A 
ATOM      7  C   UNK A  1       -6.121   0.636   2.826  0.00  0.00    -0.015 A 
ATOM      8  C   UNK A  1       -7.327  -0.266   2.559  0.00  0.00    +0.174 C 
ATOM      9  C   UNK A  1       -6.858  -1.456   1.619  0.00  0.00    +0.192 C 
ATOM     10  N   UNK A  1       -6.033  -2.283   2.404  0.00  0.00    -0.300 N 
ATOM     11  H   UNK A  1       -6.757  -2.561   3.291  0.00  0.00    +0.150 HD
ATOM     12  C   UNK A  1       -4.838  -2.925   2.676  0.00  0.00    +0.239 C 
ATOM     13  O   UNK A  1       -4.416  -2.901   3.930  0.00  0.00    -0.273 OA
ATOM     14  C   UNK A  1       -3.805  -3.709   1.905  0.00  0.00    +0.190 C 
ATOM     15  N   UNK A  1       -2.502  -3.174   1.962  0.00  0.00    -0.299 N 
ATOM     16  H   UNK A  1       -2.363  -2.776   3.001  0.00  0.00    +0.150 HD
ATOM     17  C   UNK A  1       -1.365  -2.996   1.185  0.00  0.00    +0.239 C 
ATOM     18  O   UNK A  1       -0.371  -3.788   1.471  0.00  0.00    -0.273 OA
ATOM     19  C   UNK A  1       -1.055  -2.077   0.094  0.00  0.00    +0.190 C 
ATOM     20  C   UNK A  1       -0.886  -0.595   0.391  0.00  0.00    -0.011 A 
ATOM     21  C   UNK A  1        0.012   0.220  -0.331  0.00  0.00    +0.056 A 
ATOM     22  N   UNK A  1        0.023  -2.703  -0.656  0.00  0.00    -0.299 N 
ATOM     23  C   UNK A  1        1.205  -3.320  -0.470  0.00  0.00    +0.235 C 
ATOM     24  C   UNK A  1        2.577  -2.986   0.078  0.00  0.00    +0.168 C 
ATOM     25  N   UNK A  1        3.543  -2.972  -0.992  0.00  0.00    -0.302 N 
ATOM     26  H   UNK A  1        3.659  -4.047  -1.324  0.00  0.00    +0.150 HD
ATOM     27  C   UNK A  1        4.297  -2.112  -1.773  0.00  0.00    +0.237 C 
ATOM     28  C   UNK A  1        5.692  -1.733  -1.998  0.00  0.00    +0.192 C 
ATOM     29  C   UNK A  1        5.996  -0.273  -2.053  0.00  0.00    +0.174 C 
ATOM     30  C   UNK A  1        4.842   0.648  -1.678  0.00  0.00    -0.015 A 
ATOM     31  C   UNK A  1        4.530   0.860  -0.361  0.00  0.00    +0.010 A 
ATOM     32  C   UNK A  1        3.289   1.508  -0.068  0.00  0.00    +0.048 A 
ATOM     33  C   UNK A  1        2.421   1.910  -1.024  0.00  0.00    +0.147 A 
ATOM     34  O   UNK A  1        1.110   2.492  -0.653  0.00  0.00    -0.451 OA
ATOM     35  C   UNK A  1        2.711   1.738  -2.314  0.00  0.00    +0.083 A 
ATOM     36 CL   UNK A  1        1.804   2.251  -3.810  0.00  0.00    -0.080 Cl
ATOM     37  C   UNK A  1        3.959   1.085  -2.640  0.00  0.00    +0.030 A 
ATOM     38  O   UNK A  1        3.570  -1.361  -2.634  0.00  0.00    -0.274 OA
ATOM     39  O   UNK A  1        1.210  -4.582  -0.874  0.00  0.00    -0.274 OA
ATOM     40  H   UNK A  1       -0.271  -2.612  -1.758  0.00  0.00    +0.150 HD
ATOM     41  C   UNK A  1       -4.309  -4.418   0.696  0.00  0.00    -0.018 A 
ATOM     42  C   UNK A  1       -3.782  -5.681   0.442  0.00  0.00    +0.009 A 
ATOM     43  C   UNK A  1       -4.209  -6.528  -0.549  0.00  0.00    +0.046 A 
ATOM     44  C   UNK A  1       -5.272  -6.026  -1.333  0.00  0.00    +0.125 A 
ATOM     45  C   UNK A  1       -5.838  -4.786  -1.124  0.00  0.00    +0.028 A 
ATOM     46  C   UNK A  1       -7.093  -4.532  -1.899  0.00  0.00    +0.033 A 
ATOM     47  C   UNK A  1       -7.994  -5.547  -2.177  0.00  0.00    +0.128 A 
ATOM     48  C   UNK A  1       -9.183  -5.344  -2.878  0.00  0.00    +0.091 A 
ATOM     49  C   UNK A  1       -9.509  -4.106  -3.323  0.00  0.00    +0.121 A 
ATOM     50  C   UNK A  1       -8.654  -3.080  -3.067  0.00  0.00    +0.052 A 
ATOM     51  C   UNK A  1       -7.483  -3.259  -2.380  0.00  0.00    -0.002 A 
ATOM     52  C   UNK A  1       -6.681  -2.035  -2.111  0.00  0.00    +0.213 C 
ATOM     53  N   UNK A  1       -7.040  -1.176  -1.033  0.00  0.00    -0.297 N 
ATOM     54  H   UNK A  1       -7.844  -0.491  -1.364  0.00  0.00    +0.150 HD
ATOM     55  C   UNK A  1       -5.336  -3.998  -0.117  0.00  0.00    +0.018 A 
ATOM     56  C   UNK A  1       -6.585  -0.964   0.295  0.00  0.00    +0.237 C 
ATOM     57  O   UNK A  1       -5.644  -0.058   0.305  0.00  0.00    -0.274 OA
ATOM     58  C   UNK A  1       -5.861   1.688   1.998  0.00  0.00    +0.030 A 
ATOM     59  C   UNK A  1       -4.525   2.273   1.935  0.00  0.00    +0.083 A 
ATOM     60 CL   UNK A  1       -4.519   3.723   0.830  0.00  0.00    -0.080 Cl
ATOM     61  C   UNK A  1       -1.613   0.005   1.415  0.00  0.00    +0.056 A 
ATOM     62  C   UNK A  1        0.203   1.558  -0.057  0.00  0.00    +0.174 A 
ENDROOT
BRANCH  28  63
ATOM     63  N   UNK A  1        6.729  -2.544  -1.390  0.00  0.00    -0.300 N 
ATOM     64  H   UNK A  1        6.740  -2.586  -0.365  0.00  0.00    +0.150 HD
ATOM     65  C   UNK A  1        7.671  -3.282  -2.135  0.00  0.00    +0.231 C 
ATOM     66  O   UNK A  1        7.516  -3.168  -3.444  0.00  0.00    -0.274 OA
BRANCH  65  67
ATOM     67  C   UNK A  1        8.762  -4.138  -1.742  0.00  0.00    +0.140 C 
BRANCH  67  68
ATOM     68  N   UNK A  1        8.845  -5.358  -2.549  0.00  0.00    -0.309 NA
ATOM     69  C   ACE A  0        7.651  -6.119  -2.358  0.00  0.00    +0.101 C 
ATOM     70  H   UNK A  1        8.940  -5.051  -3.533  0.00  0.00    +0.122 HD
ENDBRANCH  67  68
BRANCH  67  71
ATOM     71  C   UNK A  1        9.029  -4.331  -0.303  0.00  0.00    +0.031 C 
BRANCH  71  72
ATOM     72  C   UNK A  1        9.447  -3.063   0.375  0.00  0.00    -0.015 C 
ATOM     73  C   UNK A  1        9.846  -3.469   1.815  0.00  0.00    +0.007 C 
ATOM     74  C   UNK A  1       10.727  -2.520  -0.267  0.00  0.00    +0.007 C 
ENDBRANCH  71  72
ENDBRANCH  67  71
ENDBRANCH  65  67
ENDBRANCH  28  63
BRANCH  44  75
ATOM     75  O   UNK A  1       -5.733  -6.851  -2.373  0.00  0.00    -0.506 OA
ATOM     76  H   UNK A  1       -5.320  -7.743  -2.527  0.00  0.00    +0.292 HD
ENDBRANCH  44  75
BRANCH  52  77
ATOM     77  C   UNK A  1       -6.750  -1.152  -3.374  0.00  0.00    +0.330 C 
ATOM     78  O   UNK A  2       -7.060   0.034  -3.344  0.00  0.00    -0.249 OA
BRANCH  77  79
ATOM     79  O   UNK A  2       -6.438  -1.790  -4.553  0.00  0.00    -0.479 OA
ATOM     80  H   UNK A  2       -7.023  -1.683  -5.369  0.00  0.00    +0.295 HD
ENDBRANCH  77  79
ENDBRANCH  52  77
BRANCH  49  81
ATOM     81  O   UNK A  1      -10.694  -3.912  -4.023  0.00  0.00    -0.507 OA
ATOM     82  H   UNK A  1      -10.669  -4.008  -5.046  0.00  0.00    +0.292 HD
ENDBRANCH  49  81
BRANCH  47  83
ATOM     83  O   UNK A  1       -7.777  -6.840  -1.762  0.00  0.00    -0.506 OA
ATOM     84  H   UNK A  1       -8.376  -7.616  -1.921  0.00  0.00    +0.292 HD
ENDBRANCH  47  83
BRANCH  29  85
ATOM     85  O   UNK A  1        7.198   0.022  -1.331  0.00  0.00    -0.385 OA
ATOM     86  H   UNK A  1        7.314  -0.617  -0.588  0.00  0.00    +0.210 HD
ENDBRANCH  29  85
BRANCH   8  87
ATOM     87  O   UNK A  1       -8.400   0.252   1.900  0.00  0.00    -0.385 OA
ATOM     88  H   UNK A  1       -8.694  -0.226   1.093  0.00  0.00    +0.210 HD
ENDBRANCH   8  87
BRANCH  24  89
ATOM     89  C   UNK A  1        2.587  -1.967   1.121  0.00  0.00    +0.127 C 
BRANCH  89  90
ATOM     90  C   UNK A  1        3.876  -1.657   1.762  0.00  0.00    +0.213 C 
ATOM     91  N   UNK A  1        3.900  -0.648   2.766  0.00  0.00    -0.329 N 
ATOM     92  H   UNK A  1        4.720  -0.643   3.421  0.00  0.00    +0.145 HD
ATOM     93  H   UNK A  1        3.134   0.048   2.839  0.00  0.00    +0.145 HD
ATOM     94  O   UNK A  1        4.917  -2.238   1.460  0.00  0.00    -0.276 OA
ENDBRANCH  89  90
ENDBRANCH  24  89
BRANCH   1  95
ATOM     95  O   UNK A  1       -0.422   3.484   1.282  0.00  0.00    -0.453 OA
BRANCH  95  96
ATOM     96  C   UNK A  1        0.614   3.888   2.122  0.00  0.00    +0.340 C 
ATOM     97  O   UNK A  1        0.030   4.098   3.390  0.00  0.00    -0.331 OA
ATOM     98  C   UNK A  1        1.024   4.195   4.324  0.00  0.00    +0.179 C 
ATOM     99  C   UNK A  1        2.277   4.882   3.937  0.00  0.00    +0.177 C 
ATOM    100  C   UNK A  1        2.292   5.577   2.613  0.00  0.00    +0.180 C 
ATOM    101  C   UNK A  1        1.128   5.272   1.742  0.00  0.00    +0.220 C 
BRANCH 100 102
ATOM    102  O   UNK A  1        2.341   6.974   2.842  0.00  0.00    -0.386 OA
ATOM    103  H   UNK A  1        1.770   7.139   3.621  0.00  0.00    +0.210 HD
ENDBRANCH 100 102
BRANCH  99 104
ATOM    104  O   UNK A  1        3.409   4.033   4.090  0.00  0.00    -0.386 OA
ATOM    105  H   UNK A  1        4.224   4.521   3.806  0.00  0.00    +0.210 HD
ENDBRANCH  99 104
BRANCH 101 106
ATOM    106  O   UNK A  1        1.439   5.357   0.404  0.00  0.00    -0.339 OA
BRANCH 106 107
ATOM    107  C   UNK A  1        0.538   6.089  -0.322  0.00  0.00    +0.253 C 
ATOM    108  C   UNK A  1        1.054   7.261  -1.076  0.00  0.00    +0.085 C 
ATOM    109  C   UNK A  1       -0.109   8.087  -1.659  0.00  0.00    +0.047 C 
ATOM    110  C   UNK A  1       -1.201   7.143  -2.111  0.00  0.00    +0.163 C 
ATOM    111  C   UNK A  1       -0.534   5.809  -2.374  0.00  0.00    +0.148 C 
ATOM    112  C   UNK A  1       -1.489   4.931  -3.137  0.00  0.00    +0.041 C 
ATOM    113  C   UNK A  1        0.383   8.978  -2.751  0.00  0.00    +0.030 C 
ATOM    114  O   UNK A  1       -0.053   5.225  -1.235  0.00  0.00    -0.346 OA
BRANCH 109 115
ATOM    115  N   UNK A  1       -0.627   8.931  -0.592  0.00  0.00    -0.323 NA
ATOM    116  H   UNK A  1       -0.538   8.498   0.353  0.00  0.00    +0.119 HD
ATOM    117  H   UNK A  1       -0.208   9.874  -0.553  0.00  0.00    +0.119 HD
ENDBRANCH 109 115
BRANCH 110 118
ATOM    118  O   UNK A  1       -2.142   7.060  -1.098  0.00  0.00    -0.387 OA
ATOM    119  H   UNK A  1       -3.032   7.242  -1.505  0.00  0.00    +0.210 HD
ENDBRANCH 110 118
ENDBRANCH 106 107
ENDBRANCH 101 106
BRANCH  98 120
ATOM    120  C   UNK A  1        0.400   4.775   5.592  0.00  0.00    +0.190 C 
BRANCH 120 121
ATOM    121  O   UNK A  1       -0.134   6.035   5.326  0.00  0.00    -0.392 OA
ATOM    122  H   UNK A  1       -1.009   5.891   4.851  0.00  0.00    +0.210 HD
ENDBRANCH 120 121
ENDBRANCH  98 120
ENDBRANCH  95  96
ENDBRANCH   1  95
TORSDOF 24
