REMARK  Name = molecules/MYSWGUAQZAJSOK-UHFFFAOYSA-N.pdb
REMARK                            x       y       z     vdW  Elec       q    Type
REMARK                         _______ _______ _______ _____ _____    ______ ____
ROOT
ATOM      1  O   LIG    1        2.987  -3.205  -0.682  0.00  0.00    -0.286 OA
ATOM      2  C   LIG    1        2.797  -2.017  -0.333  0.00  0.00    +0.203 A 
ATOM      3  C   LIG    1        3.808  -1.139  -0.029  0.00  0.00    +0.122 A 
ATOM      4  C   LIG    1        3.498   0.153   0.347  0.00  0.00    +0.105 A 
ATOM      5  N   LIG    1        2.228   0.578   0.425  0.00  0.00    -0.343 N 
ATOM      6  C   LIG    1        1.233  -0.254   0.135  0.00  0.00    +0.055 A 
ATOM      7  C   LIG    1       -0.054   0.246   0.234  0.00  0.00    +0.052 A 
ATOM      8  C   LIG    1       -1.095  -0.621  -0.068  0.00  0.00    +0.067 A 
ATOM      9  C   LIG    1       -0.854  -1.923  -0.449  0.00  0.00    +0.145 A 
ATOM     10  C   LIG    1        0.430  -2.391  -0.539  0.00  0.00    +0.054 A 
ATOM     11  F   LIG    1       -1.930  -2.708  -0.728  0.00  0.00    -0.204 F 
ATOM     12  C   LIG    1        1.494  -1.565  -0.248  0.00  0.00    +0.049 A 
ENDROOT
BRANCH   8  13
ATOM     13  N   LIG    1       -2.437  -0.156   0.019  0.00  0.00    -0.325 N 
ATOM     14  C   LIG    1       -3.332  -0.805   0.923  0.00  0.00    +0.120 C 
ATOM     15  C   LIG    1       -4.773  -0.736   0.496  0.00  0.00    +0.100 C 
ATOM     16  N   LIG    1       -4.932  -0.119  -0.794  0.00  0.00    -0.313 NA
ATOM     17  C   LIG    1       -4.309   1.191  -0.812  0.00  0.00    +0.100 C 
ATOM     18  H   LIG    1       -5.925  -0.032  -1.025  0.00  0.00    +0.122 HD
ATOM     19  C   LIG    1       -2.807   0.964  -0.829  0.00  0.00    +0.120 C 
ENDBRANCH   8  13
BRANCH   5  20
ATOM     20  C   LIG    1        2.032   1.955   0.831  0.00  0.00    +0.087 C 
ATOM     21  C   LIG    1        3.007   2.915   0.157  0.00  0.00    +0.027 C 
ATOM     22  C   LIG    1        1.524   2.968  -0.106  0.00  0.00    +0.027 C 
ENDBRANCH   5  20
BRANCH   3  23
ATOM     23  C   LIG    1        5.184  -1.562  -0.101  0.00  0.00    +0.342 C 
ATOM     24  O   LIG    1        6.102  -0.781   0.170  0.00  0.00    -0.245 OA
BRANCH  23  25
ATOM     25  O   LIG    1        5.477  -2.855  -0.478  0.00  0.00    -0.477 OA
ATOM     26  H   LIG    1        5.388  -3.582   0.213  0.00  0.00    +0.295 HD
ENDBRANCH  23  25
ENDBRANCH   3  23
TORSDOF 4
