REMARK  Name = molecules/MYYIMZRZXIQBGI-HVIRSNARSA-N.pdb
REMARK                            x       y       z     vdW  Elec       q    Type
REMARK                         _______ _______ _______ _____ _____    ______ ____
ROOT
ATOM      1  C   LIG    1        1.897   0.250  -1.265  0.00  0.00    +0.015 C 
ATOM      2  C   LIG    1        1.584  -0.336   0.058  0.00  0.00    +0.009 C 
ATOM      3  C   LIG    1        0.685   0.499   0.931  0.00  0.00    +0.002 C 
ATOM      4  C   LIG    1        1.567   1.535   1.459  0.00  0.00    +0.008 C 
ATOM      5  C   LIG    1        2.713   0.645   1.983  0.00  0.00    +0.043 C 
ATOM      6  C   LIG    1       -0.529   0.861   0.162  0.00  0.00    +0.002 C 
ATOM      7  C   LIG    1       -1.264   2.041   0.718  0.00  0.00    +0.045 C 
ATOM      8  C   LIG    1       -2.406   2.330  -0.238  0.00  0.00    +0.193 C 
ATOM      9  F   LIG    1       -3.062   3.437   0.180  0.00  0.00    -0.241 F 
ATOM     10  C   LIG    1       -3.287   1.084  -0.059  0.00  0.00    -0.023 C 
ATOM     11  C   LIG    1       -4.469   1.204   0.464  0.00  0.00    +0.053 C 
ATOM     12  C   LIG    1       -5.340   0.069   0.719  0.00  0.00    +0.179 C 
ATOM     13  O   LIG    1       -6.489   0.192   1.226  0.00  0.00    -0.288 OA
ATOM     14  C   LIG    1       -4.835  -1.246   0.366  0.00  0.00    +0.047 C 
ATOM     15  C   LIG    1       -3.631  -1.312  -0.162  0.00  0.00    -0.012 C 
ATOM     16  C   LIG    1       -2.719  -0.207  -0.446  0.00  0.00    +0.016 C 
ATOM     17  C   LIG    1       -2.651  -0.158  -1.992  0.00  0.00    +0.020 C 
ATOM     18  C   LIG    1       -1.357  -0.429   0.131  0.00  0.00    +0.035 C 
ATOM     19  C   LIG    1       -0.552  -1.491  -0.531  0.00  0.00    +0.120 C 
ATOM     20  C   LIG    1        2.818  -0.428   0.898  0.00  0.00    +0.131 C 
ATOM     21  C   LIG    1        0.848  -1.651  -0.066  0.00  0.00    +0.041 C 
ENDROOT
BRANCH  19  22
ATOM     22  O   LIG    1       -0.589  -1.469  -1.927  0.00  0.00    -0.391 OA
ATOM     23  H   LIG    1        0.081  -2.134  -2.228  0.00  0.00    +0.210 HD
ENDBRANCH  19  22
BRANCH  20  24
ATOM     24  O   LIG    1        2.886  -1.714   1.436  0.00  0.00    -0.380 OA
ATOM     25  H   LIG    1        3.161  -2.305   0.693  0.00  0.00    +0.211 HD
ENDBRANCH  20  24
BRANCH  20  26
ATOM     26  C   LIG    1        4.046  -0.098   0.131  0.00  0.00    +0.190 C 
ATOM     27  O   LIG    1        4.192   1.004  -0.362  0.00  0.00    -0.292 OA
BRANCH  26  28
ATOM     28  C   LIG    1        5.124  -1.119  -0.047  0.00  0.00    +0.233 C 
BRANCH  28  29
ATOM     29  O   LIG    1        6.161  -0.603  -0.784  0.00  0.00    -0.387 OA
ATOM     30  H   LIG    1        6.370   0.330  -0.486  0.00  0.00    +0.210 HD
ENDBRANCH  28  29
ENDBRANCH  26  28
ENDBRANCH  20  26
TORSDOF 5
