REMARK  Name = molecules/MZBLZLWXUBZHSL-FZNJKFJKSA-N.pdb
REMARK                            x       y       z     vdW  Elec       q    Type
REMARK                         _______ _______ _______ _____ _____    ______ ____
ROOT
ATOM      1  C   LIG    1       -5.272   5.676   0.067  0.00  0.00    +0.033 A 
ATOM      2  C   LIG    1       -4.219   4.804   0.206  0.00  0.00    +0.090 A 
ATOM      3  N   LIG    1       -4.286   3.648   0.873  0.00  0.00    -0.239 NA
ATOM      4  C   LIG    1       -3.234   2.796   1.010  0.00  0.00    +0.171 A 
ATOM      5  C   LIG    1       -3.500   1.553   1.825  0.00  0.00    +0.295 C 
ATOM      6  F   LIG    1       -4.553   1.805   2.713  0.00  0.00    -0.198 F 
ATOM      7  F   LIG    1       -2.424   1.259   2.636  0.00  0.00    -0.198 F 
ATOM      8  C   LIG    1       -3.924   0.424   0.954  0.00  0.00    +0.082 C 
ATOM      9  C   LIG    1       -5.389   0.085   1.004  0.00  0.00    +0.006 C 
ATOM     10  C   LIG    1       -5.656  -1.391   1.043  0.00  0.00    +0.001 C 
ATOM     11  C   LIG    1       -5.439  -2.029   2.352  0.00  0.00    +0.007 C 
ATOM     12  C   LIG    1       -4.548  -3.248   2.366  0.00  0.00    +0.033 C 
ATOM     13  C   LIG    1       -4.228  -3.663   3.824  0.00  0.00    +0.052 C 
ATOM     14  C   LIG    1       -3.207  -3.038   2.881  0.00  0.00    +0.182 C 
ATOM     15  O   LIG    1       -2.251  -4.003   2.467  0.00  0.00    -0.447 OA
ATOM     16  C   LIG    1       -0.886  -3.968   2.671  0.00  0.00    +0.401 C 
ATOM     17  O   LIG    1       -0.464  -4.759   3.631  0.00  0.00    -0.226 OA
ATOM     18  N   LIG    1        0.061  -3.190   1.971  0.00  0.00    -0.269 N 
ATOM     19  H   LIG    1        0.561  -2.471   2.564  0.00  0.00    +0.153 HD
ATOM     20  C   LIG    1        0.465  -3.233   0.602  0.00  0.00    +0.168 C 
ATOM     21  C   LIG    1        1.123  -1.946   0.239  0.00  0.00    +0.237 C 
ATOM     22  O   LIG    1        2.391  -1.865   0.528  0.00  0.00    -0.274 OA
ATOM     23  N   LIG    1        0.559  -0.817  -0.363  0.00  0.00    -0.284 N 
ATOM     24  C   LIG    1       -0.621  -0.123   0.246  0.00  0.00    +0.153 C 
ATOM     25  C   LIG    1       -0.205   1.341   0.071  0.00  0.00    +0.198 C 
ATOM     26  O   LIG    1       -0.983   2.280   0.572  0.00  0.00    -0.470 OA
ATOM     27  C   LIG    1        0.147   1.280  -1.389  0.00  0.00    +0.060 C 
ATOM     28  C   LIG    1        0.849  -0.011  -1.541  0.00  0.00    +0.169 C 
ATOM     29  C   LIG    1       -2.016   3.104   0.445  0.00  0.00    +0.244 A 
ATOM     30  N   LIG    1       -1.986   4.301  -0.234  0.00  0.00    -0.210 NA
ATOM     31  C   LIG    1       -3.000   5.126  -0.367  0.00  0.00    +0.096 A 
ATOM     32  C   LIG    1       -2.888   6.321  -1.061  0.00  0.00    +0.075 A 
ATOM     33  C   LIG    1       -3.959   7.189  -1.191  0.00  0.00    +0.122 A 
ATOM     34  C   LIG    1       -5.186   6.870  -0.618  0.00  0.00    +0.048 A 
ENDROOT
BRANCH  28  35
ATOM     35  C   LIG    1        2.264   0.017  -1.934  0.00  0.00    +0.235 C 
ATOM     36  N   LIG    1        3.033  -1.179  -2.111  0.00  0.00    -0.299 N 
ATOM     37  H   LIG    1        2.532  -2.074  -1.993  0.00  0.00    +0.150 HD
ATOM     38  O   LIG    1        2.944   1.066  -2.160  0.00  0.00    -0.274 OA
BRANCH  36  39
ATOM     39  C   LIG    1        4.425  -1.211  -2.484  0.00  0.00    +0.121 C 
ATOM     40  C   LIG    1        4.851  -2.639  -2.897  0.00  0.00    +0.090 C 
ATOM     41  C   LIG    1        4.846  -1.464  -3.879  0.00  0.00    +0.047 C 
BRANCH  39  42
ATOM     42  C   LIG    1        5.389  -0.524  -1.582  0.00  0.00    +0.256 C 
ATOM     43  N   LIG    1        5.101   0.090  -0.362  0.00  0.00    -0.188 N 
ATOM     44  H   LIG    1        4.150   0.109   0.028  0.00  0.00    +0.176 HD
ATOM     45  O   LIG    1        6.614  -0.487  -1.958  0.00  0.00    -0.272 OA
BRANCH  43  46
ATOM     46  S   LIG    1        6.341   0.847   0.556  0.00  0.00    +0.051 S 
ATOM     47  O   LIG    1        6.043   2.301   0.800  0.00  0.00    -0.155 OA
ATOM     48  O   LIG    1        7.658   0.800  -0.188  0.00  0.00    -0.155 OA
BRANCH  46  49
ATOM     49  C   LIG    1        6.555  -0.007   2.098  0.00  0.00    +0.104 C 
ATOM     50  C   LIG    1        5.350  -0.063   3.010  0.00  0.00    +0.037 C 
ATOM     51  C   LIG    1        7.911   0.136   2.770  0.00  0.00    +0.033 C 
ATOM     52  C   LIG    1        7.465  -1.178   2.143  0.00  0.00    +0.033 C 
ENDBRANCH  46  49
ENDBRANCH  43  46
ENDBRANCH  39  42
BRANCH  40  53
ATOM     53  C   LIG    1        6.154  -3.203  -2.465  0.00  0.00    +0.347 C 
ATOM     54  F   LIG    1        6.255  -3.232  -1.087  0.00  0.00    -0.209 F 
ATOM     55  F   LIG    1        7.210  -2.609  -3.082  0.00  0.00    -0.209 F 
ENDBRANCH  40  53
ENDBRANCH  36  39
ENDBRANCH  28  35
BRANCH  20  56
ATOM     56  C   LIG    1       -0.484  -3.801  -0.362  0.00  0.00    -0.011 C 
ATOM     57  C   LIG    1       -0.614  -5.300  -0.032  0.00  0.00    +0.013 C 
ATOM     58  C   LIG    1       -1.841  -3.269  -0.489  0.00  0.00    +0.013 C 
ATOM     59  C   LIG    1        0.171  -3.774  -1.748  0.00  0.00    +0.013 C 
ENDBRANCH  20  56
BRANCH  27  60
ATOM     60  C   LIG    1        0.746   2.491  -1.976  0.00  0.00    +0.006 C 
ATOM     61  C   LIG    1        0.872   2.304  -3.491  0.00  0.00    +0.004 C 
ENDBRANCH  27  60
BRANCH  33  62
ATOM     62  O   LIG    1       -3.792   8.370  -1.893  0.00  0.00    -0.495 OA
ATOM     63  C   LIG    1       -4.870   9.254  -2.025  0.00  0.00    +0.277 C 
ENDBRANCH  33  62
TORSDOF 9
