REMARK  Name = molecules/NAPSCFZYZVSQHF-UHFFFAOYSA-N.pdb
REMARK                            x       y       z     vdW  Elec       q    Type
REMARK                         _______ _______ _______ _____ _____    ______ ____
ROOT
ATOM      1  C   LIG    1        0.109  -2.819  -1.640  0.00  0.00    -0.000 C 
ENDROOT
BRANCH   1   2
ATOM      2  C   LIG    1        0.792  -1.499  -1.738  0.00  0.00    -0.000 C 
BRANCH   2   3
ATOM      3  C   LIG    1        0.977  -0.807  -0.432  0.00  0.00    -0.000 C 
BRANCH   3   4
ATOM      4  C   LIG    1        1.785  -1.588   0.560  0.00  0.00    -0.000 C 
BRANCH   4   5
ATOM      5  C   LIG    1        3.154  -1.903   0.095  0.00  0.00    -0.000 C 
BRANCH   5   6
ATOM      6  C   LIG    1        3.991  -0.689  -0.218  0.00  0.00    -0.000 C 
BRANCH   6   7
ATOM      7  C   LIG    1        4.117   0.154   1.010  0.00  0.00    -0.000 C 
BRANCH   7   8
ATOM      8  C   LIG    1        4.937   1.373   0.775  0.00  0.00    -0.000 C 
BRANCH   8   9
ATOM      9  C   LIG    1        6.320   1.027   0.356  0.00  0.00    -0.000 C 
BRANCH   9  10
ATOM     10  C   LIG    1        7.160   2.301   0.152  0.00  0.00    -0.003 C 
ATOM     11  C   LIG    1        6.559   3.175  -0.899  0.00  0.00    +0.004 C 
ENDBRANCH   9  10
ENDBRANCH   8   9
ENDBRANCH   7   8
ENDBRANCH   6   7
ENDBRANCH   5   6
ENDBRANCH   4   5
ENDBRANCH   3   4
ENDBRANCH   2   3
ENDBRANCH   1   2
BRANCH   1  12
ATOM     12  C   LIG    1       -1.272  -2.666  -1.036  0.00  0.00    -0.000 C 
BRANCH  12  13
ATOM     13  C   LIG    1       -2.171  -1.774  -1.835  0.00  0.00    +0.000 C 
BRANCH  13  14
ATOM     14  C   LIG    1       -3.511  -1.684  -1.203  0.00  0.00    +0.000 C 
BRANCH  14  15
ATOM     15  C   LIG    1       -3.414  -1.119   0.179  0.00  0.00    +0.000 C 
BRANCH  15  16
ATOM     16  C   LIG    1       -4.782  -1.017   0.840  0.00  0.00    +0.001 C 
BRANCH  16  17
ATOM     17  C   LIG    1       -5.734  -0.136   0.074  0.00  0.00    +0.015 C 
BRANCH  17  18
ATOM     18  C   LIG    1       -5.196   1.271  -0.039  0.00  0.00    +0.084 C 
BRANCH  18  19
ATOM     19  N   LIG    1       -5.030   1.789   1.304  0.00  0.00    -0.308 NA
ATOM     20  C   LIG    1       -6.303   1.995   1.962  0.00  0.00    +0.104 C 
ATOM     21  C   LIG    1       -4.227   2.998   1.325  0.00  0.00    +0.104 C 
ENDBRANCH  18  19
ENDBRANCH  17  18
ENDBRANCH  16  17
ENDBRANCH  15  16
ENDBRANCH  14  15
ENDBRANCH  13  14
ENDBRANCH  12  13
ENDBRANCH   1  12
TORSDOF 17
