REMARK  Name = molecules/NBIIXXVUZAFLBC-UHFFFAOYSA-N.pdb
REMARK                            x       y       z     vdW  Elec       q    Type
REMARK                         _______ _______ _______ _____ _____    ______ ____
ROOT
ATOM      1  P   LIG    1        0.023  -0.237   0.423  0.00  0.00    +0.470 P 
ATOM      2  O   LIG    1       -0.004  -0.622   1.882  0.00  0.00    -0.228 OA
ENDROOT
BRANCH   1   3
ATOM      3  O   LIG    1       -0.042   1.433   0.325  0.00  0.00    -0.303 OA
ATOM      4  H   LIG    1       -0.195   1.780  -0.585  0.00  0.00    +0.222 HD
ENDBRANCH   1   3
BRANCH   1   5
ATOM      5  O   LIG    1        1.427  -0.872  -0.278  0.00  0.00    -0.303 OA
ATOM      6  H   LIG    1        2.005  -0.164  -0.669  0.00  0.00    +0.222 HD
ENDBRANCH   1   5
BRANCH   1   7
ATOM      7  O   LIG    1       -1.325  -0.976  -0.308  0.00  0.00    -0.303 OA
ATOM      8  H   LIG    1       -1.889  -0.341  -0.790  0.00  0.00    +0.222 HD
ENDBRANCH   1   7
TORSDOF 3
