REMARK  Name = molecules/NBQKINXMPLXUET-UHFFFAOYSA-N.pdb
REMARK                            x       y       z     vdW  Elec       q    Type
REMARK                         _______ _______ _______ _____ _____    ______ ____
ROOT
ATOM      1  C   LIG    1       -2.542  -0.540  -1.823  0.00  0.00    +0.248 C 
ATOM      2  N   LIG    1       -3.839  -0.404  -1.302  0.00  0.00    -0.279 N 
ATOM      3  H   LIG    1       -3.883   0.066  -0.354  0.00  0.00    +0.155 HD
ATOM      4  O   LIG    1       -2.331  -1.080  -2.929  0.00  0.00    -0.270 OA
ENDROOT
BRANCH   2   5
ATOM      5  C   LIG    1       -5.045  -0.832  -1.915  0.00  0.00    +0.077 A 
ATOM      6  C   LIG    1       -6.210  -0.575  -1.174  0.00  0.00    +0.160 A 
ATOM      7  O   LIG    1       -6.120   0.029   0.009  0.00  0.00    -0.450 OA
ATOM      8  C   LIG    1       -7.159   0.302   0.757  0.00  0.00    +0.177 A 
ATOM      9  C   LIG    1       -8.407  -0.054   0.295  0.00  0.00    +0.101 A 
ATOM     10  C   LIG    1       -8.575  -0.687  -0.931  0.00  0.00    +0.193 A 
ATOM     11  O   LIG    1       -9.694  -1.015  -1.365  0.00  0.00    -0.287 OA
ATOM     12  C   LIG    1       -7.431  -0.946  -1.673  0.00  0.00    +0.066 A 
ATOM     13  C   LIG    1       -7.514  -1.578  -2.914  0.00  0.00    +0.015 A 
ATOM     14  C   LIG    1       -6.360  -1.821  -3.626  0.00  0.00    +0.003 A 
ATOM     15  C   LIG    1       -5.104  -1.453  -3.139  0.00  0.00    +0.027 A 
BRANCH   8  16
ATOM     16  C   LIG    1       -7.016   0.966   2.052  0.00  0.00    +0.215 A 
ATOM     17  N   LIG    1       -8.005   1.287   2.886  0.00  0.00    -0.105 NA
ATOM     18  N   LIG    1       -7.535   1.879   3.972  0.00  0.00    -0.023 NA
ATOM     19  N   LIG    1       -6.227   1.926   3.807  0.00  0.00    -0.046 NA
ATOM     20  N   LIG    1       -5.887   1.373   2.637  0.00  0.00    -0.236 N 
ATOM     21  H   LIG    1       -4.914   1.295   2.289  0.00  0.00    +0.192 HD
ENDBRANCH   8  16
ENDBRANCH   2   5
BRANCH   1  26
ATOM     22  C   LIG    1       -0.302   1.238   0.676  0.00  0.00    +0.046 A 
ATOM     23  C   LIG    1        0.946   0.851   0.248  0.00  0.00    +0.121 A 
ATOM     24  C   LIG    1        1.028   0.020  -0.842  0.00  0.00    +0.046 A 
ATOM     25  C   LIG    1       -0.074  -0.442  -1.522  0.00  0.00    +0.016 A 
ATOM     26  C   LIG    1       -1.344  -0.051  -1.090  0.00  0.00    +0.037 A 
ATOM     27  C   LIG    1       -1.442   0.782   0.001  0.00  0.00    +0.016 A 
BRANCH  23  28
ATOM     28  O   LIG    1        2.048   1.306   0.919  0.00  0.00    -0.492 OA
BRANCH  28  29
ATOM     29  C   LIG    1        3.381   0.978   0.575  0.00  0.00    +0.229 C 
BRANCH  29  30
ATOM     30  C   LIG    1        4.374   1.628   1.496  0.00  0.00    +0.041 C 
BRANCH  30  31
ATOM     31  C   LIG    1        5.791   1.327   1.192  0.00  0.00    +0.008 C 
BRANCH  31  32
ATOM     32  C   LIG    1        6.093  -0.147   1.266  0.00  0.00    +0.035 C 
BRANCH  32  33
ATOM     33  C   LIG    1        7.485  -0.472   0.971  0.00  0.00    -0.047 A 
ATOM     34  C   LIG    1        8.470  -0.531   1.940  0.00  0.00    +0.003 A 
ATOM     35  C   LIG    1        9.778  -0.846   1.595  0.00  0.00    +0.000 A 
ATOM     36  C   LIG    1       10.137  -1.108   0.291  0.00  0.00    +0.000 A 
ATOM     37  C   LIG    1        9.158  -1.050  -0.675  0.00  0.00    +0.000 A 
ATOM     38  C   LIG    1        7.845  -0.735  -0.334  0.00  0.00    +0.003 A 
ENDBRANCH  32  33
ENDBRANCH  31  32
ENDBRANCH  30  31
ENDBRANCH  29  30
ENDBRANCH  28  29
ENDBRANCH  23  28
ENDBRANCH   1  26
TORSDOF 9
