REMARK  Name = molecules/NCEXYHBECQHGNR-QZQOTICOSA-N.pdb
REMARK                            x       y       z     vdW  Elec       q    Type
REMARK                         _______ _______ _______ _____ _____    ______ ____
ROOT
ATOM      1  C   LIG    1       -0.264   0.802   0.124  0.00  0.00    +0.086 A 
ATOM      2  C   LIG    1        0.476   0.247   1.132  0.00  0.00    +0.031 A 
ATOM      3  C   LIG    1        1.778   0.689   1.358  0.00  0.00    +0.031 A 
ATOM      4  C   LIG    1        2.378   1.672   0.611  0.00  0.00    +0.109 A 
ATOM      5  C   LIG    1        1.591   2.219  -0.413  0.00  0.00    +0.031 A 
ATOM      6  C   LIG    1        0.299   1.786  -0.643  0.00  0.00    +0.031 A 
ENDROOT
BRANCH   4   7
ATOM      7  S   LIG    1        3.987   2.257   0.904  0.00  0.00    +0.073 S 
ATOM      8  O   LIG    1        4.462   1.861   2.291  0.00  0.00    -0.150 OA
ATOM      9  O   LIG    1        4.025   3.775   0.821  0.00  0.00    -0.150 OA
BRANCH   7  10
ATOM     10  N   LIG    1        5.122   1.654  -0.230  0.00  0.00    -0.199 N 
ATOM     11  H   LIG    1        5.625   2.368  -0.858  0.00  0.00    +0.175 HD
BRANCH  10  12
ATOM     12  C   LIG    1        5.471   0.304  -0.431  0.00  0.00    +0.138 A 
ATOM     13  C   LIG    1        4.968  -0.743   0.306  0.00  0.00    +0.045 A 
ATOM     14  C   LIG    1        5.385  -2.041   0.050  0.00  0.00    +0.005 A 
ATOM     15  C   LIG    1        6.303  -2.316  -0.936  0.00  0.00    +0.020 A 
ATOM     16  C   LIG    1        6.777  -1.238  -1.645  0.00  0.00    +0.113 A 
ATOM     17  N   LIG    1        6.370   0.001  -1.391  0.00  0.00    -0.239 NA
ENDBRANCH  10  12
ENDBRANCH   7  10
ENDBRANCH   4   7
BRANCH   1  19
ATOM     18  N   LIG    1       -2.616   1.047   0.120  0.00  0.00    -0.149 NA
ATOM     19  N   LIG    1       -1.580   0.361  -0.110  0.00  0.00    -0.149 NA
BRANCH  18  22
ATOM     20  C   LIG    1       -5.548  -1.240  -0.149  0.00  0.00    +0.102 A 
ATOM     21  C   LIG    1       -4.290  -0.764   0.101  0.00  0.00    +0.048 A 
ATOM     22  C   LIG    1       -3.923   0.545  -0.138  0.00  0.00    +0.087 A 
ATOM     23  C   LIG    1       -4.903   1.370  -0.651  0.00  0.00    +0.033 A 
ATOM     24  C   LIG    1       -6.178   0.913  -0.911  0.00  0.00    +0.048 A 
ATOM     25  C   LIG    1       -6.513  -0.407  -0.660  0.00  0.00    +0.131 A 
BRANCH  20  26
ATOM     26  C   LIG    1       -5.840  -2.632   0.134  0.00  0.00    +0.340 C 
ATOM     27  O   LIG    1       -4.972  -3.411   0.602  0.00  0.00    -0.245 OA
BRANCH  26  28
ATOM     28  O   LIG    1       -7.097  -3.129  -0.110  0.00  0.00    -0.477 OA
ATOM     29  H   LIG    1       -7.370  -4.082  -0.126  0.00  0.00    +0.295 HD
ENDBRANCH  26  28
ENDBRANCH  20  26
BRANCH  25  30
ATOM     30  O   LIG    1       -7.812  -0.881  -0.923  0.00  0.00    -0.506 OA
ATOM     31  H   LIG    1       -8.486  -0.230  -1.298  0.00  0.00    +0.292 HD
ENDBRANCH  25  30
ENDBRANCH  18  22
ENDBRANCH   1  19
TORSDOF 8
