REMARK  Name = molecules/NCMZQTLCXHGLOK-ZKHIMWLXSA-N.pdb
REMARK                            x       y       z     vdW  Elec       q    Type
REMARK                         _______ _______ _______ _____ _____    ______ ____
ROOT
ATOM      1  C   LIG    1        0.431   1.655   1.068  0.00  0.00    +0.016 C 
ATOM      2  C   LIG    1        0.722   0.355   0.300  0.00  0.00    -0.008 C 
ATOM      3  C   LIG    1        1.629  -0.463   1.141  0.00  0.00    +0.015 C 
ATOM      4  C   LIG    1        3.036   0.062   1.014  0.00  0.00    +0.046 C 
ATOM      5  C   LIG    1        3.451  -0.245  -0.432  0.00  0.00    +0.180 C 
ATOM      6  C   LIG    1        2.652   0.587  -1.377  0.00  0.00    +0.075 C 
ATOM      7  C   LIG    1       -0.599  -0.342   0.010  0.00  0.00    +0.003 C 
ATOM      8  C   LIG    1       -1.068  -1.188   1.136  0.00  0.00    +0.005 C 
ATOM      9  C   LIG    1       -2.382  -1.835   0.722  0.00  0.00    +0.015 C 
ATOM     10  C   LIG    1       -3.361  -0.726   0.536  0.00  0.00    +0.029 C 
ATOM     11  C   LIG    1       -3.477   0.142   1.761  0.00  0.00    +0.019 C 
ATOM     12  C   LIG    1       -4.687  -1.139   0.036  0.00  0.00    +0.139 C 
ATOM     13  O   LIG    1       -5.218  -2.198   0.238  0.00  0.00    -0.297 OA
ATOM     14  C   LIG    1       -5.214  -0.003  -0.750  0.00  0.00    +0.075 C 
ATOM     15  C   LIG    1       -4.037   0.973  -0.906  0.00  0.00    +0.012 C 
ATOM     16  C   LIG    1       -2.879   0.079  -0.678  0.00  0.00    +0.006 C 
ATOM     17  C   LIG    1       -1.560   0.730  -0.415  0.00  0.00    +0.001 C 
ATOM     18  C   LIG    1       -1.076   1.375  -1.693  0.00  0.00    +0.031 C 
ATOM     19  C   LIG    1        0.376   1.191  -1.921  0.00  0.00    -0.027 C 
ATOM     20  C   LIG    1        1.228   0.727  -1.033  0.00  0.00    -0.064 C 
ENDROOT
BRANCH   5  21
ATOM     21  O   LIG    1        4.828  -0.033  -0.615  0.00  0.00    -0.461 OA
BRANCH  21  22
ATOM     22  C   LIG    1        5.740  -1.030  -0.897  0.00  0.00    +0.304 C 
ATOM     23  O   LIG    1        5.295  -2.206  -0.995  0.00  0.00    -0.251 OA
ATOM     24  C   LIG    1        7.199  -0.766  -1.085  0.00  0.00    +0.136 C 
ENDBRANCH  21  22
ENDBRANCH   5  21
TORSDOF 2
