REMARK  Name = molecules/NCWZOASIUQVOFA-FWZJPQCDSA-N.pdb
REMARK                            x       y       z     vdW  Elec       q    Type
REMARK                         _______ _______ _______ _____ _____    ______ ____
ROOT
ATOM      1  C   LIG    1       -0.688  -0.676   0.389  0.00  0.00    -0.025 A 
ATOM      2  C   LIG    1       -0.587  -1.331   1.578  0.00  0.00    +0.011 A 
ATOM      3  C   LIG    1        0.625  -1.780   2.071  0.00  0.00    +0.046 A 
ATOM      4  C   LIG    1        1.789  -1.567   1.348  0.00  0.00    +0.121 A 
ATOM      5  C   LIG    1        1.698  -0.911   0.151  0.00  0.00    +0.046 A 
ATOM      6  C   LIG    1        0.471  -0.471  -0.320  0.00  0.00    +0.011 A 
ENDROOT
BRANCH   1   8
ATOM      7  C   LIG    1       -3.121  -0.341   0.454  0.00  0.00    +0.008 C 
ATOM      8  C   LIG    1       -1.958  -0.206  -0.128  0.00  0.00    +0.008 C 
BRANCH   7  11
ATOM      9  C   LIG    1       -6.778   0.347   0.207  0.00  0.00    +0.023 A 
ATOM     10  C   LIG    1       -5.562  -0.083   0.664  0.00  0.00    +0.010 A 
ATOM     11  C   LIG    1       -4.394   0.138  -0.078  0.00  0.00    -0.025 A 
ATOM     12  C   LIG    1       -4.487   0.797  -1.279  0.00  0.00    +0.010 A 
ATOM     13  C   LIG    1       -5.747   1.220  -1.708  0.00  0.00    +0.023 A 
ATOM     14  C   LIG    1       -6.898   1.008  -0.989  0.00  0.00    +0.027 A 
BRANCH  14  15
ATOM     15  N   LIG    1       -8.166   1.441  -1.436  0.00  0.00    -0.347 N 
ATOM     16  C   LIG    1       -9.329   1.181  -0.622  0.00  0.00    +0.125 C 
ATOM     17  H   LIG    1       -8.253   1.935  -2.330  0.00  0.00    +0.146 HD
ENDBRANCH  14  15
ENDBRANCH   7  11
ENDBRANCH   1   8
BRANCH   4  18
ATOM     18  O   LIG    1        2.942  -2.041   1.899  0.00  0.00    -0.490 OA
BRANCH  18  19
ATOM     19  C   LIG    1        4.255  -1.983   1.469  0.00  0.00    +0.257 C 
BRANCH  19  20
ATOM     20  C   LIG    1        4.841  -0.588   1.366  0.00  0.00    +0.201 C 
BRANCH  20  21
ATOM     21  O   LIG    1        6.129  -0.580   0.937  0.00  0.00    -0.374 OA
BRANCH  21  22
ATOM     22  C   LIG    1        6.480  -1.081  -0.248  0.00  0.00    +0.188 C 
BRANCH  22  23
ATOM     23  C   LIG    1        6.023  -0.461  -1.522  0.00  0.00    +0.188 C 
BRANCH  23  24
ATOM     24  O   LIG    1        6.396   0.824  -1.747  0.00  0.00    -0.375 OA
BRANCH  24  25
ATOM     25  C   LIG    1        5.906   1.825  -0.987  0.00  0.00    +0.193 C 
BRANCH  25  26
ATOM     26  C   LIG    1        4.425   2.081  -1.187  0.00  0.00    +0.241 C 
ATOM     27  F   LIG    1        4.189   2.452  -2.517  0.00  0.00    -0.247 F 
ENDBRANCH  25  26
ENDBRANCH  24  25
ENDBRANCH  23  24
ENDBRANCH  22  23
ENDBRANCH  21  22
ENDBRANCH  20  21
ENDBRANCH  19  20
ENDBRANCH  18  19
ENDBRANCH   4  18
TORSDOF 12
