REMARK  Name = molecules/NCYVXEGFNDZQCU-UHFFFAOYSA-N.pdb
REMARK                            x       y       z     vdW  Elec       q    Type
REMARK                         _______ _______ _______ _____ _____    ______ ____
ROOT
ATOM      1  N   LIG    1       -1.026  -0.234  -0.321  0.00  0.00    -0.298 N 
ATOM      2  C   LIG    1        0.186   0.028  -0.949  0.00  0.00    +0.248 C 
ATOM      3  O   LIG    1        0.133  -0.045  -2.250  0.00  0.00    -0.270 OA
ENDROOT
BRANCH   2   4
ATOM      4  C   LIG    1        1.482   0.362  -0.443  0.00  0.00    +0.055 A 
ATOM      5  C   LIG    1        1.743   0.605   0.878  0.00  0.00    +0.016 A 
ATOM      6  C   LIG    1        3.046   0.904   1.323  0.00  0.00    +0.020 A 
ATOM      7  C   LIG    1        4.104   0.966   0.453  0.00  0.00    +0.111 A 
ATOM      8  N   LIG    1        3.833   0.727  -0.837  0.00  0.00    -0.263 NA
ATOM      9  C   LIG    1        2.604   0.440  -1.284  0.00  0.00    +0.123 A 
ENDBRANCH   2   4
BRANCH   1  11
ATOM     10  C   LIG    1       -1.805   1.010   1.669  0.00  0.00    +0.024 C 
ATOM     11  C   LIG    1       -1.380  -0.292   1.055  0.00  0.00    +0.104 C 
ENDBRANCH   1  11
BRANCH   1  12
ATOM     12  C   LIG    1       -2.179  -0.500  -1.249  0.00  0.00    +0.104 C 
ATOM     13  C   LIG    1       -2.153  -1.996  -1.463  0.00  0.00    +0.024 C 
ENDBRANCH   1  12
TORSDOF 3
