REMARK  Name = molecules/NCZXKYCNHGRFHE-UHFFFAOYSA-N.pdb
REMARK                            x       y       z     vdW  Elec       q    Type
REMARK                         _______ _______ _______ _____ _____    ______ ____
ROOT
ATOM      1  C   LIG    1        0.936  -0.029  -0.136  0.00  0.00    -0.004 C 
ATOM      2  C   LIG    1        0.867  -0.721   1.137  0.00  0.00    +0.008 C 
ATOM      3  C   LIG    1       -0.419  -0.862   1.504  0.00  0.00    +0.009 C 
ATOM      4  C   LIG    1       -1.267  -0.261   0.475  0.00  0.00    -0.013 C 
ATOM      5  C   LIG    1       -2.580  -0.184   0.478  0.00  0.00    +0.033 C 
ATOM      6  C   LIG    1       -0.333   0.236  -0.516  0.00  0.00    +0.016 C 
ENDROOT
BRANCH   5   7
ATOM      7  C   LIG    1       -3.367  -0.763   1.576  0.00  0.00    +0.074 A 
ATOM      8  N   LIG    1       -3.026  -1.932   2.130  0.00  0.00    -0.255 NA
ATOM      9  C   LIG    1       -3.751  -2.481   3.139  0.00  0.00    +0.111 A 
ATOM     10  C   LIG    1       -4.859  -1.854   3.626  0.00  0.00    +0.020 A 
ATOM     11  C   LIG    1       -5.246  -0.655   3.090  0.00  0.00    +0.004 A 
ATOM     12  C   LIG    1       -4.483  -0.109   2.050  0.00  0.00    +0.028 A 
ENDBRANCH   5   7
BRANCH   5  13
ATOM     13  C   LIG    1       -3.314   0.475  -0.613  0.00  0.00    +0.074 A 
ATOM     14  C   LIG    1       -2.973   1.702  -1.132  0.00  0.00    +0.028 A 
ATOM     15  C   LIG    1       -3.682   2.280  -2.177  0.00  0.00    +0.004 A 
ATOM     16  C   LIG    1       -4.763   1.614  -2.716  0.00  0.00    +0.020 A 
ATOM     17  C   LIG    1       -5.099   0.385  -2.188  0.00  0.00    +0.111 A 
ATOM     18  N   LIG    1       -4.390  -0.143  -1.179  0.00  0.00    -0.255 NA
ENDBRANCH   5  13
BRANCH   1  19
ATOM     19  C   LIG    1        2.174   0.317  -0.875  0.00  0.00    +0.175 C 
BRANCH  19  20
ATOM     20  C   LIG    1        3.032   1.206  -0.084  0.00  0.00    +0.083 A 
ATOM     21  C   LIG    1        3.782   0.742   0.966  0.00  0.00    +0.027 A 
ATOM     22  C   LIG    1        4.554   1.674   1.654  0.00  0.00    +0.003 A 
ATOM     23  C   LIG    1        4.577   3.009   1.310  0.00  0.00    +0.020 A 
ATOM     24  C   LIG    1        3.811   3.412   0.257  0.00  0.00    +0.111 A 
ATOM     25  N   LIG    1        3.072   2.521  -0.401  0.00  0.00    -0.256 NA
ENDBRANCH  19  20
BRANCH  19  26
ATOM     26  C   LIG    1        2.977  -0.882  -1.238  0.00  0.00    +0.083 A 
ATOM     27  N   LIG    1        2.695  -2.130  -0.830  0.00  0.00    -0.256 NA
ATOM     28  C   LIG    1        3.456  -3.191  -1.186  0.00  0.00    +0.111 A 
ATOM     29  C   LIG    1        4.579  -3.032  -2.001  0.00  0.00    +0.020 A 
ATOM     30  C   LIG    1        4.887  -1.761  -2.432  0.00  0.00    +0.003 A 
ATOM     31  C   LIG    1        4.081  -0.703  -2.044  0.00  0.00    +0.027 A 
ENDBRANCH  19  26
BRANCH  19  32
ATOM     32  O   LIG    1        1.778   0.994  -2.055  0.00  0.00    -0.372 OA
ATOM     33  H   LIG    1        2.128   0.494  -2.833  0.00  0.00    +0.212 HD
ENDBRANCH  19  32
ENDBRANCH   1  19
TORSDOF 6
