REMARK  Name = molecules/NDAUXUAQIAJITI-GFCCVEGCSA-N.pdb
REMARK                            x       y       z     vdW  Elec       q    Type
REMARK                         _______ _______ _______ _____ _____    ______ ____
ROOT
ATOM      1  C   LIG    1        1.431  -0.163  -0.519  0.00  0.00    -0.017 A 
ATOM      2  C   LIG    1        1.371  -1.478  -0.221  0.00  0.00    +0.010 A 
ATOM      3  C   LIG    1        2.513  -2.084   0.266  0.00  0.00    +0.046 A 
ATOM      4  C   LIG    1        3.628  -1.380   0.435  0.00  0.00    +0.122 A 
ATOM      5  C   LIG    1        3.780  -0.064   0.117  0.00  0.00    +0.020 A 
ATOM      6  C   LIG    1        2.629   0.563  -0.381  0.00  0.00    +0.015 A 
ENDROOT
BRANCH   4   7
ATOM      7  O   LIG    1        4.786  -1.976   1.001  0.00  0.00    -0.506 OA
ATOM      8  H   LIG    1        4.822  -2.907   1.336  0.00  0.00    +0.292 HD
ENDBRANCH   4   7
BRANCH   1   9
ATOM      9  C   LIG    1        0.213   0.700  -0.780  0.00  0.00    +0.158 C 
BRANCH   9  10
ATOM     10  O   LIG    1        0.317   1.815   0.096  0.00  0.00    -0.386 OA
ATOM     11  H   LIG    1        0.325   1.567   1.038  0.00  0.00    +0.210 HD
ENDBRANCH   9  10
BRANCH   9  12
ATOM     12  C   LIG    1       -1.042  -0.049  -0.302  0.00  0.00    +0.117 C 
BRANCH  12  13
ATOM     13  N   LIG    1       -2.067   0.944  -0.139  0.00  0.00    -0.309 NA
ATOM     14  H   LIG    1       -1.748   1.671   0.514  0.00  0.00    +0.123 HD
BRANCH  13  15
ATOM     15  C   LIG    1       -3.401   0.486   0.042  0.00  0.00    +0.011 C 
ATOM     16  C   LIG    1       -4.153   1.457   0.900  0.00  0.00    +0.027 C 
ATOM     17  C   LIG    1       -3.393  -0.899   0.733  0.00  0.00    +0.027 C 
ATOM     18  C   LIG    1       -4.058   0.233  -1.294  0.00  0.00    +0.027 C 
ENDBRANCH  13  15
ENDBRANCH  12  13
ENDBRANCH   9  12
ENDBRANCH   1   9
BRANCH   5  19
ATOM     19  C   LIG    1        5.078   0.668   0.199  0.00  0.00    +0.194 C 
BRANCH  19  20
ATOM     20  O   LIG    1        5.443   0.883  -1.166  0.00  0.00    -0.390 OA
ATOM     21  H   LIG    1        4.998   0.157  -1.740  0.00  0.00    +0.210 HD
ENDBRANCH  19  20
ENDBRANCH   5  19
TORSDOF 8
