REMARK  Name = molecules/NDAUXUAQIAJITI-LBPRGKRZSA-N.pdb
REMARK                            x       y       z     vdW  Elec       q    Type
REMARK                         _______ _______ _______ _____ _____    ______ ____
ROOT
ATOM      1  C   LIG    1        1.354  -1.226  -0.374  0.00  0.00    -0.017 A 
ATOM      2  C   LIG    1        2.065  -0.298   0.370  0.00  0.00    +0.015 A 
ATOM      3  C   LIG    1        3.420  -0.076   0.163  0.00  0.00    +0.020 A 
ATOM      4  C   LIG    1        4.121  -0.769  -0.791  0.00  0.00    +0.122 A 
ATOM      5  C   LIG    1        3.440  -1.698  -1.547  0.00  0.00    +0.046 A 
ATOM      6  C   LIG    1        2.076  -1.909  -1.328  0.00  0.00    +0.010 A 
ENDROOT
BRANCH   4   7
ATOM      7  O   LIG    1        5.471  -0.514  -0.959  0.00  0.00    -0.506 OA
ATOM      8  H   LIG    1        5.954  -1.060  -1.690  0.00  0.00    +0.292 HD
ENDBRANCH   4   7
BRANCH   1   9
ATOM      9  C   LIG    1       -0.083  -1.445  -0.094  0.00  0.00    +0.158 C 
BRANCH   9  10
ATOM     10  O   LIG    1       -0.251  -1.838   1.263  0.00  0.00    -0.386 OA
ATOM     11  H   LIG    1       -0.508  -2.782   1.311  0.00  0.00    +0.210 HD
ENDBRANCH   9  10
BRANCH   9  12
ATOM     12  C   LIG    1       -0.870  -0.129  -0.288  0.00  0.00    +0.117 C 
BRANCH  12  13
ATOM     13  N   LIG    1       -2.223  -0.380   0.012  0.00  0.00    -0.309 NA
ATOM     14  H   LIG    1       -2.536  -1.317   0.212  0.00  0.00    +0.123 HD
BRANCH  13  15
ATOM     15  C   LIG    1       -3.138   0.691  -0.017  0.00  0.00    +0.011 C 
ATOM     16  C   LIG    1       -3.303   1.367   1.343  0.00  0.00    +0.027 C 
ATOM     17  C   LIG    1       -4.518   0.164  -0.370  0.00  0.00    +0.027 C 
ATOM     18  C   LIG    1       -2.781   1.722  -1.059  0.00  0.00    +0.027 C 
ENDBRANCH  13  15
ENDBRANCH  12  13
ENDBRANCH   9  12
ENDBRANCH   1   9
BRANCH   3  19
ATOM     19  C   LIG    1        4.144   0.942   0.989  0.00  0.00    +0.194 C 
BRANCH  19  20
ATOM     20  O   LIG    1        3.212   1.508   1.857  0.00  0.00    -0.390 OA
ATOM     21  H   LIG    1        2.772   2.260   1.352  0.00  0.00    +0.210 HD
ENDBRANCH  19  20
ENDBRANCH   3  19
TORSDOF 8
