REMARK  Name = molecules/NDDAHWYSQHTHNT-SNVBAGLBSA-N.pdb
REMARK                            x       y       z     vdW  Elec       q    Type
REMARK                         _______ _______ _______ _____ _____    ______ ____
ROOT
ATOM      1  C   LIG    1        0.524   0.399   0.322  0.00  0.00    +0.260 C 
ATOM      2  O   LIG    1        0.228   0.445   1.527  0.00  0.00    -0.269 OA
ATOM      3  N   LIG    1       -0.476   0.418  -0.681  0.00  0.00    -0.230 N 
ATOM      4  H   LIG    1       -0.146   0.377  -1.701  0.00  0.00    +0.173 HD
ENDROOT
BRANCH   3   5
ATOM      5  N   LIG    1       -1.836   0.486  -0.433  0.00  0.00    -0.247 N 
ATOM      6  C   LIG    1       -2.700  -0.498   0.116  0.00  0.00    +0.051 A 
ATOM      7  C   LIG    1       -2.441  -1.516   1.025  0.00  0.00    +0.025 A 
ATOM      8  C   LIG    1       -3.501  -2.324   1.393  0.00  0.00    +0.002 A 
ATOM      9  C   LIG    1       -4.767  -2.120   0.870  0.00  0.00    +0.000 A 
ATOM     10  C   LIG    1       -5.017  -1.112  -0.030  0.00  0.00    +0.005 A 
ATOM     11  C   LIG    1       -3.987  -0.303  -0.407  0.00  0.00    -0.023 A 
ATOM     12  C   LIG    1       -3.886   0.843  -1.345  0.00  0.00    +0.061 C 
ATOM     13  C   LIG    1       -2.728   1.628  -0.707  0.00  0.00    +0.096 C 
ATOM     14  C   LIG    1       -3.224   2.141   0.611  0.00  0.00    +0.030 C 
ENDBRANCH   3   5
BRANCH   1  16
ATOM     15  C   LIG    1        2.303   0.943  -1.233  0.00  0.00    +0.014 A 
ATOM     16  C   LIG    1        1.927   0.323  -0.058  0.00  0.00    +0.040 A 
ATOM     17  C   LIG    1        2.899  -0.338   0.652  0.00  0.00    +0.043 A 
ATOM     18  C   LIG    1        4.217  -0.379   0.194  0.00  0.00    +0.124 A 
ATOM     19  C   LIG    1        4.553   0.252  -0.984  0.00  0.00    +0.067 A 
ATOM     20 CL   LIG    1        6.205   0.233  -1.607  0.00  0.00    -0.082 Cl
ATOM     21  C   LIG    1        3.595   0.919  -1.706  0.00  0.00    +0.023 A 
BRANCH  18  22
ATOM     22  S   LIG    1        5.470  -1.249   1.079  0.00  0.00    +0.057 S 
ATOM     23  O   LIG    1        4.893  -1.973   2.247  0.00  0.00    -0.153 OA
ATOM     24  O   LIG    1        6.008  -2.285   0.097  0.00  0.00    -0.153 OA
BRANCH  22  25
ATOM     25  N   LIG    1        6.756  -0.210   1.493  0.00  0.00    -0.203 NA
ATOM     26  H   LIG    1        6.565   0.787   1.232  0.00  0.00    +0.144 HD
ATOM     27  H   LIG    1        7.656  -0.473   0.984  0.00  0.00    +0.144 HD
ENDBRANCH  22  25
ENDBRANCH  18  22
ENDBRANCH   1  16
TORSDOF 4
