REMARK  Name = molecules/NDTSRXAMMQDVSW-UHFFFAOYSA-N.pdb
REMARK                            x       y       z     vdW  Elec       q    Type
REMARK                         _______ _______ _______ _____ _____    ______ ____
ROOT
ATOM      1  O   LIG    1       -3.463   2.417  -2.620  0.00  0.00    -0.130 OA
ATOM      2  S   LIG    1       -2.648   2.476  -1.338  0.00  0.00    +0.136 S 
ATOM      3  O   LIG    1       -3.261   3.454  -0.381  0.00  0.00    -0.130 OA
ATOM      4  C   LIG    1       -2.534   0.874  -0.649  0.00  0.00    +0.181 A 
ATOM      5  C   LIG    1       -3.651   0.211  -0.200  0.00  0.00    +0.065 A 
ATOM      6  C   LIG    1       -3.535  -1.048   0.333  0.00  0.00    +0.125 A 
ATOM      7  C   LIG    1       -2.313  -1.685   0.438  0.00  0.00    +0.071 A 
ATOM      8 CL   LIG    1       -2.200  -3.289   1.123  0.00  0.00    -0.081 Cl
ATOM      9  C   LIG    1       -1.223  -0.994  -0.019  0.00  0.00    +0.079 A 
ATOM     10  C   LIG    1       -1.297   0.295  -0.571  0.00  0.00    +0.206 A 
ATOM     11  N   LIG    1       -0.106   0.890  -0.994  0.00  0.00    -0.042 NA
ATOM     12  C   LIG    1        0.052   2.040  -1.510  0.00  0.00    +0.320 C 
ATOM     13  N   LIG    1       -1.043   2.921  -1.736  0.00  0.00    -0.093 N 
ATOM     14  H   LIG    1       -0.794   3.838  -2.153  0.00  0.00    +0.325 HD
ENDROOT
BRANCH   6  15
ATOM     15  S   LIG    1       -4.964  -1.909   0.914  0.00  0.00    +0.057 S 
ATOM     16  O   LIG    1       -4.798  -2.084   2.414  0.00  0.00    -0.153 OA
ATOM     17  O   LIG    1       -5.038  -3.209   0.201  0.00  0.00    -0.153 OA
BRANCH  15  18
ATOM     18  N   LIG    1       -6.341  -0.913   0.673  0.00  0.00    -0.203 NA
ATOM     19  H   LIG    1       -6.229  -0.084   1.308  0.00  0.00    +0.144 HD
ATOM     20  H   LIG    1       -6.356  -0.604  -0.330  0.00  0.00    +0.144 HD
ENDBRANCH  15  18
ENDBRANCH   6  15
BRANCH  12  21
ATOM     21  C   LIG    1        1.448   2.453  -1.884  0.00  0.00    +0.199 C 
BRANCH  21  22
ATOM     22  S   LIG    1        2.610   1.127  -1.490  0.00  0.00    -0.144 S 
BRANCH  22  23
ATOM     23  C   LIG    1        2.727   0.856   0.297  0.00  0.00    +0.104 C 
BRANCH  23  24
ATOM     24  C   LIG    1        3.693  -0.250   0.514  0.00  0.00    -0.038 A 
ATOM     25  C   LIG    1        5.019   0.070   0.673  0.00  0.00    +0.004 A 
ATOM     26  C   LIG    1        5.906  -0.987   0.874  0.00  0.00    +0.000 A 
ATOM     27  C   LIG    1        5.442  -2.289   0.908  0.00  0.00    +0.000 A 
ATOM     28  C   LIG    1        4.092  -2.569   0.743  0.00  0.00    +0.000 A 
ATOM     29  C   LIG    1        3.207  -1.534   0.543  0.00  0.00    +0.004 A 
ENDBRANCH  23  24
ENDBRANCH  22  23
ENDBRANCH  21  22
ENDBRANCH  12  21
TORSDOF 6
