REMARK  Name = molecules/NEDPPCHNEOMTJV-UHFFFAOYSA-N.pdb
REMARK                            x       y       z     vdW  Elec       q    Type
REMARK                         _______ _______ _______ _____ _____    ______ ____
ROOT
ATOM      1  S   LIG    1        0.184   1.961   0.741  0.00  0.00    +0.025 S 
ATOM      2  O   LIG    1        0.091   2.328   2.205  0.00  0.00    -0.164 OA
ATOM      3  O   LIG    1        0.447   3.184  -0.093  0.00  0.00    -0.164 OA
ENDROOT
BRANCH   1   4
ATOM      4  C   LIG    1        1.511   0.814   0.602  0.00  0.00    +0.094 A 
ATOM      5  C   LIG    1        1.872   0.008   1.676  0.00  0.00    +0.029 A 
ATOM      6  C   LIG    1        2.914  -0.883   1.547  0.00  0.00    +0.025 A 
ATOM      7  C   LIG    1        3.640  -1.018   0.362  0.00  0.00    +0.028 A 
ATOM      8  C   LIG    1        3.251  -0.202  -0.679  0.00  0.00    +0.025 A 
ATOM      9  C   LIG    1        2.213   0.695  -0.569  0.00  0.00    +0.029 A 
BRANCH   7  10
ATOM     10  N   LIG    1        4.706  -1.936   0.301  0.00  0.00    -0.326 N 
ATOM     11  H   LIG    1        4.800  -2.680   1.020  0.00  0.00    +0.148 HD
BRANCH  10  12
ATOM     12  C   LIG    1        5.672  -1.845  -0.762  0.00  0.00    +0.264 C 
BRANCH  12  13
ATOM     13  S   LIG    1        6.696  -0.410  -0.538  0.00  0.00    -0.048 S 
ATOM     14  O   LIG    1        5.894   0.845  -0.436  0.00  0.00    -0.080 OA
BRANCH  13  15
ATOM     15  O   LIG    1        7.821  -0.313  -1.796  0.00  0.00    -0.277 OA
ATOM     16  H   LIG    1        8.376   0.517  -1.713  0.00  0.00    +0.242 HD
ENDBRANCH  13  15
ENDBRANCH  12  13
ENDBRANCH  10  12
ENDBRANCH   7  10
ENDBRANCH   1   4
BRANCH   1  17
ATOM     17  C   LIG    1       -1.319   1.190   0.272  0.00  0.00    +0.094 A 
ATOM     18  C   LIG    1       -2.095   0.545   1.199  0.00  0.00    +0.029 A 
ATOM     19  C   LIG    1       -3.280  -0.056   0.795  0.00  0.00    +0.025 A 
ATOM     20  C   LIG    1       -3.715  -0.027  -0.529  0.00  0.00    +0.028 A 
ATOM     21  C   LIG    1       -2.930   0.622  -1.456  0.00  0.00    +0.025 A 
ATOM     22  C   LIG    1       -1.760   1.213  -1.047  0.00  0.00    +0.029 A 
BRANCH  20  23
ATOM     23  N   LIG    1       -4.906  -0.646  -0.971  0.00  0.00    -0.325 N 
ATOM     24  H   LIG    1       -5.021  -0.789  -2.011  0.00  0.00    +0.148 HD
BRANCH  23  25
ATOM     25  C   LIG    1       -5.904  -1.057  -0.039  0.00  0.00    +0.278 C 
BRANCH  25  26
ATOM     26  S   LIG    1       -6.770   0.234   0.795  0.00  0.00    +0.012 S 
ATOM     27  O   LIG    1       -6.109   0.841   1.980  0.00  0.00    -0.165 OA
BRANCH  26  28
ATOM     28  O   LIG    1       -7.611   1.288  -0.196  0.00  0.00    -0.268 OA
ATOM     29  H   LIG    1       -8.380   1.705   0.246  0.00  0.00    +0.243 HD
ENDBRANCH  26  28
ENDBRANCH  25  26
ENDBRANCH  23  25
ENDBRANCH  20  23
ENDBRANCH   1  17
TORSDOF 10
