REMARK  Name = molecules/NEIPZWZQHXCYDV-RFZPGFLSSA-N.pdb
REMARK                            x       y       z     vdW  Elec       q    Type
REMARK                         _______ _______ _______ _____ _____    ______ ____
ROOT
ATOM      1  C   LIG    1        0.650  -0.054   0.248  0.00  0.00    +0.172 C 
ATOM      2  O   LIG    1       -0.326   0.927   0.357  0.00  0.00    -0.343 OA
ATOM      3  C   LIG    1       -1.399   0.526  -0.436  0.00  0.00    +0.260 C 
ATOM      4  O   LIG    1       -0.905  -0.283  -1.433  0.00  0.00    -0.348 OA
ATOM      5  C   LIG    1        0.240  -0.879  -0.945  0.00  0.00    +0.197 C 
ENDROOT
BRANCH   3   6
ATOM      6  C   LIG    1       -2.377  -0.180   0.478  0.00  0.00    +0.135 C 
ATOM      7  I   LIG    1       -2.966   1.242   1.970  0.00  0.00    -0.080 I 
ENDBRANCH   3   6
BRANCH   1   8
ATOM      8  C   LIG    1        1.973   0.655   0.027  0.00  0.00    +0.189 C 
BRANCH   8   9
ATOM      9  O   LIG    1        3.012  -0.244  -0.094  0.00  0.00    -0.392 OA
ATOM     10  H   LIG    1        3.205  -0.629   0.783  0.00  0.00    +0.210 HD
ENDBRANCH   8   9
ENDBRANCH   1   8
TORSDOF 3
