REMARK  Name = molecules/NEUSVAOJNUQRTM-UHFFFAOYSA-N.pdb
REMARK                            x       y       z     vdW  Elec       q    Type
REMARK                         _______ _______ _______ _____ _____    ______ ____
ROOT
ATOM      1  C   LIG    1        2.031   2.887   0.133  0.00  0.00    +0.000 C 
ENDROOT
BRANCH   1   2
ATOM      2  C   LIG    1        3.314   2.280   0.632  0.00  0.00    +0.000 C 
BRANCH   2   3
ATOM      3  C   LIG    1        3.049   1.035   1.388  0.00  0.00    +0.002 C 
BRANCH   3   4
ATOM      4  C   LIG    1        4.290   0.337   1.880  0.00  0.00    +0.019 C 
BRANCH   4   5
ATOM      5  C   LIG    1        5.226  -0.152   0.842  0.00  0.00    +0.110 C 
BRANCH   5   6
ATOM      6  N   LIG    1        4.692  -1.154  -0.046  0.00  0.00    -0.313 N 
ATOM      7  C   LIG    1        4.821  -2.461   0.333  0.00  0.00    +0.071 C 
ATOM      8  C   LIG    1        4.344  -3.477  -0.463  0.00  0.00    -0.003 C 
ATOM      9  C   LIG    1        3.732  -3.159  -1.652  0.00  0.00    +0.047 C 
ATOM     10  C   LIG    1        3.595  -1.855  -2.046  0.00  0.00    -0.003 C 
ATOM     11  C   LIG    1        4.098  -0.869  -1.198  0.00  0.00    +0.071 C 
ENDBRANCH   5   6
ENDBRANCH   4   5
ENDBRANCH   3   4
ENDBRANCH   2   3
ENDBRANCH   1   2
BRANCH   1  12
ATOM     12  C   LIG    1        1.145   3.233   1.292  0.00  0.00    +0.000 C 
BRANCH  12  13
ATOM     13  C   LIG    1       -0.136   3.888   0.848  0.00  0.00    -0.000 C 
BRANCH  13  14
ATOM     14  C   LIG    1       -0.932   2.994  -0.051  0.00  0.00    -0.000 C 
BRANCH  14  15
ATOM     15  C   LIG    1       -1.269   1.704   0.674  0.00  0.00    -0.000 C 
BRANCH  15  16
ATOM     16  C   LIG    1       -2.085   0.823  -0.284  0.00  0.00    -0.000 C 
BRANCH  16  17
ATOM     17  C   LIG    1       -2.426  -0.456   0.418  0.00  0.00    -0.000 C 
BRANCH  17  18
ATOM     18  C   LIG    1       -3.229  -1.399  -0.443  0.00  0.00    -0.000 C 
BRANCH  18  19
ATOM     19  C   LIG    1       -4.530  -0.761  -0.857  0.00  0.00    -0.000 C 
BRANCH  19  20
ATOM     20  C   LIG    1       -5.363  -1.681  -1.719  0.00  0.00    -0.000 C 
BRANCH  20  21
ATOM     21  C   LIG    1       -5.710  -2.962  -0.993  0.00  0.00    -0.003 C 
ATOM     22  C   LIG    1       -6.497  -2.707   0.265  0.00  0.00    +0.004 C 
ENDBRANCH  20  21
ENDBRANCH  19  20
ENDBRANCH  18  19
ENDBRANCH  17  18
ENDBRANCH  16  17
ENDBRANCH  15  16
ENDBRANCH  14  15
ENDBRANCH  13  14
ENDBRANCH  12  13
ENDBRANCH   1  12
TORSDOF 15
