REMARK  Name = molecules/NEYNJQRKHLUJRU-DZUOILHNSA-N.pdb
REMARK                            x       y       z     vdW  Elec       q    Type
REMARK                         _______ _______ _______ _____ _____    ______ ____
ROOT
ATOM      1  C   LIG    1       -0.734  -2.266  -1.688  0.00  0.00    +0.160 C 
ENDROOT
BRANCH   1   2
ATOM      2  C   LIG    1       -1.865  -1.311  -1.546  0.00  0.00    +0.234 C 
ATOM      3  O   LIG    1       -1.528  -0.159  -1.093  0.00  0.00    -0.274 OA
ATOM      4  N   LIG    1       -3.192  -1.543  -1.846  0.00  0.00    -0.302 N 
ATOM      5  H   LIG    1       -3.419  -2.538  -2.199  0.00  0.00    +0.150 HD
BRANCH   4   6
ATOM      6  C   LIG    1       -4.321  -0.675  -1.770  0.00  0.00    +0.169 C 
BRANCH   6   7
ATOM      7  C   LIG    1       -4.871  -0.535  -0.395  0.00  0.00    +0.234 C 
ATOM      8  O   LIG    1       -4.265  -1.058   0.557  0.00  0.00    -0.274 OA
ATOM      9  N   LIG    1       -6.061   0.183  -0.159  0.00  0.00    -0.302 N 
ATOM     10  H   LIG    1       -6.564   0.588  -0.986  0.00  0.00    +0.150 HD
BRANCH   9  11
ATOM     11  C   LIG    1       -6.621   0.378   1.164  0.00  0.00    +0.163 C 
BRANCH  11  12
ATOM     12  C   LIG    1       -7.688  -0.681   1.424  0.00  0.00    +0.231 C 
ATOM     13  N   LIG    1       -8.351  -0.723   2.657  0.00  0.00    -0.328 N 
ATOM     14  H   LIG    1       -7.918  -0.305   3.497  0.00  0.00    +0.145 HD
ATOM     15  H   LIG    1       -9.277  -1.173   2.734  0.00  0.00    +0.145 HD
ATOM     16  O   LIG    1       -7.916  -1.474   0.496  0.00  0.00    -0.274 OA
ENDBRANCH  11  12
BRANCH  11  17
ATOM     17  C   LIG    1       -7.380   1.672   1.198  0.00  0.00    +0.067 C 
BRANCH  17  18
ATOM     18  C   LIG    1       -6.619   2.879   0.881  0.00  0.00    -0.045 A 
ATOM     19  C   LIG    1       -5.963   3.569   1.853  0.00  0.00    +0.004 A 
ATOM     20  C   LIG    1       -5.245   4.736   1.611  0.00  0.00    +0.000 A 
ATOM     21  C   LIG    1       -5.200   5.209   0.325  0.00  0.00    +0.000 A 
ATOM     22  C   LIG    1       -5.865   4.511  -0.667  0.00  0.00    +0.000 A 
ATOM     23  C   LIG    1       -6.585   3.346  -0.438  0.00  0.00    +0.004 A 
ENDBRANCH  17  18
ENDBRANCH  11  17
ENDBRANCH   9  11
ENDBRANCH   6   7
BRANCH   6  24
ATOM     24  C   LIG    1       -5.400  -1.102  -2.698  0.00  0.00    +0.152 C 
BRANCH  24  25
ATOM     25  C   LIG    1       -4.968  -1.115  -4.123  0.00  0.00    +0.307 C 
ATOM     26  O   LIG    1       -4.146  -1.976  -4.485  0.00  0.00    -0.251 OA
BRANCH  25  27
ATOM     27  O   LIG    1       -5.478  -0.193  -4.988  0.00  0.00    -0.481 OA
ATOM     28  H   LIG    1       -5.384  -0.131  -5.975  0.00  0.00    +0.295 HD
ENDBRANCH  25  27
ENDBRANCH  24  25
ENDBRANCH   6  24
ENDBRANCH   4   6
ENDBRANCH   1   2
BRANCH   1  30
ATOM     29  C   LIG    1        1.302  -1.193  -0.818  0.00  0.00    +0.234 C 
ATOM     30  N   LIG    1        0.271  -2.165  -0.678  0.00  0.00    -0.302 N 
ATOM     31  H   LIG    1        0.294  -2.806   0.164  0.00  0.00    +0.150 HD
ATOM     32  O   LIG    1        1.311  -0.428  -1.850  0.00  0.00    -0.274 OA
BRANCH  29  33
ATOM     33  C   LIG    1        2.378  -1.008   0.161  0.00  0.00    +0.163 C 
BRANCH  33  35
ATOM     34  C   LIG    1        4.647  -0.207  -0.622  0.00  0.00    +0.215 C 
ATOM     35  N   LIG    1        3.283   0.024  -0.369  0.00  0.00    -0.304 N 
ATOM     36  H   LIG    1        2.854   0.949  -0.552  0.00  0.00    +0.149 HD
ATOM     37  O   LIG    1        5.144  -1.326  -0.407  0.00  0.00    -0.276 OA
BRANCH  34  38
ATOM     38  C   LIG    1        5.493   0.883  -1.140  0.00  0.00    +0.114 C 
BRANCH  38  39
ATOM     39  C   LIG    1        6.936   0.468  -1.303  0.00  0.00    +0.116 C 
BRANCH  39  40
ATOM     40  N   LIG    1        7.705   1.589  -1.792  0.00  0.00    -0.281 N 
ATOM     41  C   LIG    1        7.805   2.793  -1.046  0.00  0.00    +0.401 C 
ATOM     42  O   LIG    1        7.234   2.955   0.080  0.00  0.00    -0.226 OA
ATOM     43  H   LIG    1        8.213   1.550  -2.712  0.00  0.00    +0.152 HD
BRANCH  41  44
ATOM     44  O   LIG    1        8.535   3.870  -1.504  0.00  0.00    -0.445 OA
BRANCH  44  45
ATOM     45  C   LIG    1        8.646   5.095  -0.768  0.00  0.00    +0.107 C 
ATOM     46  C   LIG    1        9.311   4.841   0.561  0.00  0.00    +0.055 C 
ATOM     47  C   LIG    1        7.303   5.745  -0.548  0.00  0.00    +0.055 C 
ATOM     48  C   LIG    1        9.508   6.067  -1.546  0.00  0.00    +0.055 C 
ENDBRANCH  44  45
ENDBRANCH  41  44
ENDBRANCH  39  40
ENDBRANCH  38  39
ENDBRANCH  34  38
ENDBRANCH  33  35
BRANCH  33  49
ATOM     49  C   LIG    1        1.843  -0.564   1.478  0.00  0.00    +0.069 C 
BRANCH  49  50
ATOM     50  C   LIG    1        0.932  -1.459   2.189  0.00  0.00    -0.020 A 
ATOM     51  C   LIG    1        1.241  -2.631   2.885  0.00  0.00    +0.003 A 
ATOM     52  C   LIG    1        0.085  -3.133   3.429  0.00  0.00    +0.047 A 
ATOM     53  C   LIG    1        0.075  -4.299   4.188  0.00  0.00    +0.026 A 
ATOM     54  C   LIG    1        1.254  -4.962   4.397  0.00  0.00    +0.002 A 
ATOM     55  C   LIG    1        2.432  -4.452   3.844  0.00  0.00    +0.001 A 
ATOM     56  N   LIG    1       -0.893  -2.290   3.073  0.00  0.00    -0.360 N 
ATOM     57  H   LIG    1       -1.896  -2.431   3.357  0.00  0.00    +0.165 HD
ATOM     58  C   LIG    1        2.425  -3.277   3.082  0.00  0.00    +0.010 A 
ATOM     59  C   LIG    1       -0.442  -1.285   2.340  0.00  0.00    +0.087 A 
ENDBRANCH  49  50
ENDBRANCH  33  49
ENDBRANCH  29  33
ENDBRANCH   1  30
BRANCH   1  60
ATOM     60  C   LIG    1       -1.107  -3.668  -1.950  0.00  0.00    +0.042 C 
BRANCH  60  61
ATOM     61  C   LIG    1       -1.652  -4.432  -0.775  0.00  0.00    +0.071 C 
BRANCH  61  62
ATOM     62  S   LIG    1       -2.093  -6.132  -1.228  0.00  0.00    -0.164 S 
ATOM     63  C   LIG    1       -0.670  -7.126  -1.684  0.00  0.00    +0.084 C 
ENDBRANCH  61  62
ENDBRANCH  60  61
ENDBRANCH   1  60
TORSDOF 23
