REMARK  Name = molecules/NFABMCCMPXXBFY-UHFFFAOYSA-N.pdb
REMARK                            x       y       z     vdW  Elec       q    Type
REMARK                         _______ _______ _______ _____ _____    ______ ____
ROOT
ATOM      1  C   LIG    1       -1.002  -1.216   1.252  0.00  0.00    +0.054 A 
ATOM      2  N   LIG    1       -1.000  -2.577   1.131  0.00  0.00    -0.256 NA
ATOM      3  C   LIG    1       -1.796  -3.259   0.315  0.00  0.00    +0.039 A 
ATOM      4  C   LIG    1       -1.784  -4.739   0.189  0.00  0.00    +0.065 C 
ATOM      5  C   LIG    1       -2.683  -2.564  -0.462  0.00  0.00    +0.031 A 
ATOM      6  C   LIG    1       -2.740  -1.193  -0.391  0.00  0.00    -0.011 A 
ATOM      7  C   LIG    1       -3.658  -0.517  -1.179  0.00  0.00    +0.058 A 
ATOM      8  C   LIG    1       -3.736   0.843  -1.106  0.00  0.00    +0.162 A 
ATOM      9  C   LIG    1       -2.911   1.528  -0.259  0.00  0.00    +0.162 A 
ATOM     10  C   LIG    1       -1.988   0.868   0.534  0.00  0.00    +0.059 A 
ATOM     11  C   LIG    1       -1.889  -0.516   0.477  0.00  0.00    +0.007 A 
ENDROOT
BRANCH   9  12
ATOM     12  O   LIG    1       -2.976   2.926  -0.169  0.00  0.00    -0.491 OA
ATOM     13  C   LIG    1       -2.121   3.636   0.708  0.00  0.00    +0.277 C 
ENDBRANCH   9  12
BRANCH   8  14
ATOM     14  O   LIG    1       -4.641   1.534  -1.880  0.00  0.00    -0.491 OA
ATOM     15  C   LIG    1       -5.505   0.812  -2.765  0.00  0.00    +0.277 C 
ENDBRANCH   8  14
BRANCH   1  16
ATOM     16  C   LIG    1       -0.036  -0.551   2.149  0.00  0.00    +0.091 C 
BRANCH  16  17
ATOM     17  C   LIG    1        1.195  -0.075   1.471  0.00  0.00    -0.038 A 
ATOM     18  C   LIG    1        1.512   1.219   1.182  0.00  0.00    +0.008 A 
ATOM     19  C   LIG    1        2.707   1.588   0.558  0.00  0.00    +0.050 A 
ATOM     20  C   LIG    1        3.638   0.643   0.200  0.00  0.00    +0.162 A 
ATOM     21  C   LIG    1        3.344  -0.671   0.480  0.00  0.00    +0.162 A 
ATOM     22  C   LIG    1        2.165  -1.022   1.095  0.00  0.00    +0.053 A 
BRANCH  21  23
ATOM     23  O   LIG    1        4.275  -1.662   0.128  0.00  0.00    -0.491 OA
ATOM     24  C   LIG    1        3.998  -3.027   0.407  0.00  0.00    +0.277 C 
ENDBRANCH  21  23
BRANCH  20  25
ATOM     25  O   LIG    1        4.813   1.035  -0.417  0.00  0.00    -0.489 OA
BRANCH  25  26
ATOM     26  C   LIG    1        5.163   2.346  -0.728  0.00  0.00    +0.226 C 
ATOM     27  C   LIG    1        4.243   3.058  -1.663  0.00  0.00    +0.048 C 
ENDBRANCH  25  26
ENDBRANCH  20  25
ENDBRANCH  16  17
ENDBRANCH   1  16
TORSDOF 7
