REMARK  Name = molecules/NFACJZMKEDPNKN-GSVOUGTGSA-N.pdb
REMARK                            x       y       z     vdW  Elec       q    Type
REMARK                         _______ _______ _______ _____ _____    ______ ____
ROOT
ATOM      1  C   LIG    1       -0.788  -0.535  -0.867  0.00  0.00    +0.279 C 
ENDROOT
BRANCH   1   2
ATOM      2  C   LIG    1       -0.867  -1.992  -0.403  0.00  0.00    +0.227 C 
ATOM      3 CL   LIG    1       -1.531  -2.056   1.252  0.00  0.00    -0.080 Cl
ATOM      4 CL   LIG    1        0.739  -2.736  -0.355  0.00  0.00    -0.080 Cl
ATOM      5 CL   LIG    1       -1.964  -2.884  -1.482  0.00  0.00    -0.080 Cl
ENDBRANCH   1   2
BRANCH   1   6
ATOM      6  P   LIG    1        0.249   0.421   0.267  0.00  0.00    +0.365 P 
ATOM      7  O   LIG    1        1.097   1.381  -0.532  0.00  0.00    -0.256 OA
BRANCH   6   8
ATOM      8  O   LIG    1       -0.811   1.312   1.268  0.00  0.00    -0.309 OA
ATOM      9  C   LIG    1       -1.361   2.341   0.490  0.00  0.00    +0.204 C 
ENDBRANCH   6   8
BRANCH   6  10
ATOM     10  O   LIG    1        1.175  -0.652   1.138  0.00  0.00    -0.309 OA
ATOM     11  C   LIG    1        2.530  -0.411   1.078  0.00  0.00    +0.204 C 
ENDBRANCH   6  10
ENDBRANCH   1   6
BRANCH   1  12
ATOM     12  O   LIG    1       -0.154  -0.536  -2.117  0.00  0.00    -0.376 OA
ATOM     13  H   LIG    1       -0.816  -0.319  -2.825  0.00  0.00    +0.211 HD
ENDBRANCH   1  12
TORSDOF 5
