REMARK  Name = molecules/NFBAXHOPROOJAW-UHFFFAOYSA-N.pdb
REMARK                            x       y       z     vdW  Elec       q    Type
REMARK                         _______ _______ _______ _____ _____    ______ ____
ROOT
ATOM      1  O   LIG    1       -0.106  -0.267  -2.271  0.00  0.00    -0.291 OA
ATOM      2  C   LIG    1       -0.504   0.043  -1.128  0.00  0.00    +0.179 C 
ATOM      3  C   LIG    1        0.210   0.655   0.018  0.00  0.00    +0.161 C 
ATOM      4  C   LIG    1       -0.488   0.035   1.173  0.00  0.00    +0.179 C 
ATOM      5  O   LIG    1       -0.064  -0.270   2.309  0.00  0.00    -0.291 OA
ATOM      6  C   LIG    1       -1.875  -0.170   0.705  0.00  0.00    +0.029 A 
ATOM      7  C   LIG    1       -3.054  -0.350   1.423  0.00  0.00    +0.012 A 
ATOM      8  C   LIG    1       -4.252  -0.527   0.763  0.00  0.00    +0.001 A 
ATOM      9  C   LIG    1       -4.288  -0.526  -0.621  0.00  0.00    +0.001 A 
ATOM     10  C   LIG    1       -3.101  -0.345  -1.302  0.00  0.00    +0.012 A 
ATOM     11  C   LIG    1       -1.891  -0.167  -0.675  0.00  0.00    +0.029 A 
ENDROOT
BRANCH   3  12
ATOM     12  C   LIG    1        1.660   0.376   0.009  0.00  0.00    -0.029 A 
ATOM     13  C   LIG    1        2.209  -0.868   0.044  0.00  0.00    +0.005 A 
ATOM     14  C   LIG    1        3.581  -1.025   0.032  0.00  0.00    +0.000 A 
ATOM     15  C   LIG    1        4.435   0.044  -0.015  0.00  0.00    +0.000 A 
ATOM     16  C   LIG    1        3.890   1.306  -0.051  0.00  0.00    +0.000 A 
ATOM     17  C   LIG    1        2.521   1.456  -0.039  0.00  0.00    +0.005 A 
ENDBRANCH   3  12
TORSDOF 1
