REMARK  Name = molecules/NFDFQCUYFHCNBW-SCGPFSFSSA-N.pdb
REMARK                            x       y       z     vdW  Elec       q    Type
REMARK                         _______ _______ _______ _____ _____    ______ ____
ROOT
ATOM      1  C   LIG    1       -0.559   0.018   0.367  0.00  0.00    -0.015 C 
ATOM      2  C   LIG    1       -0.495   0.274   1.653  0.00  0.00    -0.021 C 
ATOM      3  C   LIG    1       -1.634   0.345   2.602  0.00  0.00    +0.036 C 
ENDROOT
BRANCH   1   4
ATOM      4  C   LIG    1       -1.910  -0.146  -0.219  0.00  0.00    -0.017 A 
ATOM      5  C   LIG    1       -2.978   0.636   0.140  0.00  0.00    +0.012 A 
ATOM      6  C   LIG    1       -4.269   0.413  -0.288  0.00  0.00    +0.046 A 
ATOM      7  C   LIG    1       -4.503  -0.653  -1.123  0.00  0.00    +0.117 A 
ATOM      8  C   LIG    1       -3.451  -1.453  -1.498  0.00  0.00    +0.046 A 
ATOM      9  C   LIG    1       -2.176  -1.208  -1.055  0.00  0.00    +0.012 A 
BRANCH   7  10
ATOM     10  O   LIG    1       -5.795  -0.945  -1.603  0.00  0.00    -0.507 OA
ATOM     11  H   LIG    1       -6.586  -0.372  -1.341  0.00  0.00    +0.292 HD
ENDBRANCH   7  10
ENDBRANCH   1   4
BRANCH   1  12
ATOM     12  C   LIG    1        0.654  -0.044  -0.499  0.00  0.00    -0.015 C 
ATOM     13  C   LIG    1        0.541  -0.186  -1.804  0.00  0.00    -0.021 C 
ATOM     14  C   LIG    1        1.659  -0.276  -2.761  0.00  0.00    +0.036 C 
BRANCH  12  15
ATOM     15  C   LIG    1        2.003   0.123   0.044  0.00  0.00    -0.017 A 
ATOM     16  C   LIG    1        2.405  -0.479   1.231  0.00  0.00    +0.012 A 
ATOM     17  C   LIG    1        3.622  -0.259   1.839  0.00  0.00    +0.046 A 
ATOM     18  C   LIG    1        4.489   0.617   1.218  0.00  0.00    +0.117 A 
ATOM     19  C   LIG    1        4.105   1.217   0.043  0.00  0.00    +0.046 A 
ATOM     20  C   LIG    1        2.881   0.996  -0.566  0.00  0.00    +0.012 A 
BRANCH  18  21
ATOM     21  O   LIG    1        5.744   0.879   1.793  0.00  0.00    -0.507 OA
ATOM     22  H   LIG    1        6.051   0.463   2.637  0.00  0.00    +0.292 HD
ENDBRANCH  18  21
ENDBRANCH  12  15
ENDBRANCH   1  12
TORSDOF 5
