REMARK  Name = molecules/NFEZZTICAUWDHU-RDTXWAMCSA-N.pdb
REMARK                            x       y       z     vdW  Elec       q    Type
REMARK                         _______ _______ _______ _____ _____    ______ ____
ROOT
ATOM      1  C   LIG    1       -1.236   0.022  -0.352  0.00  0.00    +0.128 C 
ENDROOT
BRANCH   1   2
ATOM      2  C   LIG    1       -1.413  -1.300  -0.932  0.00  0.00    +0.022 A 
ATOM      3  C   LIG    1       -0.707  -2.427  -0.537  0.00  0.00    +0.012 A 
ATOM      4  C   LIG    1       -0.918  -3.656  -1.113  0.00  0.00    +0.039 A 
ATOM      5  C   LIG    1       -1.837  -3.831  -2.109  0.00  0.00    +0.126 A 
ATOM      6  C   LIG    1       -2.546  -2.745  -2.523  0.00  0.00    +0.077 A 
ATOM      7  F   LIG    1       -2.001  -5.076  -2.643  0.00  0.00    -0.205 F 
ATOM      8  C   LIG    1       -2.335  -1.493  -1.940  0.00  0.00    +0.132 A 
ATOM      9  F   LIG    1       -3.099  -0.495  -2.478  0.00  0.00    -0.205 F 
ENDBRANCH   1   2
BRANCH   1  10
ATOM     10  C   LIG    1       -0.247   0.139   0.763  0.00  0.00    +0.092 C 
ATOM     11  C   LIG    1       -0.634  -0.670   1.955  0.00  0.00    +0.027 C 
BRANCH  10  12
ATOM     12  N   LIG    1        1.100  -0.145   0.438  0.00  0.00    -0.296 NA
ATOM     13  C   LIG    1        1.954   0.178   1.534  0.00  0.00    +0.089 C 
ATOM     14  C   LIG    1        3.099   1.088   1.169  0.00  0.00    +0.045 C 
ATOM     15  C   LIG    1        3.825   0.558  -0.023  0.00  0.00    -0.074 C 
ATOM     16  C   LIG    1        5.072   0.829  -0.289  0.00  0.00    +0.008 C 
ATOM     17  C   LIG    1        3.035  -0.321  -0.926  0.00  0.00    +0.045 C 
ATOM     18  C   LIG    1        1.588   0.197  -0.841  0.00  0.00    +0.089 C 
ENDBRANCH  10  12
ENDBRANCH   1  10
BRANCH   1  19
ATOM     19  O   LIG    1       -0.843   0.956  -1.368  0.00  0.00    -0.380 OA
ATOM     20  H   LIG    1       -0.681   1.795  -0.911  0.00  0.00    +0.211 HD
ENDBRANCH   1  19
BRANCH   1  21
ATOM     21  C   LIG    1       -2.556   0.556   0.143  0.00  0.00    +0.186 C 
BRANCH  21  22
ATOM     22  N   LIG    1       -2.514   1.948   0.531  0.00  0.00    -0.249 N 
ATOM     23  C   LIG    1       -2.268   2.455   1.735  0.00  0.00    +0.219 A 
ATOM     24  N   LIG    1       -2.316   3.816   1.661  0.00  0.00    -0.223 NA
ATOM     25  C   LIG    1       -2.593   4.133   0.403  0.00  0.00    +0.244 A 
ATOM     26  N   LIG    1       -2.712   2.988  -0.275  0.00  0.00    -0.158 NA
ENDBRANCH  21  22
ENDBRANCH   1  21
TORSDOF 6
