REMARK  Name = molecules/NFLWUMRGJYTJIN-PNIOQBSNSA-N.pdb
REMARK                            x       y       z     vdW  Elec       q    Type
REMARK                         _______ _______ _______ _____ _____    ______ ____
ROOT
ATOM      1  N   LIG    1        0.895   0.553  -1.404  0.00  0.00    -0.302 N 
ATOM      2  C   LIG    1        1.938   0.320  -0.383  0.00  0.00    +0.170 C 
ATOM      3  C   LIG    1        1.365  -0.012   0.938  0.00  0.00    +0.112 C 
ATOM      4  S   LIG    1        1.639   1.313   2.149  0.00  0.00    -0.091 S 
ATOM      5  S   LIG    1       -0.172   1.796   3.105  0.00  0.00    -0.093 S 
ATOM      6  C   LIG    1       -1.393   0.476   2.996  0.00  0.00    +0.090 C 
ATOM      7  C   LIG    1       -2.427   0.906   1.977  0.00  0.00    +0.107 C 
ATOM      8  C   LIG    1       -3.103   2.163   2.385  0.00  0.00    +0.214 C 
ATOM      9  O   LIG    1       -2.472   2.932   3.186  0.00  0.00    -0.276 OA
ATOM     10  N   LIG    1       -4.379   2.587   1.969  0.00  0.00    -0.304 N 
ATOM     11  H   LIG    1       -4.551   3.629   1.850  0.00  0.00    +0.149 HD
ATOM     12  C   LIG    1       -5.489   1.708   1.685  0.00  0.00    +0.163 C 
ATOM     13  C   LIG    1       -6.014   1.896   0.314  0.00  0.00    +0.234 C 
ATOM     14  O   LIG    1       -6.211   3.113  -0.036  0.00  0.00    -0.274 OA
ATOM     15  N   LIG    1       -6.309   0.906  -0.611  0.00  0.00    -0.302 N 
ATOM     16  C   LIG    1       -5.858  -0.476  -0.613  0.00  0.00    +0.163 C 
ATOM     17  C   LIG    1       -4.815  -0.612  -1.650  0.00  0.00    +0.234 C 
ATOM     18  N   LIG    1       -4.234  -1.833  -2.080  0.00  0.00    -0.302 N 
ATOM     19  C   LIG    1       -3.879  -2.953  -1.297  0.00  0.00    +0.159 C 
ATOM     20  C   LIG    1       -2.515  -3.028  -0.751  0.00  0.00    +0.234 C 
ATOM     21  O   LIG    1       -2.292  -4.220  -0.248  0.00  0.00    -0.274 OA
ATOM     22  N   LIG    1       -1.471  -2.127  -0.667  0.00  0.00    -0.302 N 
ATOM     23  H   LIG    1       -1.327  -1.713   0.324  0.00  0.00    +0.150 HD
ATOM     24  C   LIG    1       -0.500  -1.627  -1.610  0.00  0.00    +0.168 C 
ATOM     25  H   LIG    1       -4.068  -1.884  -3.131  0.00  0.00    +0.150 HD
ATOM     26  O   LIG    1       -4.400   0.457  -2.208  0.00  0.00    -0.274 OA
ATOM     27  H   LIG    1       -6.938   1.156  -1.433  0.00  0.00    +0.150 HD
ATOM     28  C   LIG    1       -0.292  -0.162  -1.556  0.00  0.00    +0.234 C 
ATOM     29  O   LIG    1       -1.369   0.527  -1.668  0.00  0.00    -0.274 OA
ATOM     30  H   LIG    1        1.114   1.339  -2.054  0.00  0.00    +0.150 HD
ENDROOT
BRANCH   2  31
ATOM     31  C   LIG    1        2.951  -0.605  -0.910  0.00  0.00    +0.237 C 
ATOM     32  N   LIG    1        4.070  -1.151  -0.261  0.00  0.00    -0.288 N 
ATOM     33  C   LIG    1        4.528  -0.970   1.073  0.00  0.00    +0.162 C 
ATOM     34  C   LIG    1        4.854  -2.425   1.465  0.00  0.00    +0.033 C 
ATOM     35  C   LIG    1        5.628  -2.861   0.237  0.00  0.00    +0.021 C 
ATOM     36  C   LIG    1        5.039  -2.078  -0.887  0.00  0.00    +0.109 C 
ATOM     37  O   LIG    1        2.838  -1.005  -2.150  0.00  0.00    -0.274 OA
BRANCH  33  38
ATOM     38  C   LIG    1        5.803  -0.193   1.150  0.00  0.00    +0.234 C 
ATOM     39  O   LIG    1        6.461  -0.300   2.214  0.00  0.00    -0.274 OA
ATOM     40  N   LIG    1        6.258   0.611   0.112  0.00  0.00    -0.302 N 
ATOM     41  H   LIG    1        5.773   0.760  -0.769  0.00  0.00    +0.150 HD
BRANCH  40  42
ATOM     42  C   LIG    1        7.570   1.343   0.272  0.00  0.00    +0.159 C 
BRANCH  42  43
ATOM     43  C   LIG    1        8.334   1.079  -0.948  0.00  0.00    +0.234 C 
ATOM     44  N   LIG    1        9.675   1.489  -1.129  0.00  0.00    -0.305 N 
ATOM     45  H   LIG    1       10.170   1.984  -0.397  0.00  0.00    +0.149 HD
ATOM     46  O   LIG    1        7.752   0.438  -1.899  0.00  0.00    -0.274 OA
BRANCH  44  47
ATOM     47  C   LIG    1       10.337   1.170  -2.402  0.00  0.00    +0.199 C 
BRANCH  47  48
ATOM     48  C   LIG    1       10.337  -0.308  -2.540  0.00  0.00    +0.228 C 
ATOM     49  O   LIG    1        9.857  -1.093  -1.681  0.00  0.00    -0.274 OA
ATOM     50  N   LIG    1       10.919  -0.878  -3.725  0.00  0.00    -0.328 N 
ATOM     51  H   LIG    1       10.651  -1.839  -4.024  0.00  0.00    +0.145 HD
ATOM     52  H   LIG    1       11.617  -0.330  -4.297  0.00  0.00    +0.145 HD
ENDBRANCH  47  48
ENDBRANCH  44  47
ENDBRANCH  42  43
BRANCH  42  53
ATOM     53  C   LIG    1        7.220   2.765   0.479  0.00  0.00    +0.035 C 
BRANCH  53  54
ATOM     54  C   LIG    1        8.228   3.776   0.681  0.00  0.00    +0.039 C 
BRANCH  54  55
ATOM     55  C   LIG    1        9.149   3.876   1.800  0.00  0.00    +0.196 C 
BRANCH  55  56
ATOM     56  N   LIG    1       10.118   2.928   2.146  0.00  0.00    -0.276 N 
ATOM     57  H   LIG    1       11.156   3.196   1.951  0.00  0.00    +0.258 HD
BRANCH  56  58
ATOM     58  C   LIG    1        9.985   1.650   2.715  0.00  0.00    +0.376 C 
ATOM     59  N   LIG    1       10.553   0.482   2.151  0.00  0.00    -0.289 N 
ATOM     60  H   LIG    1       10.459  -0.441   2.622  0.00  0.00    +0.255 HD
ATOM     61  H   LIG    1       11.067   0.549   1.265  0.00  0.00    +0.255 HD
BRANCH  58  62
ATOM     62  N   LIG    1        9.322   1.507   3.834  0.00  0.00    -0.130 NA
ATOM     63  H   LIG    1        8.897   2.367   4.287  0.00  0.00    +0.306 HD
ENDBRANCH  58  62
ENDBRANCH  56  58
ENDBRANCH  55  56
ENDBRANCH  54  55
ENDBRANCH  53  54
ENDBRANCH  42  53
ENDBRANCH  40  42
ENDBRANCH  33  38
ENDBRANCH   2  31
BRANCH  24  64
ATOM     64  C   LIG    1       -0.694  -2.138  -3.023  0.00  0.00    +0.127 C 
BRANCH  64  65
ATOM     65  C   LIG    1        0.269  -1.646  -3.990  0.00  0.00    +0.213 C 
ATOM     66  O   LIG    1        0.171  -0.472  -4.426  0.00  0.00    -0.276 OA
ATOM     67  N   LIG    1        1.324  -2.453  -4.460  0.00  0.00    -0.329 N 
ATOM     68  H   LIG    1        1.749  -3.198  -3.833  0.00  0.00    +0.145 HD
ATOM     69  H   LIG    1        1.678  -2.311  -5.421  0.00  0.00    +0.145 HD
ENDBRANCH  64  65
ENDBRANCH  24  64
BRANCH  19  70
ATOM     70  C   LIG    1       -4.304  -4.273  -1.944  0.00  0.00    +0.041 C 
BRANCH  70  71
ATOM     71  C   LIG    1       -3.677  -4.475  -3.280  0.00  0.00    +0.098 C 
BRANCH  71  72
ATOM     72  C   LIG    1       -4.138  -5.784  -3.865  0.00  0.00    +0.211 C 
ATOM     73  O   LIG    1       -4.936  -6.529  -3.236  0.00  0.00    -0.276 OA
ATOM     74  N   LIG    1       -3.696  -6.223  -5.136  0.00  0.00    -0.329 N 
ATOM     75  H   LIG    1       -2.786  -5.868  -5.480  0.00  0.00    +0.145 HD
ATOM     76  H   LIG    1       -4.257  -6.871  -5.697  0.00  0.00    +0.145 HD
ENDBRANCH  71  72
ENDBRANCH  70  71
ENDBRANCH  19  70
BRANCH  16  77
ATOM     77  C   LIG    1       -7.042  -1.335  -1.032  0.00  0.00    +0.067 C 
BRANCH  77  78
ATOM     78  C   LIG    1       -8.137  -1.269  -0.045  0.00  0.00    -0.045 A 
ATOM     79  C   LIG    1       -8.191  -2.138   1.017  0.00  0.00    +0.004 A 
ATOM     80  C   LIG    1       -9.214  -2.081   1.953  0.00  0.00    +0.000 A 
ATOM     81  C   LIG    1      -10.210  -1.139   1.834  0.00  0.00    +0.000 A 
ATOM     82  C   LIG    1      -10.172  -0.255   0.770  0.00  0.00    +0.000 A 
ATOM     83  C   LIG    1       -9.138  -0.337  -0.148  0.00  0.00    +0.004 A 
ENDBRANCH  77  78
ENDBRANCH  16  77
BRANCH  12  84
ATOM     84  C   LIG    1       -6.572   1.858   2.704  0.00  0.00    +0.067 C 
BRANCH  84  85
ATOM     85  C   LIG    1       -7.176   3.175   2.821  0.00  0.00    -0.045 A 
ATOM     86  C   LIG    1       -6.691   4.140   3.660  0.00  0.00    +0.007 A 
ATOM     87  C   LIG    1       -7.258   5.390   3.779  0.00  0.00    +0.045 A 
ATOM     88  C   LIG    1       -8.366   5.703   3.023  0.00  0.00    +0.117 A 
ATOM     89  C   LIG    1       -8.879   4.763   2.172  0.00  0.00    +0.045 A 
ATOM     90  C   LIG    1       -8.285   3.513   2.076  0.00  0.00    +0.007 A 
BRANCH  88  91
ATOM     91  O   LIG    1       -8.953   6.967   3.131  0.00  0.00    -0.507 OA
ATOM     92  H   LIG    1       -9.694   7.145   3.809  0.00  0.00    +0.292 HD
ENDBRANCH  88  91
ENDBRANCH  84  85
ENDBRANCH  12  84
TORSDOF 22
