REMARK  Name = molecules/NFQIAEMCQGTTIR-UHFFFAOYSA-N.pdb
REMARK                            x       y       z     vdW  Elec       q    Type
REMARK                         _______ _______ _______ _____ _____    ______ ____
ROOT
ATOM      1  O   LIG    1        3.259   2.957  -2.438  0.00  0.00    -0.267 OA
ATOM      2  C   LIG    1        3.147   2.031  -1.594  0.00  0.00    +0.264 A 
ATOM      3  N   LIG    1        4.226   1.434  -1.073  0.00  0.00    -0.321 N 
ATOM      4  C   LIG    1        4.090   0.442  -0.169  0.00  0.00    +0.056 A 
ATOM      5  C   LIG    1        5.224  -0.153   0.350  0.00  0.00    -0.023 A 
ATOM      6  C   LIG    1        5.049  -1.163   1.271  0.00  0.00    -0.046 A 
ATOM      7  C   LIG    1        6.282  -1.794   1.819  0.00  0.00    +0.044 C 
ATOM      8  C   LIG    1        3.779  -1.560   1.658  0.00  0.00    +0.004 A 
ATOM      9  C   LIG    1        2.657  -0.952   1.128  0.00  0.00    +0.014 A 
ATOM     10  C   LIG    1        6.573   0.308  -0.098  0.00  0.00    +0.046 C 
ATOM     11  C   LIG    1        2.814   0.062   0.204  0.00  0.00    +0.042 A 
ATOM     12  C   LIG    1        1.678   0.654  -0.311  0.00  0.00    +0.154 A 
ATOM     13  O   LIG    1        0.470   0.260   0.071  0.00  0.00    -0.447 OA
ATOM     14  C   LIG    1       -0.618   0.808  -0.405  0.00  0.00    +0.216 A 
ATOM     15  C   LIG    1       -0.483   1.820  -1.328  0.00  0.00    +0.105 A 
ATOM     16  C   LIG    1        0.752   2.268  -1.760  0.00  0.00    +0.199 A 
ATOM     17  O   LIG    1        0.888   3.189  -2.600  0.00  0.00    -0.287 OA
ATOM     18  H   LIG    1        5.208   1.713  -1.347  0.00  0.00    +0.169 HD
ATOM     19  C   LIG    1        1.865   1.664  -1.234  0.00  0.00    +0.129 A 
ENDROOT
BRANCH  14  20
ATOM     20  C   LIG    1       -1.939   0.342   0.046  0.00  0.00    +0.375 C 
ATOM     21  O   LIG    1       -2.075  -0.572   0.880  0.00  0.00    -0.241 OA
BRANCH  20  22
ATOM     22  O   LIG    1       -3.101   0.919  -0.455  0.00  0.00    -0.459 OA
BRANCH  22  23
ATOM     23  C   LIG    1       -4.382   0.522  -0.067  0.00  0.00    +0.233 C 
BRANCH  23  24
ATOM     24  C   LIG    1       -4.689  -0.922  -0.357  0.00  0.00    +0.044 C 
BRANCH  24  25
ATOM     25  C   LIG    1       -6.115  -1.174   0.128  0.00  0.00    -0.014 C 
ATOM     26  C   LIG    1       -6.261  -0.912   1.597  0.00  0.00    +0.007 C 
ATOM     27  C   LIG    1       -7.100  -0.324  -0.649  0.00  0.00    +0.007 C 
ENDBRANCH  24  25
ENDBRANCH  23  24
ENDBRANCH  22  23
ENDBRANCH  20  22
ENDBRANCH  14  20
TORSDOF 5
