REMARK  Name = molecules/NFRPNQDSKJJQGV-UHFFFAOYSA-N.pdb
REMARK                            x       y       z     vdW  Elec       q    Type
REMARK                         _______ _______ _______ _____ _____    ______ ____
ROOT
ATOM      1  S   LIG    1       -1.107  -2.885   0.291  0.00  0.00    +0.076 S 
ATOM      2  O   LIG    1       -1.134  -3.795   1.463  0.00  0.00    -0.150 OA
ATOM      3  O   LIG    1       -1.487  -3.683  -0.943  0.00  0.00    -0.150 OA
ENDROOT
BRANCH   1   4
ATOM      4  C   LIG    1       -2.381  -1.653   0.435  0.00  0.00    +0.109 A 
ATOM      5  C   LIG    1       -2.674  -1.096   1.659  0.00  0.00    +0.029 A 
ATOM      6  C   LIG    1       -3.659  -0.143   1.736  0.00  0.00    +0.006 A 
ATOM      7  C   LIG    1       -4.377   0.290   0.647  0.00  0.00    -0.044 A 
ATOM      8  C   LIG    1       -5.472   1.319   0.517  0.00  0.00    +0.036 C 
ATOM      9  C   LIG    1       -5.540   1.542  -0.965  0.00  0.00    +0.009 C 
ATOM     10  C   LIG    1       -4.980   0.325  -1.620  0.00  0.00    +0.036 C 
ATOM     11  C   LIG    1       -4.093  -0.259  -0.576  0.00  0.00    -0.042 A 
ATOM     12  C   LIG    1       -3.090  -1.232  -0.662  0.00  0.00    +0.032 A 
ENDBRANCH   1   4
BRANCH   1  13
ATOM     13  N   LIG    1        0.404  -2.132   0.070  0.00  0.00    -0.169 N 
ATOM     14  H   LIG    1        1.296  -2.645   0.015  0.00  0.00    +0.178 HD
ATOM     15  C   LIG    1        0.485  -0.659  -0.053  0.00  0.00    +0.319 C 
ATOM     16  O   LIG    1       -0.612  -0.098   0.041  0.00  0.00    -0.251 OA
ATOM     17  N   LIG    1        1.751  -0.110  -0.261  0.00  0.00    -0.295 N 
ATOM     18  H   LIG    1        1.169   1.128  -0.228  0.00  0.00    +0.151 HD
BRANCH  17  19
ATOM     19  C   LIG    1        2.937   0.404  -0.455  0.00  0.00    +0.074 C 
ATOM     20  C   LIG    1        3.736   0.652   0.871  0.00  0.00    +0.022 C 
ATOM     21  C   LIG    1        4.827   1.623   0.501  0.00  0.00    +0.002 C 
ATOM     22  C   LIG    1        5.774   1.081  -0.517  0.00  0.00    +0.000 C 
ATOM     23  C   LIG    1        5.088   0.352  -1.641  0.00  0.00    +0.002 C 
ATOM     24  C   LIG    1        3.944  -0.499  -1.231  0.00  0.00    +0.022 C 
ENDBRANCH  17  19
ENDBRANCH   1  13
TORSDOF 3
