REMARK  Name = molecules/NGOGFTYYXHNFQH-UHFFFAOYSA-N.pdb
REMARK                            x       y       z     vdW  Elec       q    Type
REMARK                         _______ _______ _______ _____ _____    ______ ____
ROOT
ATOM      1  S   LIG    1        0.055   0.716  -0.155  0.00  0.00    +0.061 S 
ATOM      2  O   LIG    1       -0.251   0.639   1.333  0.00  0.00    -0.153 OA
ATOM      3  O   LIG    1        0.401   2.145  -0.537  0.00  0.00    -0.153 OA
ENDROOT
BRANCH   1  12
ATOM      4  N   LIG    1        4.901   0.591   1.681  0.00  0.00    -0.263 NA
ATOM      5  C   LIG    1        3.836   1.369   1.883  0.00  0.00    +0.111 A 
ATOM      6  C   LIG    1        2.667   1.108   1.200  0.00  0.00    +0.030 A 
ATOM      7  C   LIG    1        2.606   0.048   0.316  0.00  0.00    +0.011 A 
ATOM      8  C   LIG    1        3.737  -0.755   0.119  0.00  0.00    +0.002 A 
ATOM      9  C   LIG    1        3.760  -1.827  -0.746  0.00  0.00    +0.010 A 
ATOM     10  C   LIG    1        2.606  -2.099  -1.436  0.00  0.00    +0.003 A 
ATOM     11  C   LIG    1        1.457  -1.325  -1.270  0.00  0.00    +0.029 A 
ATOM     12  C   LIG    1        1.464  -0.258  -0.396  0.00  0.00    +0.113 A 
ATOM     13  C   LIG    1        4.878  -0.450   0.827  0.00  0.00    +0.119 A 
ENDBRANCH   1  12
BRANCH   1  14
ATOM     14  N   LIG    1       -1.279   0.278  -1.099  0.00  0.00    -0.175 NA
ATOM     15  C   LIG    1       -1.832  -1.001  -0.937  0.00  0.00    +0.111 C 
ATOM     16  C   LIG    1       -3.313  -0.887  -0.645  0.00  0.00    +0.032 C 
ATOM     17  C   LIG    1       -3.521  -0.461   0.793  0.00  0.00    +0.082 C 
ATOM     18  N   LIG    1       -2.889   0.818   1.033  0.00  0.00    -0.315 NA
ATOM     19  H   LIG    1       -3.357   1.270   1.850  0.00  0.00    +0.122 HD
ATOM     20  C   LIG    1       -3.063   1.673  -0.102  0.00  0.00    +0.098 C 
ATOM     21  C   LIG    1       -2.172   1.369  -1.257  0.00  0.00    +0.124 C 
ENDBRANCH   1  14
TORSDOF 2
