REMARK  Name = molecules/NGXUUAFYUCOICP-UHFFFAOYSA-N.pdb
REMARK                            x       y       z     vdW  Elec       q    Type
REMARK                         _______ _______ _______ _____ _____    ______ ____
ROOT
ATOM      1  N   LIG    1       -0.720   0.289   0.383  0.00  0.00    -0.278 N 
ATOM      2  C   LIG    1       -0.732  -0.861   1.116  0.00  0.00    +0.105 A 
ATOM      3  C   LIG    1        0.483  -1.419   1.492  0.00  0.00    +0.112 A 
ATOM      4  C   LIG    1        1.683  -0.840   1.142  0.00  0.00    +0.258 A 
ATOM      5  O   LIG    1        2.791  -1.365   1.495  0.00  0.00    -0.267 OA
ATOM      6  N   LIG    1        1.642   0.293   0.419  0.00  0.00    -0.261 N 
ATOM      7  C   LIG    1        0.456   0.821   0.063  0.00  0.00    +0.334 A 
ATOM      8  O   LIG    1        0.466   1.891  -0.619  0.00  0.00    -0.246 OA
ENDROOT
BRANCH   2   9
ATOM      9  N   LIG    1       -1.959  -1.456   1.476  0.00  0.00    -0.344 N 
ATOM     10  H   LIG    1       -2.351  -1.416   2.433  0.00  0.00    +0.144 HD
ATOM     11  H   LIG    1       -2.490  -1.959   0.742  0.00  0.00    +0.144 HD
ENDBRANCH   2   9
BRANCH   6  12
ATOM     12  C   LIG    1        2.869   0.957   0.015  0.00  0.00    +0.126 C 
ATOM     13  C   LIG    1        3.378   0.477  -1.314  0.00  0.00    +0.027 C 
ENDBRANCH   6  12
BRANCH   1  14
ATOM     14  C   LIG    1       -2.006   0.851   0.004  0.00  0.00    +0.155 C 
BRANCH  14  15
ATOM     15  C   LIG    1       -2.494   0.349  -1.280  0.00  0.00    -0.013 C 
ATOM     16  C   LIG    1       -3.639  -0.294  -1.346  0.00  0.00    +0.005 C 
ENDBRANCH  14  15
ENDBRANCH   1  14
TORSDOF 4
