REMARK  Name = molecules/NHXLMOGPVYXJNR-ATOGVRKGSA-N.pdb
REMARK                            x       y       z     vdW  Elec       q    Type
REMARK                         _______ _______ _______ _____ _____    ______ ____
ROOT
ATOM      1  CA  CYS A  3        5.785   2.453   0.847  0.00  0.00    +0.169 C 
ATOM      2  CB  CYS A  3        5.262   3.727   0.130  0.00  0.00    +0.112 C 
ATOM      3  SG  CYS A  3        5.277   5.027   1.365  0.00  0.00    -0.091 S 
ATOM      4  SG  CYS A 14        3.964   6.633   0.908  0.00  0.00    -0.091 S 
ATOM      5  CB  CYS A 14        3.814   6.770  -0.874  0.00  0.00    +0.114 C 
ATOM      6  CA  CYS A 14        2.842   7.853  -1.293  0.00  0.00    +0.192 C 
ATOM      7  N   CYS A 14        1.923   7.272  -2.243  0.00  0.00    -0.300 N 
ATOM      8  C   SER A 13        0.802   6.477  -1.959  0.00  0.00    +0.236 C 
ATOM      9  CA  SER A 13       -0.141   6.689  -0.794  0.00  0.00    +0.184 C 
ATOM     10  N   SER A 13       -1.481   6.803  -1.297  0.00  0.00    -0.300 N 
ATOM     11  C   THR A 12       -2.688   6.235  -0.943  0.00  0.00    +0.237 C 
ATOM     12  CA  THR A 12       -3.582   6.423   0.212  0.00  0.00    +0.187 C 
ATOM     13  N   THR A 12       -3.793   5.212   0.975  0.00  0.00    -0.300 N 
ATOM     14  H   THR A 12       -3.162   5.057   1.808  0.00  0.00    +0.150 HD
ATOM     15  C   PHE A 11       -4.766   4.219   0.702  0.00  0.00    +0.234 C 
ATOM     16  O   PHE A 11       -4.361   3.008   0.629  0.00  0.00    -0.274 OA
ATOM     17  CA  PHE A 11       -6.214   4.447   0.492  0.00  0.00    +0.163 C 
ATOM     18  N   PHE A 11       -6.744   3.988  -0.747  0.00  0.00    -0.302 N 
ATOM     19  C   THR A 10       -7.648   3.035  -1.165  0.00  0.00    +0.236 C 
ATOM     20  CA  THR A 10       -7.643   1.562  -1.223  0.00  0.00    +0.187 C 
ATOM     21  N   THR A 10       -6.905   0.869  -0.225  0.00  0.00    -0.300 N 
ATOM     22  H   THR A 10       -6.632   1.539   0.610  0.00  0.00    +0.150 HD
ATOM     23  C   LYS A  9       -6.488  -0.421  -0.046  0.00  0.00    +0.234 C 
ATOM     24  O   LYS A  9       -7.164  -1.125   0.841  0.00  0.00    -0.274 OA
ATOM     25  CA  LYS A  9       -5.390  -1.263  -0.646  0.00  0.00    +0.159 C 
ATOM     26  N   LYS A  9       -4.857  -2.103   0.455  0.00  0.00    -0.302 N 
ATOM     27  H   LYS A  9       -5.609  -2.385   1.153  0.00  0.00    +0.150 HD
ATOM     28  C   TRP A  8       -3.574  -2.538   0.696  0.00  0.00    +0.234 C 
ATOM     29  O   TRP A  8       -2.995  -2.226   1.827  0.00  0.00    -0.274 OA
ATOM     30  CA  TRP A  8       -2.696  -3.351  -0.176  0.00  0.00    +0.163 C 
ATOM     31  N   TRP A  8       -1.298  -3.000  -0.027  0.00  0.00    -0.302 N 
ATOM     32  C   PHE A  7       -0.409  -3.264   1.009  0.00  0.00    +0.234 C 
ATOM     33  CA  PHE A  7        0.036  -4.549   1.598  0.00  0.00    +0.163 C 
ATOM     34  N   PHE A  7        1.455  -4.695   1.753  0.00  0.00    -0.302 N 
ATOM     35  H   PHE A  7        1.750  -5.089   2.710  0.00  0.00    +0.150 HD
ATOM     36  C   PHE A  6        2.499  -4.426   0.886  0.00  0.00    +0.234 C 
ATOM     37  O   PHE A  6        3.569  -3.953   1.447  0.00  0.00    -0.274 OA
ATOM     38  CA  PHE A  6        2.628  -4.575  -0.568  0.00  0.00    +0.163 C 
ATOM     39  N   PHE A  6        4.005  -4.697  -1.001  0.00  0.00    -0.302 N 
ATOM     40  C   ASN A  5        4.990  -3.725  -1.115  0.00  0.00    +0.234 C 
ATOM     41  O   ASN A  5        6.059  -3.871  -0.399  0.00  0.00    -0.274 OA
ATOM     42  CA  ASN A  5        5.024  -2.504  -1.953  0.00  0.00    +0.168 C 
ATOM     43  N   ASN A  5        6.392  -2.150  -2.307  0.00  0.00    -0.302 N 
ATOM     44  C   LYS A  4        7.038  -0.923  -2.112  0.00  0.00    +0.234 C 
ATOM     45  CA  LYS A  4        7.315  -0.234  -0.830  0.00  0.00    +0.159 C 
ATOM     46  N   LYS A  4        6.131   0.032  -0.047  0.00  0.00    -0.302 N 
ATOM     47  H   LYS A  4        5.725  -0.824   0.475  0.00  0.00    +0.150 HD
ATOM     48  O   LYS A  4        7.445  -0.319  -3.184  0.00  0.00    -0.274 OA
ATOM     49  H   ASN A  5        6.948  -2.932  -2.772  0.00  0.00    +0.150 HD
ATOM     50  H   PHE A  6        4.310  -5.695  -1.252  0.00  0.00    +0.150 HD
ATOM     51  O   PHE A  7        0.146  -2.247   1.586  0.00  0.00    -0.274 OA
ATOM     52  H   TRP A  8       -0.867  -2.439  -0.840  0.00  0.00    +0.150 HD
ATOM     53  O   THR A 10       -8.771   3.533  -1.624  0.00  0.00    -0.274 OA
ATOM     54  H   PHE A 11       -6.304   4.570  -1.585  0.00  0.00    +0.150 HD
ATOM     55  O   THR A 12       -3.167   5.350  -1.778  0.00  0.00    -0.274 OA
ATOM     56  H   SER A 13       -1.516   7.480  -2.157  0.00  0.00    +0.150 HD
ATOM     57  O   SER A 13        0.511   5.484  -2.712  0.00  0.00    -0.274 OA
ATOM     58  H   CYS A 14        2.120   7.468  -3.270  0.00  0.00    +0.150 HD
ATOM     59  C   CYS A  3        5.434   1.237   0.117  0.00  0.00    +0.235 C 
ATOM     60  O   CYS A  3        4.271   1.291  -0.473  0.00  0.00    -0.274 OA
ENDROOT
BRANCH   1  63
ATOM     61  C   GLY A  2        7.622   3.094   2.354  0.00  0.00    +0.231 C 
ATOM     62  O   GLY A  2        6.780   3.192   3.319  0.00  0.00    -0.274 OA
ATOM     63  N   CYS A  3        7.177   2.711   1.065  0.00  0.00    -0.302 N 
ATOM     64  H   CYS A  3        7.833   2.603   0.282  0.00  0.00    +0.150 HD
BRANCH  61  65
ATOM     65  CA  GLY A  2        9.016   3.404   2.718  0.00  0.00    +0.200 C 
BRANCH  65  67
ATOM     66  C   ALA A  1        9.582   4.248   0.484  0.00  0.00    +0.230 C 
ATOM     67  N   GLY A  2        9.853   3.315   1.545  0.00  0.00    -0.305 N 
ATOM     68  H   GLY A  2       10.628   2.605   1.462  0.00  0.00    +0.149 HD
ATOM     69  O   ALA A  1        8.677   5.109   0.565  0.00  0.00    -0.274 OA
BRANCH  66  70
ATOM     70  CA  ALA A  1       10.424   4.155  -0.732  0.00  0.00    +0.135 C 
ATOM     71  CB  ALA A  1       11.866   4.274  -0.334  0.00  0.00    +0.033 C 
BRANCH  70  72
ATOM     72  N   ALA A  1       10.033   5.162  -1.695  0.00  0.00    -0.320 NA
ATOM     73  H1  ALA A  1       10.765   5.910  -1.683  0.00  0.00    +0.119 HD
ATOM     74  H2  ALA A  1        9.918   4.758  -2.644  0.00  0.00    +0.119 HD
ENDBRANCH  70  72
ENDBRANCH  66  70
ENDBRANCH  65  67
ENDBRANCH  61  65
ENDBRANCH   1  63
BRANCH  20  75
ATOM     75  CB  THR A 10       -9.078   1.094  -1.396  0.00  0.00    +0.141 C 
ATOM     76  CG2 THR A 10       -9.867   1.099  -0.109  0.00  0.00    +0.040 C 
BRANCH  75  77
ATOM     77  OG1 THR A 10       -9.776   1.795  -2.349  0.00  0.00    -0.390 OA
ATOM     78  HG1 THR A 10       -9.979   1.327  -3.177  0.00  0.00    +0.210 HD
ENDBRANCH  75  77
ENDBRANCH  20  75
BRANCH   6  79
ATOM     79  C   CYS A 14        3.592   8.964  -1.922  0.00  0.00    +0.326 C 
ATOM     80  O   CYS A 14        3.354   9.247  -3.133  0.00  0.00    -0.249 OA
BRANCH  79  81
ATOM     81  OXT CYS A 14        4.547   9.735  -1.292  0.00  0.00    -0.479 OA
ATOM     82  HXT CYS A 14        4.344  10.094  -0.373  0.00  0.00    +0.295 HD
ENDBRANCH  79  81
ENDBRANCH   6  79
BRANCH  12  83
ATOM     83  CB  THR A 12       -3.287   7.571   1.109  0.00  0.00    +0.141 C 
ATOM     84  CG2 THR A 12       -3.233   8.915   0.365  0.00  0.00    +0.040 C 
BRANCH  83  85
ATOM     85  OG1 THR A 12       -4.384   7.730   2.001  0.00  0.00    -0.390 OA
ATOM     86  HG1 THR A 12       -4.351   8.656   2.345  0.00  0.00    +0.210 HD
ENDBRANCH  83  85
ENDBRANCH  12  83
BRANCH  33  87
ATOM     87  CB  PHE A  7       -0.685  -4.716   2.954  0.00  0.00    +0.067 C 
BRANCH  87  88
ATOM     88  CG  PHE A  7       -0.449  -6.033   3.567  0.00  0.00    -0.045 A 
ATOM     89  CD2 PHE A  7        0.498  -6.279   4.541  0.00  0.00    +0.004 A 
ATOM     90  CE2 PHE A  7        0.663  -7.543   5.110  0.00  0.00    +0.000 A 
ATOM     91  CZ  PHE A  7       -0.139  -8.592   4.700  0.00  0.00    +0.000 A 
ATOM     92  CE1 PHE A  7       -1.085  -8.368   3.735  0.00  0.00    +0.000 A 
ATOM     93  CD1 PHE A  7       -1.229  -7.128   3.192  0.00  0.00    +0.004 A 
ENDBRANCH  87  88
ENDBRANCH  33  87
BRANCH  25  94
ATOM     94  CB  LYS A  9       -6.008  -2.304  -1.611  0.00  0.00    +0.032 C 
BRANCH  94  95
ATOM     95  CG  LYS A  9       -6.531  -1.686  -2.863  0.00  0.00    +0.003 C 
BRANCH  95  96
ATOM     96  CD  LYS A  9       -7.144  -2.611  -3.868  0.00  0.00    +0.015 C 
BRANCH  96  97
ATOM     97  CE  LYS A  9       -8.387  -3.296  -3.404  0.00  0.00    +0.077 C 
BRANCH  97  98
ATOM     98  NZ  LYS A  9       -8.211  -4.130  -2.265  0.00  0.00    -0.330 NA
ATOM     99  HZ1 LYS A  9       -8.868  -3.883  -1.470  0.00  0.00    +0.118 HD
ATOM    100  HZ2 LYS A  9       -8.392  -5.122  -2.569  0.00  0.00    +0.118 HD
ENDBRANCH  97  98
ENDBRANCH  96  97
ENDBRANCH  95  96
ENDBRANCH  94  95
ENDBRANCH  25  94
BRANCH   9 101
ATOM    101  CB  SER A 13        0.138   5.577   0.148  0.00  0.00    +0.187 C 
BRANCH 101 102
ATOM    102  OG  SER A 13       -0.580   5.595   1.324  0.00  0.00    -0.393 OA
ATOM    103  H   SER A 13       -0.286   6.438   1.808  0.00  0.00    +0.209 HD
ENDBRANCH 101 102
ENDBRANCH   9 101
BRANCH  30 104
ATOM    104  CB  TRP A  8       -2.885  -4.816  -0.132  0.00  0.00    +0.069 C 
BRANCH 104 105
ATOM    105  CG  TRP A  8       -4.244  -5.329  -0.280  0.00  0.00    -0.020 A 
ATOM    106  CD2 TRP A  8       -5.243  -5.419   0.668  0.00  0.00    +0.003 A 
ATOM    107  CE3 TRP A  8       -5.248  -5.067   1.999  0.00  0.00    +0.010 A 
ATOM    108  CZ3 TRP A  8       -6.352  -5.254   2.799  0.00  0.00    +0.001 A 
ATOM    109  CH2 TRP A  8       -7.476  -5.803   2.263  0.00  0.00    +0.002 A 
ATOM    110  CZ2 TRP A  8       -7.482  -6.160   0.931  0.00  0.00    +0.026 A 
ATOM    111  CE2 TRP A  8       -6.380  -5.974   0.129  0.00  0.00    +0.047 A 
ATOM    112  NE1 TRP A  8       -6.097  -6.236  -1.167  0.00  0.00    -0.360 N 
ATOM    113  HE1 TRP A  8       -6.786  -6.676  -1.831  0.00  0.00    +0.165 HD
ATOM    114  CD1 TRP A  8       -4.837  -5.862  -1.437  0.00  0.00    +0.087 A 
ENDBRANCH 104 105
ENDBRANCH  30 104
BRANCH  38 115
ATOM    115  CB  PHE A  6        1.838  -5.650  -1.222  0.00  0.00    +0.067 C 
BRANCH 115 116
ATOM    116  CG  PHE A  6        2.263  -7.035  -0.981  0.00  0.00    -0.045 A 
ATOM    117  CD2 PHE A  6        1.869  -7.716   0.135  0.00  0.00    +0.004 A 
ATOM    118  CE2 PHE A  6        2.271  -9.030   0.399  0.00  0.00    +0.000 A 
ATOM    119  CZ  PHE A  6        3.086  -9.687  -0.466  0.00  0.00    +0.000 A 
ATOM    120  CE1 PHE A  6        3.506  -9.037  -1.604  0.00  0.00    +0.000 A 
ATOM    121  CD1 PHE A  6        3.102  -7.733  -1.857  0.00  0.00    +0.004 A 
ENDBRANCH 115 116
ENDBRANCH  38 115
BRANCH  42 122
ATOM    122  CB  ASN A  5        4.270  -2.616  -3.239  0.00  0.00    +0.127 C 
BRANCH 122 123
ATOM    123  CG  ASN A  5        4.762  -3.634  -4.181  0.00  0.00    +0.213 C 
ATOM    124  ND2 ASN A  5        5.791  -4.571  -3.909  0.00  0.00    -0.329 N 
ATOM    125 HD21 ASN A  5        5.860  -5.151  -3.041  0.00  0.00    +0.145 HD
ATOM    126 HD22 ASN A  5        6.576  -4.740  -4.598  0.00  0.00    +0.145 HD
ATOM    127  OD1 ASN A  5        4.260  -3.729  -5.352  0.00  0.00    -0.276 OA
ENDBRANCH 122 123
ENDBRANCH  42 122
BRANCH  45 128
ATOM    128  CB  LYS A  4        8.340  -1.040   0.002  0.00  0.00    +0.032 C 
BRANCH 128 129
ATOM    129  CG  LYS A  4        8.752  -0.281   1.215  0.00  0.00    +0.003 C 
BRANCH 129 130
ATOM    130  CD  LYS A  4        9.719  -0.977   2.117  0.00  0.00    +0.015 C 
BRANCH 130 131
ATOM    131  CE  LYS A  4       11.022  -1.361   1.510  0.00  0.00    +0.077 C 
BRANCH 131 132
ATOM    132  NZ  LYS A  4       10.924  -2.287   0.411  0.00  0.00    -0.330 NA
ATOM    133  HZ1 LYS A  4       10.826  -3.292   0.743  0.00  0.00    +0.118 HD
ATOM    134  HZ2 LYS A  4       11.753  -2.266  -0.216  0.00  0.00    +0.118 HD
ENDBRANCH 131 132
ENDBRANCH 130 131
ENDBRANCH 129 130
ENDBRANCH 128 129
ENDBRANCH  45 128
BRANCH  17 135
ATOM    135  CB  PHE A 11       -7.059   4.366   1.722  0.00  0.00    +0.067 C 
BRANCH 135 136
ATOM    136  CG  PHE A 11       -8.288   5.200   1.659  0.00  0.00    -0.045 A 
ATOM    137  CD2 PHE A 11       -8.217   6.541   2.033  0.00  0.00    +0.004 A 
ATOM    138  CE2 PHE A 11       -9.329   7.338   1.992  0.00  0.00    +0.000 A 
ATOM    139  CZ  PHE A 11      -10.556   6.823   1.575  0.00  0.00    +0.000 A 
ATOM    140  CE1 PHE A 11      -10.647   5.503   1.203  0.00  0.00    +0.000 A 
ATOM    141  CD1 PHE A 11       -9.494   4.711   1.255  0.00  0.00    +0.004 A 
ENDBRANCH 135 136
ENDBRANCH  17 135
TORSDOF 33
