REMARK  Name = molecules/NICJCIQSJJKZAH-AWEZNQCLSA-N.pdb
REMARK                            x       y       z     vdW  Elec       q    Type
REMARK                         _______ _______ _______ _____ _____    ______ ____
ROOT
ATOM      1  C   LIG    1       -0.130   2.315  -0.222  0.00  0.00    +0.040 C 
ATOM      2  C   LIG    1        0.322   0.887  -0.196  0.00  0.00    -0.055 C 
ATOM      3  C   LIG    1       -0.588  -0.024  -0.018  0.00  0.00    -0.009 C 
ATOM      4  C   LIG    1       -2.048   0.079   0.168  0.00  0.00    -0.011 C 
ATOM      5  C   LIG    1       -2.511  -1.173   0.305  0.00  0.00    -0.044 C 
ATOM      6  C   LIG    1       -3.923  -1.614   0.517  0.00  0.00    +0.044 C 
ATOM      7  C   LIG    1       -1.385  -2.096   0.214  0.00  0.00    +0.015 C 
ATOM      8  C   LIG    1       -0.284  -1.442   0.029  0.00  0.00    +0.028 C 
ATOM      9  C   LIG    1        1.109  -1.815  -0.132  0.00  0.00    +0.196 C 
ATOM     10  C   LIG    1        2.113  -0.760   0.254  0.00  0.00    +0.135 C 
ATOM     11  C   LIG    1        3.456  -1.280  -0.164  0.00  0.00    +0.051 C 
ATOM     12  O   LIG    1        1.438  -2.932  -0.559  0.00  0.00    -0.289 OA
ATOM     13  C   LIG    1        1.776   0.557  -0.392  0.00  0.00    +0.028 C 
ATOM     14  C   LIG    1        2.821   1.563  -0.467  0.00  0.00    +0.015 C 
ATOM     15  C   LIG    1        2.322   0.855  -1.742  0.00  0.00    +0.015 C 
ENDROOT
BRANCH  10  16
ATOM     16  O   LIG    1        2.097  -0.665   1.632  0.00  0.00    -0.380 OA
ATOM     17  H   LIG    1        2.943  -0.255   1.928  0.00  0.00    +0.211 HD
ENDBRANCH  10  16
BRANCH   4  18
ATOM     18  C   LIG    1       -2.904   1.232   0.210  0.00  0.00    +0.192 C 
BRANCH  18  19
ATOM     19  O   LIG    1       -4.231   0.854   0.405  0.00  0.00    -0.390 OA
ATOM     20  H   LIG    1       -4.816   1.105  -0.352  0.00  0.00    +0.210 HD
ENDBRANCH  18  19
ENDBRANCH   4  18
TORSDOF 3
