REMARK  Name = molecules/NIQCNGHVCWTJSM-UHFFFAOYSA-N.pdb
REMARK                            x       y       z     vdW  Elec       q    Type
REMARK                         _______ _______ _______ _____ _____    ______ ____
ROOT
ATOM      1  C   LIG    1       -0.610   0.531   0.038  0.00  0.00    +0.073 A 
ATOM      2  C   LIG    1       -1.675   1.455   0.119  0.00  0.00    +0.016 A 
ATOM      3  C   LIG    1       -1.532   2.795  -0.122  0.00  0.00    +0.001 A 
ATOM      4  C   LIG    1       -0.305   3.318  -0.464  0.00  0.00    +0.001 A 
ATOM      5  C   LIG    1        0.744   2.449  -0.550  0.00  0.00    +0.016 A 
ATOM      6  C   LIG    1        0.604   1.057  -0.302  0.00  0.00    +0.073 A 
ENDROOT
BRANCH   1   7
ATOM      7  C   LIG    1       -0.881  -0.865   0.315  0.00  0.00    +0.340 C 
ATOM      8  O   LIG    1       -0.102  -1.806   0.297  0.00  0.00    -0.245 OA
BRANCH   7   9
ATOM      9  O   LIG    1       -2.207  -1.239   0.654  0.00  0.00    -0.464 OA
ATOM     10  C   LIG    1       -2.568  -2.559   0.938  0.00  0.00    +0.280 C 
ENDBRANCH   7   9
ENDBRANCH   1   7
BRANCH   6  11
ATOM     11  C   LIG    1        1.790   0.234  -0.424  0.00  0.00    +0.340 C 
ATOM     12  O   LIG    1        2.897   0.826  -0.751  0.00  0.00    -0.245 OA
BRANCH  11  13
ATOM     13  O   LIG    1        1.933  -1.106  -0.244  0.00  0.00    -0.464 OA
ATOM     14  C   LIG    1        3.123  -1.832  -0.382  0.00  0.00    +0.280 C 
ENDBRANCH  11  13
ENDBRANCH   6  11
TORSDOF 4
