REMARK  Name = molecules/NIVFTEMPSCMWDE-QMMMGPOBSA-N.pdb
REMARK                            x       y       z     vdW  Elec       q    Type
REMARK                         _______ _______ _______ _____ _____    ______ ____
ROOT
ATOM      1  C   LIG    1       -0.282  -0.201  -0.371  0.00  0.00    +0.079 C 
ATOM      2  C   LIG    1       -0.474  -0.995   0.872  0.00  0.00    +0.035 C 
ATOM      3  C   LIG    1       -1.904  -1.554   0.817  0.00  0.00    +0.003 C 
ATOM      4  C   LIG    1       -2.871  -0.389   0.811  0.00  0.00    +0.000 C 
ATOM      5  C   LIG    1       -2.647   0.399  -0.469  0.00  0.00    +0.003 C 
ATOM      6  C   LIG    1       -1.230   0.959  -0.364  0.00  0.00    +0.035 C 
ENDROOT
BRANCH   1   7
ATOM      7  O   LIG    1       -0.648  -1.034  -1.454  0.00  0.00    -0.388 OA
ATOM      8  H   LIG    1       -0.082  -1.848  -1.385  0.00  0.00    +0.210 HD
ENDBRANCH   1   7
BRANCH   1   9
ATOM      9  C   LIG    1        1.107   0.261  -0.630  0.00  0.00    +0.129 C 
BRANCH   9  10
ATOM     10  C   LIG    1        1.575   1.330   0.333  0.00  0.00    +0.014 C 
ATOM     11  C   LIG    1        2.887   1.943  -0.110  0.00  0.00    +0.005 C 
ENDBRANCH   9  10
BRANCH   9  12
ATOM     12  C   LIG    1        2.089  -0.831  -0.736  0.00  0.00    +0.311 C 
ATOM     13  O   LIG    1        2.658  -1.163  -1.817  0.00  0.00    -0.251 OA
BRANCH  12  14
ATOM     14  O   LIG    1        2.428  -1.553   0.392  0.00  0.00    -0.480 OA
ATOM     15  H   LIG    1        3.182  -2.203   0.458  0.00  0.00    +0.295 HD
ENDBRANCH  12  14
ENDBRANCH   9  12
ENDBRANCH   1   9
TORSDOF 5
