REMARK  Name = molecules/NIVZHWNOUVJHKV-UHFFFAOYSA-N.pdb
REMARK                            x       y       z     vdW  Elec       q    Type
REMARK                         _______ _______ _______ _____ _____    ______ ____
ROOT
ATOM      1  C   LIG    1       -1.865   0.196  -0.264  0.00  0.00    +0.381 C 
ATOM      2  N   LIG    1       -0.673  -0.284  -0.184  0.00  0.00    -0.109 NA
ENDROOT
BRANCH   1   4
ATOM      3  C   LIG    1       -2.308   2.616   0.315  0.00  0.00    +0.239 C 
ATOM      4  N   LIG    1       -2.026   1.572  -0.644  0.00  0.00    -0.279 N 
ATOM      5  H   LIG    1       -1.924   1.758  -1.672  0.00  0.00    +0.258 HD
ENDBRANCH   1   4
BRANCH   1   6
ATOM      6  N   LIG    1       -3.020  -0.561   0.002  0.00  0.00    -0.279 N 
ATOM      7  H   LIG    1       -3.855  -0.102   0.440  0.00  0.00    +0.258 HD
ATOM      8  C   LIG    1       -3.149  -1.977  -0.292  0.00  0.00    +0.239 C 
ENDBRANCH   1   6
BRANCH   2   9
ATOM      9  C   LIG    1        0.486   0.538  -0.468  0.00  0.00    +0.278 C 
BRANCH   9  10
ATOM     10  C   LIG    1        1.729  -0.067   0.026  0.00  0.00    -0.011 A 
ATOM     11  C   LIG    1        1.751  -1.274   0.677  0.00  0.00    +0.007 A 
ATOM     12  C   LIG    1        2.929  -1.838   1.140  0.00  0.00    +0.000 A 
ATOM     13  C   LIG    1        4.127  -1.157   0.937  0.00  0.00    +0.000 A 
ATOM     14  C   LIG    1        4.106   0.055   0.283  0.00  0.00    +0.000 A 
ATOM     15  C   LIG    1        2.910   0.609  -0.177  0.00  0.00    +0.007 A 
ENDBRANCH   9  10
ENDBRANCH   2   9
TORSDOF 4
