REMARK  Name = molecules/NJAGGYXZTILBMJ-FLWNBWAVSA-N.pdb
REMARK                            x       y       z     vdW  Elec       q    Type
REMARK                         _______ _______ _______ _____ _____    ______ ____
ROOT
ATOM      1  N   LIG    1        0.761   0.429   0.707  0.00  0.00    -0.040 NA
ATOM      2  N   LIG    1       -0.383   0.472   0.691  0.00  0.00    -0.040 NA
ENDROOT
BRANCH   2   3
ATOM      3  N   LIG    1       -1.611  -0.022   0.378  0.00  0.00    -0.194 N 
ATOM      4  C   LIG    1       -2.812   0.375   0.920  0.00  0.00    +0.096 A 
ATOM      5  C   LIG    1       -3.775  -0.372   0.296  0.00  0.00    +0.048 A 
ATOM      6  C   LIG    1       -5.240  -0.340   0.559  0.00  0.00    +0.066 C 
ATOM      7  N   LIG    1       -3.189  -1.212  -0.615  0.00  0.00    -0.304 N 
ATOM      8  C   LIG    1       -3.723  -2.115  -1.450  0.00  0.00    +0.089 C 
ATOM      9  C   LIG    1       -2.893  -2.850  -2.284  0.00  0.00    -0.000 C 
ATOM     10  C   LIG    1       -1.529  -2.625  -2.226  0.00  0.00    +0.050 C 
ATOM     11  C   LIG    1       -1.042  -1.691  -1.355  0.00  0.00    +0.028 C 
ATOM     12  C   LIG    1       -1.898  -0.992  -0.553  0.00  0.00    +0.138 A 
BRANCH   4  13
ATOM     13  C   LIG    1       -2.916   1.455   1.897  0.00  0.00    +0.002 A 
ATOM     14  C   LIG    1       -1.871   1.885   2.689  0.00  0.00    +0.010 A 
ATOM     15  C   LIG    1       -2.054   2.885   3.652  0.00  0.00    +0.001 A 
ATOM     16  C   LIG    1       -3.278   3.482   3.852  0.00  0.00    +0.000 A 
ATOM     17  C   LIG    1       -4.322   3.075   3.083  0.00  0.00    +0.001 A 
ATOM     18  C   LIG    1       -4.130   2.087   2.134  0.00  0.00    +0.010 A 
ENDBRANCH   4  13
ENDBRANCH   2   3
BRANCH   1  19
ATOM     19  N   LIG    1        1.891  -0.280   0.356  0.00  0.00    -0.194 N 
ATOM     20  C   LIG    1        2.224  -1.497   0.865  0.00  0.00    +0.138 A 
ATOM     21  C   LIG    1        1.561  -2.267   1.813  0.00  0.00    +0.028 C 
ATOM     22  C   LIG    1        2.067  -3.475   2.193  0.00  0.00    +0.050 C 
ATOM     23  C   LIG    1        3.247  -3.900   1.609  0.00  0.00    -0.000 C 
ATOM     24  C   LIG    1        3.860  -3.101   0.679  0.00  0.00    +0.089 C 
ATOM     25  N   LIG    1        3.333  -1.909   0.323  0.00  0.00    -0.304 N 
ATOM     26  C   LIG    1        3.744  -0.950  -0.559  0.00  0.00    +0.048 A 
ATOM     27  C   LIG    1        5.006  -1.080  -1.334  0.00  0.00    +0.066 C 
ATOM     28  C   LIG    1        2.843   0.082  -0.549  0.00  0.00    +0.096 A 
BRANCH  28  29
ATOM     29  C   LIG    1        2.806   1.308  -1.356  0.00  0.00    +0.002 A 
ATOM     30  C   LIG    1        2.014   2.393  -1.046  0.00  0.00    +0.010 A 
ATOM     31  C   LIG    1        2.020   3.579  -1.788  0.00  0.00    +0.001 A 
ATOM     32  C   LIG    1        2.842   3.694  -2.878  0.00  0.00    +0.000 A 
ATOM     33  C   LIG    1        3.638   2.636  -3.210  0.00  0.00    +0.001 A 
ATOM     34  C   LIG    1        3.614   1.449  -2.446  0.00  0.00    +0.010 A 
ENDBRANCH  28  29
ENDBRANCH   1  19
TORSDOF 4
