REMARK  Name = molecules/NJBFOOCLYDNZJN-UHFFFAOYSA-N.pdb
REMARK                            x       y       z     vdW  Elec       q    Type
REMARK                         _______ _______ _______ _____ _____    ______ ____
ROOT
ATOM      1  C   LIG    1       -2.546  -0.249  -0.919  0.00  0.00    +0.216 C 
ATOM      2  N   LIG    1       -1.244   0.039  -0.503  0.00  0.00    -0.298 N 
ATOM      3  C   LIG    1       -1.002   0.791   0.701  0.00  0.00    +0.126 C 
ATOM      4  C   LIG    1        0.204   0.328   1.477  0.00  0.00    +0.126 C 
ATOM      5  N   LIG    1        1.253  -0.144   0.618  0.00  0.00    -0.298 N 
ATOM      6  C   LIG    1        2.583   0.268   0.889  0.00  0.00    +0.216 C 
ATOM      7  O   LIG    1        2.870   1.025   1.846  0.00  0.00    -0.276 OA
ATOM      8  C   LIG    1        0.975  -1.013  -0.488  0.00  0.00    +0.126 C 
ATOM      9  C   LIG    1       -0.152  -0.432  -1.310  0.00  0.00    +0.126 C 
ATOM     10  O   LIG    1       -2.779  -0.897  -1.956  0.00  0.00    -0.276 OA
ENDROOT
BRANCH   1  11
ATOM     11  C   LIG    1       -3.679   0.229  -0.105  0.00  0.00    +0.107 C 
BRANCH  11  12
ATOM     12  C   LIG    1       -5.013  -0.168  -0.693  0.00  0.00    +0.089 C 
ATOM     13 BR   LIG    1       -6.441   0.487   0.415  0.00  0.00    -0.091 Br
ENDBRANCH  11  12
ENDBRANCH   1  11
BRANCH   6  14
ATOM     14  C   LIG    1        3.669  -0.208   0.018  0.00  0.00    +0.107 C 
BRANCH  14  15
ATOM     15  C   LIG    1        5.016   0.327   0.448  0.00  0.00    +0.089 C 
ATOM     16 BR   LIG    1        6.331  -0.383  -0.785  0.00  0.00    -0.091 Br
ENDBRANCH  14  15
ENDBRANCH   6  14
TORSDOF 4
