REMARK  Name = molecules/NJCBUSHGCBERSK-UHFFFAOYSA-N.pdb
REMARK                            x       y       z     vdW  Elec       q    Type
REMARK                         _______ _______ _______ _____ _____    ______ ____
ROOT
ATOM      1  C   LIG    1       -0.030  -0.432   0.891  0.00  0.00    +0.390 C 
ATOM      2  F   LIG    1       -0.450   0.103   2.119  0.00  0.00    -0.192 F 
ATOM      3  F   LIG    1        0.372  -1.747   1.185  0.00  0.00    -0.192 F 
ENDROOT
BRANCH   1   4
ATOM      4  C   LIG    1        1.169   0.312   0.485  0.00  0.00    +0.409 C 
ATOM      5  F   LIG    1        2.090   0.174   1.546  0.00  0.00    -0.189 F 
ATOM      6  F   LIG    1        0.923   1.677   0.449  0.00  0.00    -0.189 F 
BRANCH   4   7
ATOM      7  C   LIG    1        1.902  -0.162  -0.727  0.00  0.00    +0.460 C 
ATOM      8  F   LIG    1        2.506  -1.408  -0.512  0.00  0.00    -0.165 F 
ATOM      9  F   LIG    1        2.992   0.688  -0.985  0.00  0.00    -0.165 F 
ATOM     10  F   LIG    1        1.174  -0.166  -1.882  0.00  0.00    -0.165 F 
ENDBRANCH   4   7
ENDBRANCH   1   4
BRANCH   1  11
ATOM     11  C   LIG    1       -1.186  -0.537  -0.004  0.00  0.00    +0.409 C 
ATOM     12  F   LIG    1       -2.158  -1.275   0.707  0.00  0.00    -0.189 F 
ATOM     13  F   LIG    1       -0.949  -1.302  -1.131  0.00  0.00    -0.189 F 
BRANCH  11  14
ATOM     14  C   LIG    1       -1.863   0.720  -0.414  0.00  0.00    +0.460 C 
ATOM     15  F   LIG    1       -2.370   1.442   0.661  0.00  0.00    -0.165 F 
ATOM     16  F   LIG    1       -2.994   0.359  -1.163  0.00  0.00    -0.165 F 
ATOM     17  F   LIG    1       -1.129   1.554  -1.225  0.00  0.00    -0.165 F 
ENDBRANCH  11  14
ENDBRANCH   1  11
TORSDOF 4
