REMARK  Name = molecules/NJCJBUHJQLFDSW-UHFFFAOYSA-N.pdb
REMARK                            x       y       z     vdW  Elec       q    Type
REMARK                         _______ _______ _______ _____ _____    ______ ____
ROOT
ATOM      1  C   LIG    1       -0.371  -0.159  -0.168  0.00  0.00    +0.056 A 
ATOM      2  C   LIG    1       -1.722   0.071   0.029  0.00  0.00    +0.068 A 
ATOM      3  C   LIG    1       -2.141   1.383   0.344  0.00  0.00    +0.050 A 
ATOM      4  C   LIG    1       -3.463   1.708   0.557  0.00  0.00    +0.203 A 
ATOM      5  O   LIG    1       -3.864   2.861   0.838  0.00  0.00    -0.286 OA
ATOM      6  C   LIG    1       -4.387   0.695   0.454  0.00  0.00    +0.122 A 
ATOM      7  C   LIG    1       -3.964  -0.577   0.146  0.00  0.00    +0.105 A 
ATOM      8  C   LIG    1       -1.231   2.398   0.447  0.00  0.00    +0.054 A 
ATOM      9  C   LIG    1        0.109   2.161   0.248  0.00  0.00    +0.146 A 
ATOM     10  F   LIG    1        1.029   3.146   0.344  0.00  0.00    -0.203 F 
ATOM     11  N   LIG    1       -2.649  -0.904  -0.068  0.00  0.00    -0.344 N 
ATOM     12  C   LIG    1       -2.402  -2.284  -0.413  0.00  0.00    +0.133 C 
ATOM     13  C   LIG    1       -1.165  -2.841   0.246  0.00  0.00    +0.096 C 
ATOM     14  C   LIG    1        0.531   0.864  -0.063  0.00  0.00    +0.081 A 
ATOM     15  S   LIG    1        0.191  -1.843  -0.528  0.00  0.00    -0.120 S 
ENDROOT
BRANCH  14  16
ATOM     16  N   LIG    1        1.915   0.615  -0.270  0.00  0.00    -0.324 N 
ATOM     17  C   LIG    1        2.721   0.241   0.886  0.00  0.00    +0.120 C 
ATOM     18  C   LIG    1        4.159   0.588   0.525  0.00  0.00    +0.103 C 
ATOM     19  N   LIG    1        4.603  -0.275  -0.549  0.00  0.00    -0.302 NA
ATOM     20  C   LIG    1        4.753  -1.606   0.001  0.00  0.00    +0.105 C 
ATOM     21  C   LIG    1        3.709  -0.289  -1.670  0.00  0.00    +0.103 C 
ATOM     22  C   LIG    1        2.577   0.706  -1.538  0.00  0.00    +0.120 C 
ENDBRANCH  14  16
BRANCH   6  23
ATOM     23  C   LIG    1       -5.815   0.921   0.659  0.00  0.00    +0.342 C 
ATOM     24  O   LIG    1       -6.228   2.064   0.940  0.00  0.00    -0.245 OA
BRANCH  23  25
ATOM     25  O   LIG    1       -6.720  -0.113   0.549  0.00  0.00    -0.477 OA
ATOM     26  H   LIG    1       -6.954  -0.752   1.301  0.00  0.00    +0.295 HD
ENDBRANCH  23  25
ENDBRANCH   6  23
TORSDOF 3
