REMARK  Name = molecules/NJDRXTDGYFKORP-LLVKDONJSA-N.pdb
REMARK                            x       y       z     vdW  Elec       q    Type
REMARK                         _______ _______ _______ _____ _____    ______ ____
ROOT
ATOM      1  C   LIG    1        0.886  -0.049   0.014  0.00  0.00    +0.159 A 
ATOM      2  C   LIG    1       -0.150   0.586   0.703  0.00  0.00    +0.026 A 
ATOM      3  C   LIG    1        0.162   1.493   1.684  0.00  0.00    +0.013 A 
ATOM      4  C   LIG    1        1.470   1.768   1.980  0.00  0.00    +0.014 A 
ATOM      5  C   LIG    1        2.488   1.134   1.298  0.00  0.00    +0.050 A 
ATOM      6  C   LIG    1        3.812   1.379   1.587  0.00  0.00    +0.203 A 
ATOM      7  O   LIG    1        4.095   2.216   2.490  0.00  0.00    -0.286 OA
ATOM      8  C   LIG    1        4.858   0.761   0.947  0.00  0.00    +0.122 A 
ATOM      9  C   LIG    1        4.520  -0.142  -0.027  0.00  0.00    +0.105 A 
ATOM     10  N   LIG    1        3.219  -0.415  -0.347  0.00  0.00    -0.340 N 
ATOM     11  C   LIG    1        2.202   0.197   0.285  0.00  0.00    +0.096 A 
ENDROOT
BRANCH   2  12
ATOM     12  C   LIG    1       -1.552   0.260   0.424  0.00  0.00    -0.014 A 
ATOM     13  C   LIG    1       -2.012  -1.037   0.433  0.00  0.00    +0.009 A 
ATOM     14  C   LIG    1       -3.358  -1.294   0.187  0.00  0.00    +0.006 A 
ATOM     15  C   LIG    1       -4.252  -0.261  -0.069  0.00  0.00    -0.026 A 
ATOM     16  C   LIG    1       -3.747   1.031  -0.068  0.00  0.00    -0.028 A 
ATOM     17  C   LIG    1       -4.872   1.952  -0.363  0.00  0.00    +0.117 C 
ATOM     18  N   LIG    1       -5.806   1.097  -1.075  0.00  0.00    -0.306 NA
ATOM     19  H   LIG    1       -5.402   0.939  -2.027  0.00  0.00    +0.123 HD
ATOM     20  C   LIG    1       -5.702  -0.149  -0.362  0.00  0.00    +0.081 C 
ATOM     21  C   LIG    1       -6.403   0.004   0.986  0.00  0.00    +0.029 C 
ATOM     22  C   LIG    1       -2.418   1.290   0.174  0.00  0.00    +0.013 A 
ENDBRANCH   2  12
BRANCH  10  23
ATOM     23  C   LIG    1        2.967  -1.419  -1.371  0.00  0.00    +0.088 C 
ATOM     24  C   LIG    1        2.471  -2.760  -1.099  0.00  0.00    +0.027 C 
ATOM     25  C   LIG    1        3.924  -2.618  -1.352  0.00  0.00    +0.027 C 
ENDBRANCH  10  23
BRANCH   8  26
ATOM     26  C   LIG    1        6.258   1.053   1.287  0.00  0.00    +0.342 C 
ATOM     27  O   LIG    1        6.553   1.884   2.183  0.00  0.00    -0.245 OA
BRANCH  26  28
ATOM     28  O   LIG    1        7.301   0.419   0.629  0.00  0.00    -0.477 OA
ATOM     29  H   LIG    1        8.068   0.083   1.222  0.00  0.00    +0.295 HD
ENDBRANCH  26  28
ENDBRANCH   8  26
BRANCH   1  30
ATOM     30  O   LIG    1        0.490  -0.946  -0.977  0.00  0.00    -0.432 OA
BRANCH  30  31
ATOM     31  C   LIG    1        0.221  -0.529  -2.305  0.00  0.00    +0.541 C 
ATOM     32  F   LIG    1       -1.153  -0.176  -2.433  0.00  0.00    -0.166 F 
ATOM     33  F   LIG    1        0.567  -1.385  -3.286  0.00  0.00    -0.166 F 
ENDBRANCH  30  31
ENDBRANCH   1  30
TORSDOF 6
