REMARK  Name = molecules/NJDUWAXIURWWLN-UHFFFAOYSA-N.pdb
REMARK                            x       y       z     vdW  Elec       q    Type
REMARK                         _______ _______ _______ _____ _____    ______ ____
ROOT
ATOM      1  O   LIG    1       -0.102   2.369  -0.275  0.00  0.00    -0.291 OA
ATOM      2  C   LIG    1       -0.498   1.213  -0.501  0.00  0.00    +0.179 C 
ATOM      3  C   LIG    1       -1.862   0.730  -0.334  0.00  0.00    +0.029 A 
ATOM      4  C   LIG    1       -3.097   1.349  -0.213  0.00  0.00    +0.012 A 
ATOM      5  C   LIG    1       -4.283   0.674  -0.061  0.00  0.00    +0.001 A 
ATOM      6  C   LIG    1       -4.235  -0.706  -0.028  0.00  0.00    +0.001 A 
ATOM      7  C   LIG    1       -3.029  -1.361  -0.144  0.00  0.00    +0.012 A 
ATOM      8  C   LIG    1       -1.837  -0.666  -0.298  0.00  0.00    +0.029 A 
ATOM      9  C   LIG    1       -0.450  -1.084  -0.442  0.00  0.00    +0.179 C 
ATOM     10  O   LIG    1        0.030  -2.221  -0.161  0.00  0.00    -0.291 OA
ATOM     11  C   LIG    1        0.290   0.077  -0.979  0.00  0.00    +0.161 C 
ENDROOT
BRANCH  11  12
ATOM     12  C   LIG    1        1.654   0.029  -0.398  0.00  0.00    -0.029 A 
ATOM     13  C   LIG    1        1.859   0.084   0.961  0.00  0.00    +0.006 A 
ATOM     14  C   LIG    1        3.152   0.035   1.438  0.00  0.00    +0.020 A 
ATOM     15  C   LIG    1        4.249  -0.068   0.600  0.00  0.00    +0.041 A 
ATOM     16 CL   LIG    1        5.887  -0.129   1.243  0.00  0.00    -0.084 Cl
ATOM     17  C   LIG    1        4.010  -0.121  -0.761  0.00  0.00    +0.020 A 
ATOM     18  C   LIG    1        2.721  -0.073  -1.265  0.00  0.00    +0.006 A 
ENDBRANCH  11  12
TORSDOF 1
