REMARK  Name = molecules/NJKDOADNQSYQEV-OCAPTIKFSA-N.pdb
REMARK                            x       y       z     vdW  Elec       q    Type
REMARK                         _______ _______ _______ _____ _____    ______ ____
ROOT
ATOM      1  C   LIG    1        0.170   2.219  -0.620  0.00  0.00    +0.064 A 
ATOM      2  C   LIG    1        1.248   1.482  -0.245  0.00  0.00    +0.049 A 
ATOM      3  C   LIG    1        1.210   0.096   0.004  0.00  0.00    +0.065 A 
ATOM      4  C   LIG    1       -0.004  -0.493  -0.151  0.00  0.00    +0.040 A 
ATOM      5  I   LIG    1       -0.248  -2.557   0.293  0.00  0.00    -0.042 I 
ATOM      6  C   LIG    1       -1.172   0.219  -0.542  0.00  0.00    +0.065 A 
ATOM      7  I   LIG    1        3.102   2.448  -0.016  0.00  0.00    -0.041 I 
ATOM      8  C   LIG    1       -1.049   1.568  -0.768  0.00  0.00    +0.049 A 
ATOM      9  I   LIG    1       -2.657   2.746  -1.435  0.00  0.00    -0.041 I 
ENDROOT
BRANCH   1  10
ATOM     10  N   LIG    1        0.271   3.618  -0.857  0.00  0.00    -0.271 N 
ATOM     11  C   LIG    1        0.042   4.585   0.141  0.00  0.00    +0.245 C 
ATOM     12  O   LIG    1        0.142   5.797  -0.109  0.00  0.00    -0.273 OA
ATOM     13  C   LIG    1        0.631   4.114  -2.197  0.00  0.00    +0.138 C 
BRANCH  11  14
ATOM     14  C   LIG    1       -0.324   4.163   1.506  0.00  0.00    +0.252 C 
BRANCH  14  15
ATOM     15  O   LIG    1       -0.400   2.789   1.639  0.00  0.00    -0.386 OA
ATOM     16  H   LIG    1        0.214   2.455   2.326  0.00  0.00    +0.210 HD
ENDBRANCH  14  15
ENDBRANCH  11  14
ENDBRANCH   1  10
BRANCH   3  17
ATOM     17  C   LIG    1        2.430  -0.553   0.430  0.00  0.00    +0.246 C 
ATOM     18  O   LIG    1        3.285   0.178   1.062  0.00  0.00    -0.270 OA
ATOM     19  N   LIG    1        2.794  -1.881   0.231  0.00  0.00    -0.309 N 
ATOM     20  H   LIG    1        2.197  -2.545  -0.308  0.00  0.00    +0.149 HD
BRANCH  19  21
ATOM     21  C   LIG    1        4.052  -2.435   0.711  0.00  0.00    +0.138 C 
BRANCH  21  22
ATOM     22  C   LIG    1        5.203  -1.737   0.080  0.00  0.00    +0.157 C 
BRANCH  22  23
ATOM     23  O   LIG    1        5.141  -1.880  -1.308  0.00  0.00    -0.388 OA
ATOM     24  H   LIG    1        4.506  -2.588  -1.576  0.00  0.00    +0.210 HD
ENDBRANCH  22  23
BRANCH  22  25
ATOM     25  C   LIG    1        6.517  -2.379   0.524  0.00  0.00    +0.188 C 
BRANCH  25  26
ATOM     26  O   LIG    1        7.602  -1.759  -0.067  0.00  0.00    -0.392 OA
ATOM     27  H   LIG    1        7.757  -0.864   0.356  0.00  0.00    +0.210 HD
ENDBRANCH  25  26
ENDBRANCH  22  25
ENDBRANCH  21  22
ENDBRANCH  19  21
ENDBRANCH   3  17
BRANCH   6  28
ATOM     28  C   LIG    1       -2.406  -0.539  -0.607  0.00  0.00    +0.246 C 
ATOM     29  N   LIG    1       -3.709  -0.065  -0.424  0.00  0.00    -0.309 N 
ATOM     30  H   LIG    1       -3.961   0.936  -0.180  0.00  0.00    +0.149 HD
ATOM     31  O   LIG    1       -2.295  -1.800  -0.856  0.00  0.00    -0.270 OA
BRANCH  29  32
ATOM     32  C   LIG    1       -4.852  -0.972  -0.528  0.00  0.00    +0.138 C 
BRANCH  32  33
ATOM     33  C   LIG    1       -4.836  -2.067   0.487  0.00  0.00    +0.157 C 
BRANCH  33  34
ATOM     34  O   LIG    1       -4.847  -1.525   1.777  0.00  0.00    -0.388 OA
ATOM     35  H   LIG    1       -5.775  -1.504   2.126  0.00  0.00    +0.210 HD
ENDBRANCH  33  34
BRANCH  33  36
ATOM     36  C   LIG    1       -6.070  -2.948   0.382  0.00  0.00    +0.188 C 
BRANCH  36  37
ATOM     37  O   LIG    1       -7.235  -2.211   0.583  0.00  0.00    -0.392 OA
ATOM     38  H   LIG    1       -7.845  -2.292  -0.195  0.00  0.00    +0.210 HD
ENDBRANCH  36  37
ENDBRANCH  33  36
ENDBRANCH  32  33
ENDBRANCH  29  32
ENDBRANCH   6  28
TORSDOF 15
