REMARK  Name = molecules/NKJQZSDCCLDOQH-MRXNPFEDSA-N.pdb
REMARK                            x       y       z     vdW  Elec       q    Type
REMARK                         _______ _______ _______ _____ _____    ______ ____
ROOT
ATOM      1  C   LIG    1        1.784   0.922   1.639  0.00  0.00    +0.029 C 
ATOM      2  C   LIG    1        1.799   0.816   0.129  0.00  0.00    +0.080 C 
ATOM      3  N   LIG    1        3.039   0.076  -0.243  0.00  0.00    -0.296 NA
ATOM      4  C   LIG    1        2.583  -1.268  -0.467  0.00  0.00    +0.089 C 
ATOM      5  C   LIG    1        1.329  -0.919  -1.319  0.00  0.00    +0.048 C 
ATOM      6  C   LIG    1        0.658   0.055  -0.385  0.00  0.00    -0.043 C 
ATOM      7  C   LIG    1       -0.605   0.113  -0.117  0.00  0.00    -0.009 C 
ATOM      8  C   LIG    1       -1.163   1.047   0.858  0.00  0.00    -0.014 A 
ATOM      9  C   LIG    1       -2.154   0.807   1.807  0.00  0.00    -0.039 A 
ATOM     10  C   LIG    1       -2.493   1.884   2.647  0.00  0.00    +0.004 A 
ATOM     11  C   LIG    1       -1.887   3.114   2.543  0.00  0.00    +0.000 A 
ATOM     12  C   LIG    1       -0.909   3.310   1.580  0.00  0.00    +0.001 A 
ATOM     13  C   LIG    1       -2.995  -0.359   2.071  0.00  0.00    +0.040 C 
ATOM     14  C   LIG    1       -2.890  -1.597   1.298  0.00  0.00    +0.040 C 
ATOM     15  C   LIG    1       -2.551  -1.557  -0.134  0.00  0.00    -0.039 A 
ATOM     16  C   LIG    1       -3.320  -2.410  -0.939  0.00  0.00    +0.004 A 
ATOM     17  C   LIG    1       -3.058  -2.477  -2.289  0.00  0.00    +0.000 A 
ATOM     18  C   LIG    1       -2.043  -1.716  -2.895  0.00  0.00    +0.001 A 
ATOM     19  C   LIG    1       -1.276  -0.870  -2.123  0.00  0.00    +0.009 A 
ATOM     20  C   LIG    1       -0.576   2.268   0.762  0.00  0.00    +0.009 A 
ATOM     21  C   LIG    1       -1.549  -0.822  -0.803  0.00  0.00    -0.014 A 
ENDROOT
BRANCH   3  22
ATOM     22  C   LIG    1        3.683   0.686  -1.371  0.00  0.00    +0.081 C 
ATOM     23  C   LIG    1        4.917  -0.140  -1.690  0.00  0.00    +0.020 C 
ENDBRANCH   3  22
TORSDOF 1
