REMARK  Name = molecules/NLOOMWLTUVBWAW-HLLBOEOZSA-N.pdb
REMARK                            x       y       z     vdW  Elec       q    Type
REMARK                         _______ _______ _______ _____ _____    ______ ____
ROOT
ATOM      1  C   LIG    1        2.279  -0.590   0.424  0.00  0.00    +0.201 C 
ATOM      2  C   LIG    1        1.766  -0.129   1.778  0.00  0.00    +0.042 C 
ATOM      3  C   LIG    1        2.826   0.514   2.612  0.00  0.00    +0.025 C 
ATOM      4  C   LIG    1        1.134  -1.284   2.497  0.00  0.00    +0.025 C 
ATOM      5  S   LIG    1        0.490   1.039   1.232  0.00  0.00    -0.127 S 
ATOM      6  C   LIG    1        0.434   0.531  -0.509  0.00  0.00    +0.165 C 
ATOM      7  C   LIG    1       -0.794  -0.228  -0.932  0.00  0.00    +0.190 C 
ATOM      8  C   LIG    1        0.164  -1.307  -1.304  0.00  0.00    +0.240 C 
ATOM      9  O   LIG    1        0.105  -2.300  -2.074  0.00  0.00    -0.273 OA
ATOM     10  N   LIG    1        1.139  -0.728  -0.427  0.00  0.00    -0.271 N 
ENDROOT
BRANCH   7  11
ATOM     11  N   LIG    1       -1.754  -0.535   0.059  0.00  0.00    -0.301 N 
ATOM     12  H   LIG    1       -1.500  -0.954   0.972  0.00  0.00    +0.150 HD
ATOM     13  C   LIG    1       -3.132  -0.272  -0.169  0.00  0.00    +0.218 C 
ATOM     14  O   LIG    1       -3.460   0.237  -1.270  0.00  0.00    -0.275 OA
BRANCH  13  15
ATOM     15  C   LIG    1       -4.181  -0.566   0.817  0.00  0.00    +0.130 C 
BRANCH  15  16
ATOM     16  C   LIG    1       -5.494  -0.171   0.260  0.00  0.00    -0.039 A 
ATOM     17  C   LIG    1       -5.979   1.103   0.462  0.00  0.00    +0.004 A 
ATOM     18  C   LIG    1       -7.203   1.423  -0.075  0.00  0.00    +0.000 A 
ATOM     19  C   LIG    1       -7.925   0.491  -0.798  0.00  0.00    +0.000 A 
ATOM     20  C   LIG    1       -7.407  -0.764  -0.976  0.00  0.00    +0.000 A 
ATOM     21  C   LIG    1       -6.190  -1.122  -0.456  0.00  0.00    +0.004 A 
ENDBRANCH  15  16
ENDBRANCH  13  15
ENDBRANCH   7  11
BRANCH   1  22
ATOM     22  C   LIG    1        3.200   0.419  -0.164  0.00  0.00    +0.332 C 
ATOM     23  O   LIG    1        2.991   0.950  -1.278  0.00  0.00    -0.249 OA
BRANCH  22  24
ATOM     24  O   LIG    1        4.355   0.833   0.495  0.00  0.00    -0.426 OA
BRANCH  24  25
ATOM     25  C   LIG    1        5.241   1.789  -0.048  0.00  0.00    +0.472 C 
BRANCH  25  26
ATOM     26  O   LIG    1        5.782   1.390  -1.278  0.00  0.00    -0.428 OA
BRANCH  26  27
ATOM     27  C   LIG    1        6.522   0.243  -1.360  0.00  0.00    +0.307 C 
ATOM     28  O   LIG    1        6.734  -0.475  -0.348  0.00  0.00    -0.251 OA
ATOM     29  C   LIG    1        7.124  -0.230  -2.647  0.00  0.00    +0.136 C 
ENDBRANCH  26  27
ENDBRANCH  25  26
ENDBRANCH  24  25
ENDBRANCH  22  24
ENDBRANCH   1  22
TORSDOF 8
