REMARK  Name = molecules/NLVFBUXFDBBNBW-PBSUHMDJSA-N.pdb
REMARK                            x       y       z     vdW  Elec       q    Type
REMARK                         _______ _______ _______ _____ _____    ______ ____
ROOT
ATOM      1  C   LIG    1        1.220  -0.859   2.321  0.00  0.00    +0.169 C 
ATOM      2  C   LIG    1        1.242   0.269   3.314  0.00  0.00    +0.084 C 
ATOM      3  C   LIG    1        1.123   1.570   2.554  0.00  0.00    +0.042 C 
ATOM      4  C   LIG    1        0.348   1.400   1.267  0.00  0.00    +0.084 C 
ATOM      5  C   LIG    1       -0.705   0.322   1.379  0.00  0.00    +0.169 C 
ATOM      6  C   LIG    1       -0.213  -0.999   1.852  0.00  0.00    +0.175 C 
ENDROOT
BRANCH   4   7
ATOM      7  N   LIG    1       -0.353   2.650   1.023  0.00  0.00    -0.325 NA
ATOM      8  H   LIG    1        0.347   3.416   1.211  0.00  0.00    +0.119 HD
ATOM      9  H   LIG    1       -0.541   2.696  -0.002  0.00  0.00    +0.119 HD
ENDBRANCH   4   7
BRANCH   2  10
ATOM     10  N   LIG    1        0.074   0.171   4.174  0.00  0.00    -0.325 NA
ATOM     11  H   LIG    1        0.245  -0.612   4.839  0.00  0.00    +0.119 HD
ATOM     12  H   LIG    1       -0.005   1.063   4.689  0.00  0.00    +0.119 HD
ENDBRANCH   2  10
BRANCH   6  13
ATOM     13  O   LIG    1       -1.052  -1.477   2.848  0.00  0.00    -0.387 OA
ATOM     14  H   LIG    1       -1.786  -0.851   3.066  0.00  0.00    +0.210 HD
ENDBRANCH   6  13
BRANCH   1  15
ATOM     15  O   LIG    1        1.975  -0.692   1.215  0.00  0.00    -0.341 OA
BRANCH  15  16
ATOM     16  C   LIG    1        2.876  -1.679   0.897  0.00  0.00    +0.281 C 
ATOM     17  C   LIG    1        4.319  -1.201   1.012  0.00  0.00    +0.189 C 
ATOM     18  C   LIG    1        4.752  -0.423  -0.200  0.00  0.00    +0.116 C 
ATOM     19  C   LIG    1        4.319  -1.053  -1.478  0.00  0.00    +0.165 C 
ATOM     20  C   LIG    1        2.903  -1.530  -1.410  0.00  0.00    +0.177 C 
ATOM     21  O   LIG    1        2.616  -2.295  -0.295  0.00  0.00    -0.341 OA
BRANCH  18  22
ATOM     22  N   LIG    1        6.202  -0.315  -0.146  0.00  0.00    -0.323 NA
ATOM     23  H   LIG    1        6.470  -0.261   0.876  0.00  0.00    +0.119 HD
ATOM     24  H   LIG    1        6.486   0.633  -0.531  0.00  0.00    +0.119 HD
ENDBRANCH  18  22
BRANCH  17  25
ATOM     25  O   LIG    1        4.462  -0.389   2.128  0.00  0.00    -0.385 OA
ATOM     26  H   LIG    1        4.694  -0.882   2.953  0.00  0.00    +0.210 HD
ENDBRANCH  17  25
BRANCH  19  27
ATOM     27  O   LIG    1        4.400  -0.079  -2.485  0.00  0.00    -0.388 OA
ATOM     28  H   LIG    1        4.520   0.828  -2.099  0.00  0.00    +0.210 HD
ENDBRANCH  19  27
BRANCH  20  29
ATOM     29  C   LIG    1        2.481  -2.249  -2.679  0.00  0.00    +0.190 C 
BRANCH  29  30
ATOM     30  O   LIG    1        2.757  -1.506  -3.810  0.00  0.00    -0.392 OA
ATOM     31  H   LIG    1        2.086  -0.774  -3.849  0.00  0.00    +0.210 HD
ENDBRANCH  29  30
ENDBRANCH  20  29
ENDBRANCH  15  16
ENDBRANCH   1  15
BRANCH   5  32
ATOM     32  O   LIG    1       -1.286   0.202   0.116  0.00  0.00    -0.342 OA
BRANCH  32  33
ATOM     33  C   LIG    1       -2.631   0.554   0.158  0.00  0.00    +0.268 C 
ATOM     34  C   LIG    1       -3.427  -0.703  -0.123  0.00  0.00    +0.110 C 
ATOM     35  C   LIG    1       -4.877  -0.366  -0.256  0.00  0.00    +0.057 C 
ATOM     36  C   LIG    1       -5.045   0.623  -1.378  0.00  0.00    +0.146 C 
ATOM     37  C   LIG    1       -3.733   1.276  -1.759  0.00  0.00    +0.163 C 
ATOM     38  O   LIG    1       -2.965   1.596  -0.667  0.00  0.00    -0.343 OA
BRANCH  34  39
ATOM     39  N   LIG    1       -2.877  -1.436  -1.217  0.00  0.00    -0.323 NA
ATOM     40  H   LIG    1       -1.958  -1.064  -1.474  0.00  0.00    +0.119 HD
ATOM     41  H   LIG    1       -3.510  -1.624  -2.000  0.00  0.00    +0.119 HD
ENDBRANCH  34  39
BRANCH  36  42
ATOM     42  O   LIG    1       -5.621  -0.045  -2.445  0.00  0.00    -0.389 OA
ATOM     43  H   LIG    1       -6.461  -0.452  -2.103  0.00  0.00    +0.210 HD
ENDBRANCH  36  42
BRANCH  37  44
ATOM     44  C   LIG    1       -4.106   2.599  -2.441  0.00  0.00    +0.112 C 
BRANCH  44  45
ATOM     45  N   LIG    1       -4.915   2.392  -3.604  0.00  0.00    -0.328 NA
ATOM     46  H   LIG    1       -5.900   2.151  -3.372  0.00  0.00    +0.118 HD
ATOM     47  H   LIG    1       -4.497   1.788  -4.329  0.00  0.00    +0.118 HD
ENDBRANCH  44  45
ENDBRANCH  37  44
ENDBRANCH  32  33
ENDBRANCH   5  32
TORSDOF 16
