REMARK  Name = molecules/NMCUIPGRVMDVDB-UHFFFAOYSA-L.pdb
REMARK                            x       y       z     vdW  Elec       q    Type
REMARK                         _______ _______ _______ _____ _____    ______ ____
ROOT
ATOM      1 FE   LIG    1       -0.574   0.694   0.000  0.00  0.00    +0.000 Fe
ATOM      2 CL   LIG    1       -1.235  -0.543   0.000  0.00  0.00    +0.000 Cl
ATOM      3 CL   LIG    1        1.808  -0.151   0.000  0.00  0.00    +0.000 Cl
ENDROOT
TORSDOF 0
