REMARK  Name = molecules/NMTBSNPBIGRZBL-UHFFFAOYSA-N.pdb
REMARK                            x       y       z     vdW  Elec       q    Type
REMARK                         _______ _______ _______ _____ _____    ______ ____
ROOT
ATOM      1  C   LIG    1        1.429   2.354   0.260  0.00  0.00    +0.086 C 
ATOM      2  C   LIG    1        1.894   0.953  -0.013  0.00  0.00    +0.114 A 
ATOM      3  N   LIG    1        1.077  -0.111  -0.135  0.00  0.00    -0.301 N 
ATOM      4  C   LIG    1        1.884  -1.163  -0.374  0.00  0.00    +0.146 A 
ATOM      5  C   LIG    1        3.204  -0.771  -0.404  0.00  0.00    +0.233 A 
ATOM      6  N   LIG    1        3.176   0.562  -0.175  0.00  0.00    -0.209 NA
ENDROOT
BRANCH   3   7
ATOM      7  C   LIG    1       -0.361  -0.130  -0.032  0.00  0.00    +0.048 A 
ATOM      8  C   LIG    1       -0.960  -0.649   1.097  0.00  0.00    +0.028 A 
ATOM      9  C   LIG    1       -2.325  -0.696   1.256  0.00  0.00    +0.035 A 
ATOM     10  C   LIG    1       -3.139  -0.209   0.262  0.00  0.00    +0.126 A 
ATOM     11  C   LIG    1       -2.549   0.311  -0.868  0.00  0.00    +0.035 A 
ATOM     12  C   LIG    1       -1.171   0.358  -1.030  0.00  0.00    +0.028 A 
BRANCH  10  13
ATOM     13  N   LIG    1       -4.542  -0.262   0.435  0.00  0.00    +0.056 N 
ATOM     14  O   LIG    1       -5.021  -0.741   1.473  0.00  0.00    -0.126 OA
ATOM     15  O   LIG    1       -5.329   0.235  -0.584  0.00  0.00    -0.126 OA
ENDBRANCH  10  13
ENDBRANCH   3   7
BRANCH   5  16
ATOM     16  N   LIG    1        4.369  -1.546  -0.622  0.00  0.00    +0.077 N 
ATOM     17  O   LIG    1        5.626  -1.013  -0.624  0.00  0.00    -0.125 OA
ATOM     18  O   LIG    1        4.236  -2.763  -0.820  0.00  0.00    -0.125 OA
ENDBRANCH   5  16
TORSDOF 3
