REMARK  Name = molecules/NNACHAUCXXVJSP-UHFFFAOYSA-N.pdb
REMARK                            x       y       z     vdW  Elec       q    Type
REMARK                         _______ _______ _______ _____ _____    ______ ____
ROOT
ATOM      1  C   LIG    1        1.861  -0.398   0.752  0.00  0.00    +0.160 C 
ENDROOT
BRANCH   1   2
ATOM      2  C   LIG    1        2.212   1.068   0.754  0.00  0.00    +0.033 C 
BRANCH   2   3
ATOM      3  C   LIG    1        2.977   1.414  -0.509  0.00  0.00    +0.037 C 
BRANCH   3  10
ATOM      4  C   LIG    1        5.405   1.122  -0.033  0.00  0.00    +0.005 A 
ATOM      5  C   LIG    1        6.574   0.387  -0.107  0.00  0.00    +0.020 A 
ATOM      6  C   LIG    1        6.626  -0.845  -0.725  0.00  0.00    +0.041 A 
ATOM      7 CL   LIG    1        8.131  -1.734  -0.790  0.00  0.00    -0.084 Cl
ATOM      8  C   LIG    1        5.470  -1.346  -1.280  0.00  0.00    +0.020 A 
ATOM      9  C   LIG    1        4.294  -0.610  -1.208  0.00  0.00    +0.005 A 
ATOM     10  C   LIG    1        4.240   0.616  -0.593  0.00  0.00    -0.047 A 
ENDBRANCH   3  10
ENDBRANCH   2   3
ENDBRANCH   1   2
BRANCH   1  11
ATOM     11  O   LIG    1        1.168  -0.807   1.862  0.00  0.00    -0.380 OA
BRANCH  11  12
ATOM     12  C   LIG    1       -0.034  -0.186   2.078  0.00  0.00    +0.161 C 
BRANCH  12  13
ATOM     13  C   LIG    1       -0.993  -0.387   0.926  0.00  0.00    +0.043 C 
BRANCH  13  14
ATOM     14  C   LIG    1       -2.317   0.304   1.188  0.00  0.00    +0.086 C 
BRANCH  14  15
ATOM     15  N   LIG    1       -3.158   0.060   0.042  0.00  0.00    -0.302 NA
ATOM     16  C   LIG    1       -3.564  -1.286  -0.116  0.00  0.00    +0.084 C 
ATOM     17  C   LIG    1       -5.074  -1.354  -0.164  0.00  0.00    +0.015 C 
ATOM     18  C   LIG    1       -5.640  -0.522  -1.292  0.00  0.00    +0.002 C 
ATOM     19  C   LIG    1       -4.803   0.728  -1.522  0.00  0.00    +0.015 C 
ATOM     20  C   LIG    1       -4.163   1.042  -0.167  0.00  0.00    +0.084 C 
ENDBRANCH  14  15
ENDBRANCH  13  14
ENDBRANCH  12  13
ENDBRANCH  11  12
ENDBRANCH   1  11
TORSDOF 8
