REMARK  Name = molecules/NNAIYOXJNVGUOM-UHFFFAOYSA-N.pdb
REMARK                            x       y       z     vdW  Elec       q    Type
REMARK                         _______ _______ _______ _____ _____    ______ ____
ROOT
ATOM      1  C   LIG    1       -2.931   0.577  -0.542  0.00  0.00    +0.049 C 
ENDROOT
BRANCH   1   2
ATOM      2  C   LIG    1       -3.291  -0.401   0.499  0.00  0.00    -0.040 A 
ATOM      3  C   LIG    1       -3.274  -0.049   1.827  0.00  0.00    +0.007 A 
ATOM      4  C   LIG    1       -3.607  -0.991   2.797  0.00  0.00    +0.038 A 
ATOM      5  C   LIG    1       -3.957  -2.276   2.462  0.00  0.00    +0.123 A 
ATOM      6  F   LIG    1       -4.266  -3.142   3.457  0.00  0.00    -0.205 F 
ATOM      7  C   LIG    1       -3.967  -2.603   1.129  0.00  0.00    +0.038 A 
ATOM      8  C   LIG    1       -3.640  -1.680   0.155  0.00  0.00    +0.007 A 
ENDBRANCH   1   2
BRANCH   1   9
ATOM      9  C   LIG    1       -4.075   1.301  -1.128  0.00  0.00    -0.040 A 
ATOM     10  C   LIG    1       -4.077   2.695  -1.216  0.00  0.00    +0.007 A 
ATOM     11  C   LIG    1       -5.110   3.409  -1.772  0.00  0.00    +0.038 A 
ATOM     12  C   LIG    1       -6.212   2.775  -2.277  0.00  0.00    +0.123 A 
ATOM     13  C   LIG    1       -6.246   1.384  -2.206  0.00  0.00    +0.038 A 
ATOM     14  F   LIG    1       -7.250   3.448  -2.837  0.00  0.00    -0.205 F 
ATOM     15  C   LIG    1       -5.199   0.687  -1.644  0.00  0.00    +0.007 A 
ENDBRANCH   1   9
BRANCH   1  16
ATOM     16  C   LIG    1       -2.049  -0.066  -1.560  0.00  0.00    +0.014 C 
BRANCH  16  17
ATOM     17  C   LIG    1       -0.873  -0.794  -0.951  0.00  0.00    +0.016 C 
BRANCH  17  18
ATOM     18  C   LIG    1       -0.064   0.162  -0.162  0.00  0.00    +0.084 C 
BRANCH  18  19
ATOM     19  N   LIG    1        1.126  -0.403   0.459  0.00  0.00    -0.299 NA
ATOM     20  C   LIG    1        1.631   0.671   1.315  0.00  0.00    +0.103 C 
ATOM     21  C   LIG    1        2.881   1.315   0.773  0.00  0.00    +0.124 C 
ATOM     22  N   LIG    1        3.877   0.269   0.698  0.00  0.00    -0.283 N 
ATOM     23  C   LIG    1        5.227   0.511   1.154  0.00  0.00    +0.302 C 
ATOM     24  O   LIG    1        5.418   1.631   1.714  0.00  0.00    -0.253 OA
ATOM     25  N   LIG    1        6.143  -0.524   0.915  0.00  0.00    -0.300 N 
ATOM     26  H   LIG    1        7.097   0.253   1.530  0.00  0.00    +0.150 HD
ATOM     27  C   LIG    1        3.462  -0.977   0.116  0.00  0.00    +0.124 C 
ATOM     28  C   LIG    1        2.111  -0.748  -0.519  0.00  0.00    +0.103 C 
BRANCH  25  29
ATOM     29  C   LIG    1        7.022  -1.517   0.685  0.00  0.00    +0.102 C 
ATOM     30  C   LIG    1        8.242  -1.156  -0.171  0.00  0.00    +0.024 C 
ENDBRANCH  25  29
ENDBRANCH  18  19
ENDBRANCH  17  18
ENDBRANCH  16  17
ENDBRANCH   1  16
TORSDOF 7
