REMARK  Name = molecules/NNJPGOLRFBJNIW-HNNXBMFYSA-N.pdb
REMARK                            x       y       z     vdW  Elec       q    Type
REMARK                         _______ _______ _______ _____ _____    ______ ____
ROOT
ATOM      1  C   LIG    1        1.374  -1.025   0.040  0.00  0.00    +0.169 A 
ATOM      2  C   LIG    1        0.674   0.114   0.279  0.00  0.00    +0.013 A 
ATOM      3  C   LIG    1        1.268   1.343   0.621  0.00  0.00    -0.036 A 
ATOM      4  C   LIG    1        0.643   2.659   0.848  0.00  0.00    +0.037 C 
ATOM      5  C   LIG    1       -0.821   2.689   0.989  0.00  0.00    +0.028 C 
ATOM      6  C   LIG    1       -1.614   2.256  -0.239  0.00  0.00    +0.081 C 
ATOM      7  C   LIG    1       -1.727   0.751  -0.207  0.00  0.00    -0.037 C 
ATOM      8  C   LIG    1       -2.973   0.448  -0.650  0.00  0.00    +0.056 C 
ATOM      9  C   LIG    1       -3.598  -0.805  -0.625  0.00  0.00    +0.220 C 
ATOM     10  C   LIG    1       -3.125  -2.006  -0.117  0.00  0.00    +0.163 C 
ATOM     11  C   LIG    1       -1.904  -2.252   0.511  0.00  0.00    +0.028 C 
ATOM     12  C   LIG    1       -0.836  -1.419   0.736  0.00  0.00    +0.039 C 
ATOM     13  O   LIG    1       -4.747  -0.855  -1.130  0.00  0.00    -0.284 OA
ATOM     14  C   LIG    1        2.639   1.353   0.718  0.00  0.00    +0.053 A 
ATOM     15  C   LIG    1        3.385   0.227   0.492  0.00  0.00    +0.165 A 
ATOM     16  C   LIG    1       -0.756  -0.146   0.223  0.00  0.00    +0.043 C 
ATOM     17  C   LIG    1        2.752  -0.965   0.152  0.00  0.00    +0.204 A 
ENDROOT
BRANCH   6  18
ATOM     18  N   LIG    1       -2.967   2.753  -0.079  0.00  0.00    -0.313 NA
ATOM     19  H   LIG    1       -3.377   2.362   0.787  0.00  0.00    +0.122 HD
ATOM     20  C   LIG    1       -3.016   4.198  -0.028  0.00  0.00    +0.101 C 
ENDBRANCH   6  18
BRANCH   1  21
ATOM     21  O   LIG    1        0.720  -2.188  -0.319  0.00  0.00    -0.491 OA
ATOM     22  C   LIG    1        0.518  -2.539  -1.686  0.00  0.00    +0.277 C 
ENDBRANCH   1  21
BRANCH  10  23
ATOM     23  O   LIG    1       -3.949  -3.097  -0.239  0.00  0.00    -0.492 OA
ATOM     24  C   LIG    1       -3.614  -4.370   0.222  0.00  0.00    +0.277 C 
ENDBRANCH  10  23
BRANCH  15  25
ATOM     25  O   LIG    1        4.767   0.295   0.607  0.00  0.00    -0.491 OA
ATOM     26  C   LIG    1        5.401   1.508   0.953  0.00  0.00    +0.277 C 
ENDBRANCH  15  25
BRANCH  17  27
ATOM     27  O   LIG    1        3.538  -2.079  -0.069  0.00  0.00    -0.488 OA
ATOM     28  C   LIG    1        4.067  -2.424  -1.335  0.00  0.00    +0.277 C 
ENDBRANCH  17  27
TORSDOF 5
