REMARK  Name = molecules/NNJVILVZKWQKPM-UHFFFAOYSA-N.pdb
REMARK                            x       y       z     vdW  Elec       q    Type
REMARK                         _______ _______ _______ _____ _____    ______ ____
ROOT
ATOM      1  N   LIG    1       -0.665  -0.103   0.107  0.00  0.00    -0.284 N 
ATOM      2  H   LIG    1       -0.262  -0.525   0.985  0.00  0.00    +0.155 HD
ATOM      3  C   LIG    1        0.079   0.609  -0.853  0.00  0.00    +0.231 C 
ATOM      4  O   LIG    1       -0.545   1.080  -1.840  0.00  0.00    -0.274 OA
ENDROOT
BRANCH   1   5
ATOM      5  C   LIG    1       -2.087  -0.315  -0.003  0.00  0.00    +0.039 A 
ATOM      6  C   LIG    1       -2.933   0.603   0.547  0.00  0.00    -0.029 A 
ATOM      7  C   LIG    1       -2.403   1.822   1.250  0.00  0.00    +0.045 C 
ATOM      8  C   LIG    1       -4.319   0.432   0.468  0.00  0.00    +0.005 A 
ATOM      9  C   LIG    1       -4.846  -0.681  -0.176  0.00  0.00    +0.001 A 
ATOM     10  C   LIG    1       -3.972  -1.573  -0.712  0.00  0.00    +0.005 A 
ATOM     11  C   LIG    1       -2.596  -1.424  -0.645  0.00  0.00    -0.029 A 
ATOM     12  C   LIG    1       -1.632  -2.379  -1.220  0.00  0.00    +0.045 C 
ENDBRANCH   1   5
BRANCH   3  13
ATOM     13  C   LIG    1        1.510   0.841  -0.781  0.00  0.00    +0.180 C 
BRANCH  13  14
ATOM     14  N   LIG    1        2.245   0.283   0.277  0.00  0.00    -0.295 NA
BRANCH  14  15
ATOM     15  C   LIG    1        3.387   1.076   0.607  0.00  0.00    +0.081 C 
ATOM     16  C   LIG    1        3.062   2.412   1.226  0.00  0.00    +0.020 C 
ENDBRANCH  14  15
BRANCH  14  17
ATOM     17  C   LIG    1        2.495  -1.099   0.316  0.00  0.00    +0.081 C 
ATOM     18  C   LIG    1        3.448  -1.601  -0.741  0.00  0.00    +0.020 C 
ENDBRANCH  14  17
ENDBRANCH  13  14
ENDBRANCH   3  13
TORSDOF 5
