REMARK  Name = molecules/NNULBSISHYWZJU-LLKWHZGFSA-N.pdb
REMARK                            x       y       z     vdW  Elec       q    Type
REMARK                         _______ _______ _______ _____ _____    ______ ____
ROOT
ATOM      1  N   LIG    1        0.531   0.712  -0.222  0.00  0.00    -0.296 N 
ATOM      2  H   LIG    1       -0.064  -0.110  -0.111  0.00  0.00    +0.150 HD
ATOM      3  C   LIG    1       -0.005   2.015  -0.242  0.00  0.00    +0.268 C 
ATOM      4  O   LIG    1        0.854   2.974  -0.387  0.00  0.00    -0.268 OA
ENDROOT
BRANCH   1  13
ATOM      5  O   LIG    1        2.378  -0.752  -2.514  0.00  0.00    -0.273 OA
ATOM      6  C   LIG    1        2.213  -0.668  -1.275  0.00  0.00    +0.244 C 
ATOM      7  N   LIG    1        2.188  -1.617  -0.231  0.00  0.00    -0.249 N 
ATOM      8  CE  LIG    1        2.520  -0.508   0.659  0.00  0.00    +0.169 C 
ATOM      9  SD  LIG    1        1.480  -0.526   2.131  0.00  0.00    -0.131 S 
ATOM     10  CG  LIG    1        0.756  -2.156   2.236  0.00  0.00    +0.100 C 
ATOM     11  CB  LIG    1        1.340  -3.171   1.356  0.00  0.00    +0.014 C 
ATOM     12  CA  LIG    1        2.004  -2.933   0.212  0.00  0.00    +0.119 C 
ATOM     13  CA  LIG    1        1.968   0.480  -0.358  0.00  0.00    +0.191 C 
BRANCH  12  14
ATOM     14  C   LIG    1        2.520  -4.079  -0.557  0.00  0.00    +0.351 C 
ATOM     15  OXT LIG    1        2.344  -5.257  -0.147  0.00  0.00    -0.244 OA
BRANCH  14  16
ATOM     16  O   LIG    1        3.195  -3.837  -1.727  0.00  0.00    -0.476 OA
ATOM     17  H   LIG    1        2.676  -3.822  -2.597  0.00  0.00    +0.295 HD
ENDBRANCH  14  16
ENDBRANCH  12  14
ENDBRANCH   1  13
BRANCH   3  18
ATOM     18  C   LIG    1       -1.393   2.347  -0.116  0.00  0.00    +0.190 C 
ATOM     19  N   LIG    1       -1.724   3.612  -0.155  0.00  0.00    -0.078 NA
BRANCH  18  20
ATOM     20  C   LIG    1       -2.427   1.330   0.050  0.00  0.00    +0.107 A 
ATOM     21  C   LIG    1       -3.770   1.707   0.169  0.00  0.00    +0.078 A 
ATOM     22  S   LIG    1       -4.540   0.198   0.335  0.00  0.00    -0.060 S 
ATOM     23  C   LIG    1       -3.174  -0.811   0.250  0.00  0.00    +0.156 A 
ATOM     24  N   LIG    1       -2.204   0.058   0.099  0.00  0.00    -0.223 NA
BRANCH  23  25
ATOM     25  N   LIG    1       -3.037  -2.244   0.317  0.00  0.00    -0.338 N 
ATOM     26  H   LIG    1       -2.210  -2.681   0.723  0.00  0.00    +0.144 HD
ATOM     27  H   LIG    1       -3.828  -2.794  -0.071  0.00  0.00    +0.144 HD
ENDBRANCH  23  25
ENDBRANCH  18  20
BRANCH  19  28
ATOM     28  O   LIG    1       -0.739   4.542  -0.311  0.00  0.00    -0.396 OA
ATOM     29  C   LIG    1       -0.876   5.588  -1.278  0.00  0.00    +0.313 C 
ENDBRANCH  19  28
ENDBRANCH   3  18
TORSDOF 7
