REMARK  Name = molecules/NNYBQONXHNTVIJ-QGZVFWFLSA-N.pdb
REMARK                            x       y       z     vdW  Elec       q    Type
REMARK                         _______ _______ _______ _____ _____    ______ ____
ROOT
ATOM      1  C   LIG    1       -2.127   0.160  -0.148  0.00  0.00    +0.119 C 
ATOM      2  C   LIG    1       -0.664  -0.163  -0.321  0.00  0.00    +0.053 A 
ATOM      3  N   LIG    1        0.409   0.169   0.426  0.00  0.00    -0.355 N 
ATOM      4  H   LIG    1        0.435   0.721   1.297  0.00  0.00    +0.166 HD
ATOM      5  C   LIG    1        1.531  -0.339  -0.110  0.00  0.00    +0.050 A 
ATOM      6  C   LIG    1        2.865  -0.298   0.247  0.00  0.00    -0.024 A 
ATOM      7  C   LIG    1        3.845  -0.934  -0.513  0.00  0.00    +0.005 A 
ATOM      8  C   LIG    1        3.503  -1.631  -1.659  0.00  0.00    +0.001 A 
ATOM      9  C   LIG    1        2.173  -1.667  -2.010  0.00  0.00    +0.010 A 
ATOM     10  C   LIG    1        1.213  -1.034  -1.250  0.00  0.00    +0.004 A 
ATOM     11  C   LIG    1       -0.180  -0.910  -1.364  0.00  0.00    -0.014 A 
ATOM     12  C   LIG    1       -1.070  -1.451  -2.388  0.00  0.00    +0.065 C 
ATOM     13  C   LIG    1       -2.491  -1.349  -1.913  0.00  0.00    +0.166 C 
ATOM     14  O   LIG    1       -2.747  -0.133  -1.399  0.00  0.00    -0.366 OA
ENDROOT
BRANCH   1  15
ATOM     15  C   LIG    1       -2.773  -0.785   0.820  0.00  0.00    +0.038 C 
ATOM     16  C   LIG    1       -2.424  -0.628   2.253  0.00  0.00    +0.007 C 
ENDBRANCH   1  15
BRANCH   6  17
ATOM     17  C   LIG    1        3.232   0.470   1.468  0.00  0.00    +0.034 C 
ATOM     18  C   LIG    1        3.228   1.942   1.054  0.00  0.00    +0.009 C 
ENDBRANCH   6  17
BRANCH   1  19
ATOM     19  C   LIG    1       -2.408   1.601   0.049  0.00  0.00    +0.161 C 
BRANCH  19  20
ATOM     20  C   LIG    1       -2.058   2.282   1.255  0.00  0.00    +0.308 C 
ATOM     21  O   LIG    1       -2.725   2.275   2.306  0.00  0.00    -0.251 OA
BRANCH  20  22
ATOM     22  O   LIG    1       -0.870   3.045   1.325  0.00  0.00    -0.481 OA
ATOM     23  H   LIG    1       -0.982   3.997   0.938  0.00  0.00    +0.295 HD
ENDBRANCH  20  22
ENDBRANCH  19  20
ENDBRANCH   1  19
TORSDOF 5
