REMARK  Name = molecules/NOIIUHRQUVNIDD-UHFFFAOYSA-N.pdb
REMARK                            x       y       z     vdW  Elec       q    Type
REMARK                         _______ _______ _______ _____ _____    ______ ____
ROOT
ATOM      1  C   LIG    1       -0.371  -0.346  -1.734  0.00  0.00    +0.111 C 
ENDROOT
BRANCH   1   2
ATOM      2  N   LIG    1       -1.754  -0.098  -1.827  0.00  0.00    -0.240 NA
ATOM      3  H   LIG    1       -2.193   0.393  -2.539  0.00  0.00    +0.144 HD
BRANCH   2   5
ATOM      4  C   LIG    1       -3.942  -0.377  -0.930  0.00  0.00    +0.258 C 
ATOM      5  N   LIG    1       -2.546  -0.565  -0.810  0.00  0.00    -0.247 N 
ATOM      6  H   LIG    1       -2.138  -1.048   0.049  0.00  0.00    +0.169 HD
ATOM      7  O   LIG    1       -4.375   0.159  -2.000  0.00  0.00    -0.269 OA
BRANCH   4   8
ATOM      8  C   LIG    1       -4.874  -0.746   0.093  0.00  0.00    +0.041 A 
ATOM      9  C   LIG    1       -4.435  -0.981   1.374  0.00  0.00    +0.033 A 
ATOM     10  C   LIG    1       -5.313  -1.247   2.401  0.00  0.00    +0.111 A 
ATOM     11  N   LIG    1       -6.633  -1.280   2.158  0.00  0.00    -0.263 NA
ATOM     12  C   LIG    1       -7.097  -1.056   0.892  0.00  0.00    +0.111 A 
ATOM     13  C   LIG    1       -6.242  -0.793  -0.126  0.00  0.00    +0.033 A 
ENDBRANCH   4   8
ENDBRANCH   2   5
ENDBRANCH   1   2
BRANCH   1  14
ATOM     14  C   LIG    1        0.308   0.995  -1.423  0.00  0.00    +0.112 C 
BRANCH  14  15
ATOM     15  C   LIG    1        1.751   0.995  -1.343  0.00  0.00    +0.215 C 
ATOM     16  N   LIG    1        2.335   2.087  -0.635  0.00  0.00    -0.311 N 
ATOM     17  H   LIG    1        1.752   2.839  -0.199  0.00  0.00    +0.149 HD
ATOM     18  O   LIG    1        2.479   0.126  -1.832  0.00  0.00    -0.276 OA
BRANCH  16  19
ATOM     19  C   LIG    1        3.746   2.188  -0.540  0.00  0.00    +0.139 C 
BRANCH  19  20
ATOM     20  C   LIG    1        4.316   1.009   0.153  0.00  0.00    -0.030 A 
ATOM     21  C   LIG    1        3.983   0.612   1.419  0.00  0.00    +0.005 A 
ATOM     22  C   LIG    1        4.537  -0.512   1.969  0.00  0.00    +0.000 A 
ATOM     23  C   LIG    1        5.453  -1.319   1.311  0.00  0.00    +0.000 A 
ATOM     24  C   LIG    1        5.786  -0.897   0.013  0.00  0.00    +0.000 A 
ATOM     25  C   LIG    1        5.243   0.225  -0.558  0.00  0.00    +0.005 A 
ENDBRANCH  19  20
ENDBRANCH  16  19
ENDBRANCH  14  15
ENDBRANCH   1  14
TORSDOF 7
