REMARK  Name = molecules/NONJJLVGHLVQQM-ADGXKJENSA-N.pdb
REMARK                            x       y       z     vdW  Elec       q    Type
REMARK                         _______ _______ _______ _____ _____    ______ ____
ROOT
ATOM      1  CA  LIG    1       -3.497   0.610  -0.284  0.00  0.00    +0.201 C 
ATOM      2  N   LIG    1       -2.813   0.363   0.949  0.00  0.00    -0.271 N 
ATOM      3  C   LIG    1       -2.399  -0.242   2.159  0.00  0.00    +0.240 C 
ATOM      4  O   LIG    1       -2.840  -1.106   2.979  0.00  0.00    -0.273 OA
ATOM      5  CA  LIG    1       -1.121   0.533   2.202  0.00  0.00    +0.190 C 
ATOM      6  C   LIG    1       -1.864   1.419   1.234  0.00  0.00    +0.165 C 
ATOM      7  S   LIG    1       -1.089   1.544  -0.428  0.00  0.00    -0.127 S 
ATOM      8  C   LIG    1       -2.447   0.795  -1.381  0.00  0.00    +0.042 C 
ATOM      9  C   LIG    1       -2.067  -0.508  -1.998  0.00  0.00    +0.025 C 
ATOM     10  C   LIG    1       -2.899   1.816  -2.403  0.00  0.00    +0.025 C 
ENDROOT
BRANCH   5  11
ATOM     11  N   LIG    1        0.019  -0.148   1.679  0.00  0.00    -0.299 N 
ATOM     12  C   LIG    1        1.229  -0.206   2.381  0.00  0.00    +0.254 C 
ATOM     13  O   LIG    1        1.328   0.349   3.499  0.00  0.00    -0.272 OA
ATOM     14  H   LIG    1       -0.077  -0.609   0.742  0.00  0.00    +0.150 HD
BRANCH  12  15
ATOM     15  C   LIG    1        2.446  -0.905   1.874  0.00  0.00    +0.255 C 
ATOM     16  C   LIG    1        2.895  -1.976   2.858  0.00  0.00    +0.062 C 
BRANCH  15  17
ATOM     17  O   LIG    1        2.262  -1.490   0.643  0.00  0.00    -0.480 OA
BRANCH  17  18
ATOM     18  C   LIG    1        2.977  -1.190  -0.478  0.00  0.00    +0.122 A 
ATOM     19  C   LIG    1        3.977  -0.267  -0.542  0.00  0.00    +0.045 A 
ATOM     20  C   LIG    1        4.670  -0.005  -1.717  0.00  0.00    +0.004 A 
ATOM     21  C   LIG    1        4.367  -0.679  -2.877  0.00  0.00    +0.000 A 
ATOM     22  C   LIG    1        3.367  -1.605  -2.826  0.00  0.00    +0.004 A 
ATOM     23  C   LIG    1        2.689  -1.863  -1.679  0.00  0.00    +0.045 A 
ENDBRANCH  17  18
ENDBRANCH  15  17
ENDBRANCH  12  15
ENDBRANCH   5  11
BRANCH   1  24
ATOM     24  C   LIG    1       -4.379   1.773  -0.137  0.00  0.00    +0.327 C 
ATOM     25  O   LIG    1       -5.055   2.175  -1.147  0.00  0.00    -0.249 OA
BRANCH  24  26
ATOM     26  OXT LIG    1       -4.481   2.421   1.060  0.00  0.00    -0.479 OA
ATOM     27  HXT LIG    1       -4.946   3.295   1.237  0.00  0.00    +0.295 HD
ENDBRANCH  24  26
ENDBRANCH   1  24
TORSDOF 6
