REMARK  Name = molecules/NOPFSRXAKWQILS-UHFFFAOYSA-N.pdb
REMARK                            x       y       z     vdW  Elec       q    Type
REMARK                         _______ _______ _______ _____ _____    ______ ____
ROOT
ATOM      1  C   LIG    1       -0.292   2.194  -0.563  0.00  0.00    -0.000 C 
ENDROOT
BRANCH   1   2
ATOM      2  C   LIG    1       -1.124   1.993  -1.798  0.00  0.00    -0.000 C 
BRANCH   2   3
ATOM      3  C   LIG    1       -2.297   1.068  -1.529  0.00  0.00    -0.000 C 
BRANCH   3   4
ATOM      4  C   LIG    1       -3.198   1.598  -0.467  0.00  0.00    -0.000 C 
BRANCH   4   5
ATOM      5  C   LIG    1       -4.388   0.655  -0.278  0.00  0.00    -0.000 C 
BRANCH   5   6
ATOM      6  C   LIG    1       -3.938  -0.680   0.140  0.00  0.00    +0.000 C 
BRANCH   6   7
ATOM      7  C   LIG    1       -4.931  -1.739   0.415  0.00  0.00    +0.000 C 
BRANCH   7   8
ATOM      8  C   LIG    1       -5.823  -1.594   1.554  0.00  0.00    +0.000 C 
BRANCH   8   9
ATOM      9  C   LIG    1       -6.746  -0.449   1.652  0.00  0.00    +0.002 C 
BRANCH   9  10
ATOM     10  C   LIG    1       -7.674  -0.290   0.483  0.00  0.00    +0.028 C 
BRANCH  10  11
ATOM     11  C   LIG    1       -8.555  -1.509   0.305  0.00  0.00    +0.156 C 
BRANCH  11  12
ATOM     12  O   LIG    1       -9.391  -1.317  -0.783  0.00  0.00    -0.395 OA
ATOM     13  H   LIG    1      -10.115  -0.698  -0.596  0.00  0.00    +0.209 HD
ENDBRANCH  11  12
ENDBRANCH  10  11
ENDBRANCH   9  10
ENDBRANCH   8   9
ENDBRANCH   7   8
ENDBRANCH   6   7
ENDBRANCH   5   6
ENDBRANCH   4   5
ENDBRANCH   3   4
ENDBRANCH   2   3
ENDBRANCH   1   2
BRANCH   1  14
ATOM     14  C   LIG    1        0.246   0.890  -0.072  0.00  0.00    -0.000 C 
BRANCH  14  15
ATOM     15  C   LIG    1        1.102   1.022   1.161  0.00  0.00    -0.000 C 
BRANCH  15  16
ATOM     16  C   LIG    1        2.298   1.890   0.960  0.00  0.00    -0.000 C 
BRANCH  16  17
ATOM     17  C   LIG    1        3.227   1.404  -0.111  0.00  0.00    -0.000 C 
BRANCH  17  18
ATOM     18  C   LIG    1        3.779   0.028   0.168  0.00  0.00    -0.000 C 
BRANCH  18  19
ATOM     19  C   LIG    1        4.696  -0.401  -0.930  0.00  0.00    -0.000 C 
BRANCH  19  20
ATOM     20  C   LIG    1        5.875   0.501  -1.125  0.00  0.00    -0.000 C 
BRANCH  20  21
ATOM     21  C   LIG    1        6.748   0.610   0.087  0.00  0.00    -0.000 C 
BRANCH  21  22
ATOM     22  C   LIG    1        7.331  -0.690   0.539  0.00  0.00    -0.000 C 
BRANCH  22  23
ATOM     23  C   LIG    1        8.194  -1.327  -0.529  0.00  0.00    -0.003 C 
ATOM     24  C   LIG    1        8.738  -2.641   0.032  0.00  0.00    +0.004 C 
ENDBRANCH  22  23
ENDBRANCH  21  22
ENDBRANCH  20  21
ENDBRANCH  19  20
ENDBRANCH  18  19
ENDBRANCH  17  18
ENDBRANCH  16  17
ENDBRANCH  15  16
ENDBRANCH  14  15
ENDBRANCH   1  14
TORSDOF 21
