REMARK  Name = molecules/NOYPYLRCIDNJJB-UHFFFAOYSA-N.pdb
REMARK                            x       y       z     vdW  Elec       q    Type
REMARK                         _______ _______ _______ _____ _____    ______ ____
ROOT
ATOM      1  C   LIG    1        1.805  -0.740  -1.081  0.00  0.00    +0.045 C 
ATOM      2  C   LIG    1        2.620   0.007  -0.141  0.00  0.00    -0.033 A 
ATOM      3  C   LIG    1        1.952   0.811   0.740  0.00  0.00    -0.027 A 
ATOM      4  C   LIG    1        2.683   1.535   1.670  0.00  0.00    +0.007 A 
ATOM      5  C   LIG    1        4.063   1.460   1.722  0.00  0.00    +0.029 A 
ATOM      6  C   LIG    1        4.742   0.652   0.839  0.00  0.00    +0.078 A 
ATOM      7  N   LIG    1        6.071   0.547   0.843  0.00  0.00    -0.215 NA
ATOM      8  C   LIG    1        6.758  -0.216   0.006  0.00  0.00    +0.215 A 
ATOM      9  N   LIG    1        6.034  -0.917  -0.885  0.00  0.00    -0.199 NA
ATOM     10  C   LIG    1        4.694  -0.872  -0.961  0.00  0.00    +0.129 A 
ATOM     11  C   LIG    1        3.995  -0.075  -0.093  0.00  0.00    +0.043 A 
ENDROOT
BRANCH   8  12
ATOM     12  N   LIG    1        8.187  -0.301   0.064  0.00  0.00    -0.327 N 
ATOM     13  H   LIG    1        8.724  -0.328   0.949  0.00  0.00    +0.145 HD
ATOM     14  H   LIG    1        8.764  -0.340  -0.827  0.00  0.00    +0.145 HD
ENDBRANCH   8  12
BRANCH  10  15
ATOM     15  N   LIG    1        4.067  -1.689  -1.897  0.00  0.00    -0.343 N 
ATOM     16  H   LIG    1        3.530  -2.528  -1.602  0.00  0.00    +0.144 HD
ATOM     17  H   LIG    1        4.136  -1.461  -2.900  0.00  0.00    +0.144 HD
ENDBRANCH  10  15
BRANCH   3  18
ATOM     18  C   LIG    1        0.528   1.007   0.643  0.00  0.00    +0.137 C 
BRANCH  18  19
ATOM     19  N   LIG    1       -0.385  -0.075   0.737  0.00  0.00    -0.340 N 
ATOM     20  H   LIG    1       -0.067  -1.009   1.011  0.00  0.00    +0.146 HD
BRANCH  19  21
ATOM     21  C   LIG    1       -1.759   0.072   0.439  0.00  0.00    +0.035 A 
ATOM     22  C   LIG    1       -2.672  -0.736   1.117  0.00  0.00    +0.072 A 
ATOM     23  C   LIG    1       -4.022  -0.688   0.899  0.00  0.00    +0.167 A 
ATOM     24  C   LIG    1       -4.504   0.211  -0.041  0.00  0.00    +0.204 A 
ATOM     25  C   LIG    1       -3.621   1.030  -0.730  0.00  0.00    +0.167 A 
ATOM     26  C   LIG    1       -2.256   0.964  -0.496  0.00  0.00    +0.072 A 
BRANCH  23  27
ATOM     27  O   LIG    1       -4.939  -1.481   1.565  0.00  0.00    -0.491 OA
ATOM     28  C   LIG    1       -4.522  -2.425   2.506  0.00  0.00    +0.277 C 
ENDBRANCH  23  27
BRANCH  24  29
ATOM     29  O   LIG    1       -5.879   0.321  -0.336  0.00  0.00    -0.488 OA
ATOM     30  C   LIG    1       -6.422  -0.594  -1.302  0.00  0.00    +0.277 C 
ENDBRANCH  24  29
BRANCH  25  31
ATOM     31  O   LIG    1       -4.187   1.895  -1.651  0.00  0.00    -0.491 OA
ATOM     32  C   LIG    1       -3.477   2.760  -2.450  0.00  0.00    +0.277 C 
ENDBRANCH  25  31
ENDBRANCH  19  21
ENDBRANCH  18  19
ENDBRANCH   3  18
TORSDOF 8
