REMARK  Name = molecules/NPGNOVNWUSPMDP-UTEPHESZSA-N.pdb
REMARK                            x       y       z     vdW  Elec       q    Type
REMARK                         _______ _______ _______ _____ _____    ______ ____
ROOT
ATOM      1  C   LIG    1        0.717   0.612   0.583  0.00  0.00    +0.201 C 
ATOM      2  N   LIG    1        0.013  -0.557   1.023  0.00  0.00    -0.270 N 
ATOM      3  C   LIG    1       -0.583  -1.542   1.849  0.00  0.00    +0.244 C 
ATOM      4  O   LIG    1       -0.503  -1.951   3.047  0.00  0.00    -0.273 OA
ATOM      5  C   LIG    1       -1.462  -2.034   0.743  0.00  0.00    +0.223 C 
ATOM      6  C   LIG    1       -0.441  -1.323  -0.110  0.00  0.00    +0.169 C 
ATOM      7  S   LIG    1       -1.145   0.037  -1.113  0.00  0.00    -0.127 S 
ATOM      8  C   LIG    1       -0.178   1.388  -0.370  0.00  0.00    +0.042 C 
ATOM      9  C   LIG    1       -1.049   2.297   0.460  0.00  0.00    +0.025 C 
ATOM     10  C   LIG    1        0.589   2.151  -1.410  0.00  0.00    +0.025 C 
ENDROOT
BRANCH   1  11
ATOM     11  C   LIG    1        1.960   0.176  -0.114  0.00  0.00    +0.332 C 
ATOM     12  O   LIG    1        2.724   1.068  -0.623  0.00  0.00    -0.249 OA
BRANCH  11  13
ATOM     13  O   LIG    1        2.378  -1.115  -0.267  0.00  0.00    -0.426 OA
BRANCH  13  14
ATOM     14  C   LIG    1        3.577  -1.442  -0.944  0.00  0.00    +0.472 C 
BRANCH  14  15
ATOM     15  O   LIG    1        4.641  -0.814  -0.253  0.00  0.00    -0.427 OA
BRANCH  15  16
ATOM     16  C   LIG    1        5.959  -0.897  -0.609  0.00  0.00    +0.315 C 
ATOM     17  O   LIG    1        6.279  -1.572  -1.617  0.00  0.00    -0.250 OA
BRANCH  16  18
ATOM     18  C   LIG    1        7.030  -0.219   0.151  0.00  0.00    +0.059 C 
ATOM     19  C   LIG    1        7.038  -0.712   1.600  0.00  0.00    +0.022 C 
ATOM     20  C   LIG    1        6.855   1.282   0.200  0.00  0.00    +0.022 C 
ATOM     21  C   LIG    1        8.384  -0.514  -0.423  0.00  0.00    +0.022 C 
ENDBRANCH  16  18
ENDBRANCH  15  16
ENDBRANCH  14  15
ENDBRANCH  13  14
ENDBRANCH  11  13
ENDBRANCH   1  11
BRANCH   5  22
ATOM     22  N   LIG    1       -2.785  -1.489   0.741  0.00  0.00    -0.261 NA
ATOM     23  C   LIG    1       -3.505  -1.463  -0.327  0.00  0.00    +0.179 C 
BRANCH  23  24
ATOM     24  N   LIG    1       -4.819  -0.940  -0.403  0.00  0.00    -0.321 N 
ATOM     25  C   LIG    1       -5.712  -1.347   0.665  0.00  0.00    +0.106 C 
ATOM     26  C   LIG    1       -5.934  -0.163   1.560  0.00  0.00    +0.019 C 
ATOM     27  C   LIG    1       -7.114   0.673   1.129  0.00  0.00    +0.002 C 
ATOM     28  C   LIG    1       -7.216   0.756  -0.383  0.00  0.00    +0.002 C 
ATOM     29  C   LIG    1       -5.871   1.139  -0.918  0.00  0.00    +0.019 C 
ATOM     30  C   LIG    1       -5.163  -0.067  -1.502  0.00  0.00    +0.106 C 
ENDBRANCH  23  24
ENDBRANCH   5  22
TORSDOF 8
