REMARK  Name = molecules/NPOAOTPXWNWTSH-UHFFFAOYSA-N.pdb
REMARK                            x       y       z     vdW  Elec       q    Type
REMARK                         _______ _______ _______ _____ _____    ______ ____
ROOT
ATOM      1  C   LIG    1       -0.779   1.864  -0.046  0.00  0.00    +0.042 C 
ATOM      2  C   LIG    1        0.121   0.699   0.309  0.00  0.00    +0.083 C 
ENDROOT
BRANCH   2   3
ATOM      3  O   LIG    1        0.913   1.149   1.367  0.00  0.00    -0.388 OA
ATOM      4  H   LIG    1        1.730   1.552   1.021  0.00  0.00    +0.210 HD
ENDBRANCH   2   3
BRANCH   2   5
ATOM      5  C   LIG    1       -0.739  -0.400   0.855  0.00  0.00    +0.155 C 
BRANCH   5   6
ATOM      6  C   LIG    1       -1.770  -0.903  -0.062  0.00  0.00    +0.307 C 
ATOM      7  O   LIG    1       -1.893  -0.417  -1.195  0.00  0.00    -0.251 OA
BRANCH   6   8
ATOM      8  O   LIG    1       -2.607  -1.918   0.329  0.00  0.00    -0.481 OA
ATOM      9  H   LIG    1       -2.580  -2.860  -0.046  0.00  0.00    +0.295 HD
ENDBRANCH   6   8
ENDBRANCH   5   6
ENDBRANCH   2   5
BRANCH   2  10
ATOM     10  C   LIG    1        0.916   0.314  -0.887  0.00  0.00    +0.155 C 
BRANCH  10  11
ATOM     11  C   LIG    1        1.840  -0.811  -0.684  0.00  0.00    +0.307 C 
ATOM     12  O   LIG    1        2.522  -1.152  -1.710  0.00  0.00    -0.251 OA
BRANCH  11  13
ATOM     13  O   LIG    1        2.043  -1.517   0.466  0.00  0.00    -0.481 OA
ATOM     14  H   LIG    1        2.939  -1.941   0.656  0.00  0.00    +0.295 HD
ENDBRANCH  11  13
ENDBRANCH  10  11
ENDBRANCH   2  10
TORSDOF 7
