REMARK  Name = molecules/NPPQSCRMBWNHMW-UHFFFAOYSA-N.pdb
REMARK                            x       y       z     vdW  Elec       q    Type
REMARK                         _______ _______ _______ _____ _____    ______ ____
ROOT
ATOM      1  C   LIG    1       -0.102  -0.083  -0.009  0.00  0.00    +0.036 C 
ATOM      2  C   LIG    1        0.382  -0.482   1.390  0.00  0.00    +0.018 C 
ENDROOT
BRANCH   1   3
ATOM      3  C   LIG    1       -1.234   0.862   0.252  0.00  0.00    +0.243 C 
BRANCH   3   4
ATOM      4  O   LIG    1       -1.010   2.054   0.889  0.00  0.00    -0.450 OA
BRANCH   4   5
ATOM      5  C   LIG    1       -0.481   3.235   0.556  0.00  0.00    +0.398 C 
ATOM      6  N   LIG    1       -0.325   4.346   1.469  0.00  0.00    -0.295 N 
ATOM      7  H   LIG    1        0.601   4.600   1.833  0.00  0.00    +0.148 HD
ATOM      8  H   LIG    1       -1.189   4.862   1.731  0.00  0.00    +0.148 HD
ATOM      9  O   LIG    1       -0.080   3.442  -0.607  0.00  0.00    -0.227 OA
ENDBRANCH   4   5
ENDBRANCH   3   4
ENDBRANCH   1   3
BRANCH   1  10
ATOM     10  C   LIG    1       -0.526  -1.285  -0.779  0.00  0.00    +0.013 C 
BRANCH  10  11
ATOM     11  C   LIG    1       -1.520  -2.223  -0.274  0.00  0.00    -0.003 C 
ATOM     12  C   LIG    1       -2.910  -1.734  -0.066  0.00  0.00    +0.004 C 
ENDBRANCH  10  11
ENDBRANCH   1  10
BRANCH   1  13
ATOM     13  C   LIG    1        0.963   0.598  -0.829  0.00  0.00    +0.243 C 
BRANCH  13  14
ATOM     14  O   LIG    1        2.049  -0.169  -1.226  0.00  0.00    -0.450 OA
BRANCH  14  15
ATOM     15  C   LIG    1        3.079  -0.762  -0.618  0.00  0.00    +0.398 C 
ATOM     16  O   LIG    1        3.188  -0.639   0.629  0.00  0.00    -0.227 OA
ATOM     17  N   LIG    1        4.079  -1.542  -1.318  0.00  0.00    -0.295 N 
ATOM     18  H   LIG    1        5.035  -1.591  -0.935  0.00  0.00    +0.148 HD
ATOM     19  H   LIG    1        3.863  -2.050  -2.188  0.00  0.00    +0.148 HD
ENDBRANCH  14  15
ENDBRANCH  13  14
ENDBRANCH   1  13
TORSDOF 8
