REMARK  Name = molecules/NPRHVSBSZMAEIN-NRFANRHFSA-N.pdb
REMARK                            x       y       z     vdW  Elec       q    Type
REMARK                         _______ _______ _______ _____ _____    ______ ____
ROOT
ATOM      1  C   LIG    1        1.104   0.119   0.235  0.00  0.00    +0.092 C 
ENDROOT
BRANCH   1   2
ATOM      2  C   LIG    1        1.098   1.581   0.234  0.00  0.00    -0.016 A 
ATOM      3  C   LIG    1        0.720   2.245   1.383  0.00  0.00    +0.006 A 
ATOM      4  C   LIG    1        0.689   3.617   1.441  0.00  0.00    +0.000 A 
ATOM      5  C   LIG    1        1.044   4.365   0.326  0.00  0.00    +0.000 A 
ATOM      6  C   LIG    1        1.428   3.712  -0.840  0.00  0.00    +0.000 A 
ATOM      7  C   LIG    1        1.456   2.333  -0.885  0.00  0.00    +0.006 A 
ENDBRANCH   1   2
BRANCH   1   8
ATOM      8  C   LIG    1        2.308  -0.438  -0.501  0.00  0.00    +0.025 C 
ATOM      9  C   LIG    1        3.538   0.166   0.149  0.00  0.00    +0.007 C 
ATOM     10  C   LIG    1        4.798  -0.332  -0.504  0.00  0.00    +0.000 C 
ATOM     11  C   LIG    1        4.889  -1.810  -0.307  0.00  0.00    +0.000 C 
ATOM     12  C   LIG    1        3.659  -2.405   0.322  0.00  0.00    +0.000 C 
ATOM     13  C   LIG    1        2.374  -1.934  -0.283  0.00  0.00    +0.007 C 
ENDBRANCH   1   8
BRANCH   1  14
ATOM     14  O   LIG    1        1.256  -0.302   1.580  0.00  0.00    -0.384 OA
ATOM     15  H   LIG    1        0.648  -1.025   1.811  0.00  0.00    +0.211 HD
ENDBRANCH   1  14
BRANCH   1  16
ATOM     16  C   LIG    1       -0.185  -0.412  -0.350  0.00  0.00    +0.022 C 
BRANCH  16  17
ATOM     17  C   LIG    1       -1.347   0.079   0.431  0.00  0.00    -0.072 C 
BRANCH  17  18
ATOM     18  N   LIG    1       -2.638  -0.336   0.015  0.00  0.00    +0.380 N 
BRANCH  18  19
ATOM     19  C   LIG    1       -3.309  -1.107   1.089  0.00  0.00    -0.079 C 
ATOM     20  C   LIG    1       -2.456  -2.204   1.628  0.00  0.00    -0.016 C 
ENDBRANCH  18  19
BRANCH  18  21
ATOM     21  C   LIG    1       -3.475   0.847  -0.134  0.00  0.00    -0.079 C 
ATOM     22  C   LIG    1       -4.938   0.539  -0.021  0.00  0.00    -0.016 C 
ENDBRANCH  18  21
BRANCH  18  23
ATOM     23  C   LIG    1       -2.719  -1.103  -1.174  0.00  0.00    -0.079 C 
ATOM     24  C   LIG    1       -2.822  -0.317  -2.447  0.00  0.00    -0.016 C 
ENDBRANCH  18  23
ENDBRANCH  17  18
ENDBRANCH  16  17
ENDBRANCH   1  16
TORSDOF 9
