REMARK  Name = molecules/NPUKDXXFDDZOKR-LLVKDONJSA-N.pdb
REMARK                            x       y       z     vdW  Elec       q    Type
REMARK                         _______ _______ _______ _____ _____    ______ ____
ROOT
ATOM      1  N   LIG    1        0.081  -0.936  -0.971  0.00  0.00    -0.318 N 
ATOM      2  C   LIG    1        1.370  -0.792  -0.715  0.00  0.00    +0.147 A 
ATOM      3  C   LIG    1        2.078  -1.161  -1.848  0.00  0.00    +0.145 A 
ATOM      4  N   LIG    1        1.195  -1.520  -2.766  0.00  0.00    -0.243 NA
ATOM      5  C   LIG    1       -0.020  -1.391  -2.252  0.00  0.00    +0.200 A 
ENDROOT
BRANCH   1   6
ATOM      6  C   LIG    1       -1.095  -0.714  -0.193  0.00  0.00    +0.116 C 
ATOM      7  C   LIG    1       -2.018  -1.922  -0.382  0.00  0.00    +0.036 C 
BRANCH   6   8
ATOM      8  C   LIG    1       -1.829   0.498  -0.531  0.00  0.00    -0.025 A 
ATOM      9  C   LIG    1       -1.630   1.637   0.218  0.00  0.00    +0.005 A 
ATOM     10  C   LIG    1       -2.316   2.824  -0.066  0.00  0.00    +0.000 A 
ATOM     11  C   LIG    1       -3.206   2.857  -1.112  0.00  0.00    +0.000 A 
ATOM     12  C   LIG    1       -3.394   1.711  -1.852  0.00  0.00    +0.000 A 
ATOM     13  C   LIG    1       -2.716   0.524  -1.577  0.00  0.00    +0.005 A 
ENDBRANCH   6   8
ENDBRANCH   1   6
BRANCH   2  14
ATOM     14  C   LIG    1        1.944  -0.315   0.545  0.00  0.00    +0.357 C 
ATOM     15  O   LIG    1        1.206   0.002   1.491  0.00  0.00    -0.243 OA
BRANCH  14  16
ATOM     16  O   LIG    1        3.311  -0.198   0.734  0.00  0.00    -0.460 OA
BRANCH  16  17
ATOM     17  C   LIG    1        3.893   0.260   1.942  0.00  0.00    +0.229 C 
ATOM     18  C   LIG    1        3.517  -0.635   3.122  0.00  0.00    +0.048 C 
ENDBRANCH  16  17
ENDBRANCH  14  16
ENDBRANCH   2  14
TORSDOF 5
