REMARK  Name = molecules/NQDJXKOVJZTUJA-UHFFFAOYSA-N.pdb
REMARK                            x       y       z     vdW  Elec       q    Type
REMARK                         _______ _______ _______ _____ _____    ______ ____
ROOT
ATOM      1  C   LIG    1        3.762  -1.246  -0.763  0.00  0.00    +0.046 C 
ATOM      2  C   LIG    1        2.451  -1.537  -0.146  0.00  0.00    -0.022 A 
ATOM      3  C   LIG    1        2.225  -2.713   0.519  0.00  0.00    +0.025 A 
ATOM      4  C   LIG    1        0.979  -2.923   1.071  0.00  0.00    +0.113 A 
ATOM      5  N   LIG    1        0.020  -2.006   0.960  0.00  0.00    -0.236 NA
ATOM      6  C   LIG    1        0.188  -0.843   0.322  0.00  0.00    +0.159 A 
ATOM      7  N   LIG    1       -0.999  -0.065   0.363  0.00  0.00    -0.305 N 
ATOM      8  C   LIG    1       -1.002   1.379   0.245  0.00  0.00    +0.148 A 
ATOM      9  N   LIG    1       -2.091   1.944   0.797  0.00  0.00    -0.237 NA
ATOM     10  C   LIG    1       -2.307   3.264   0.806  0.00  0.00    +0.113 A 
ATOM     11  C   LIG    1       -1.394   4.154   0.232  0.00  0.00    +0.021 A 
ATOM     12  C   LIG    1       -0.274   3.588  -0.337  0.00  0.00    +0.018 A 
ATOM     13  C   LIG    1       -0.074   2.225  -0.334  0.00  0.00    +0.082 A 
ATOM     14  C   LIG    1        1.172   1.798  -0.984  0.00  0.00    +0.260 A 
ATOM     15  N   LIG    1        1.845   0.545  -0.952  0.00  0.00    -0.319 N 
ATOM     16  H   LIG    1        2.710   0.523  -1.511  0.00  0.00    +0.169 HD
ATOM     17  O   LIG    1        1.699   2.709  -1.669  0.00  0.00    -0.267 OA
ATOM     18  C   LIG    1        1.427  -0.611  -0.238  0.00  0.00    +0.088 A 
ENDROOT
BRANCH   7  19
ATOM     19  C   LIG    1       -2.282  -0.641   0.510  0.00  0.00    +0.091 C 
ATOM     20  C   LIG    1       -2.639  -2.008   0.849  0.00  0.00    +0.027 C 
ATOM     21  C   LIG    1       -2.749  -1.533  -0.633  0.00  0.00    +0.027 C 
ENDBRANCH   7  19
TORSDOF 1
