REMARK  Name = molecules/NQHNLNLJPDMBFN-UHFFFAOYSA-O.pdb
REMARK                            x       y       z     vdW  Elec       q    Type
REMARK                         _______ _______ _______ _____ _____    ______ ____
ROOT
ATOM      1  C   LIG    1       -1.844   1.802  -3.265  0.00  0.00    +0.252 C 
ATOM      2  N   LIG    1       -1.484   1.433  -1.983  0.00  0.00    -0.281 N 
ATOM      3  H   LIG    1       -2.148   1.385  -1.193  0.00  0.00    +0.155 HD
ATOM      4  O   LIG    1       -0.902   1.805  -4.146  0.00  0.00    -0.270 OA
ENDROOT
BRANCH   2   5
ATOM      5  C   LIG    1       -0.125   1.079  -1.627  0.00  0.00    +0.034 A 
ATOM      6  C   LIG    1        0.063   0.145  -0.599  0.00  0.00    +0.024 A 
ATOM      7  C   LIG    1        1.337  -0.191  -0.221  0.00  0.00    +0.017 A 
ATOM      8  C   LIG    1        2.455   0.350  -0.808  0.00  0.00    +0.059 A 
ATOM      9  C   LIG    1        2.236   1.262  -1.810  0.00  0.00    +0.017 A 
ATOM     10  C   LIG    1        0.965   1.625  -2.217  0.00  0.00    +0.024 A 
BRANCH   8  11
ATOM     11  C   LIG    1        3.796  -0.013  -0.411  0.00  0.00    +0.339 C 
ATOM     12  O   LIG    1        4.797   0.537  -0.976  0.00  0.00    -0.245 OA
BRANCH  11  13
ATOM     13  O   LIG    1        4.072  -0.945   0.570  0.00  0.00    -0.463 OA
BRANCH  13  14
ATOM     14  C   LIG    1        5.353  -1.329   0.999  0.00  0.00    +0.214 C 
BRANCH  14  15
ATOM     15  C   LIG    1        6.046  -0.156   1.603  0.00  0.00    -0.034 C 
BRANCH  15  16
ATOM     16  N   LIG    1        7.385  -0.431   2.083  0.00  0.00    +0.380 N 
ATOM     17  C   LIG    1        8.386  -0.149   1.081  0.00  0.00    -0.092 C 
BRANCH  16  18
ATOM     18  C   LIG    1        7.478  -1.808   2.460  0.00  0.00    -0.079 C 
ATOM     19  C   LIG    1        8.722  -2.166   3.230  0.00  0.00    -0.016 C 
ENDBRANCH  16  18
BRANCH  16  20
ATOM     20  C   LIG    1        7.584   0.376   3.282  0.00  0.00    -0.079 C 
ATOM     21  C   LIG    1        7.205   1.808   3.111  0.00  0.00    -0.016 C 
ENDBRANCH  16  20
ENDBRANCH  15  16
ENDBRANCH  14  15
ENDBRANCH  13  14
ENDBRANCH  11  13
ENDBRANCH   8  11
ENDBRANCH   2   5
BRANCH   1  27
ATOM     22  C   LIG    1       -4.249   2.252  -2.966  0.00  0.00    +0.133 A 
ATOM     23  C   LIG    1       -5.456   2.609  -3.502  0.00  0.00    +0.046 A 
ATOM     24  C   LIG    1       -5.595   2.912  -4.853  0.00  0.00    +0.004 A 
ATOM     25  C   LIG    1       -4.496   2.852  -5.655  0.00  0.00    +0.001 A 
ATOM     26  C   LIG    1       -3.284   2.500  -5.141  0.00  0.00    +0.017 A 
ATOM     27  C   LIG    1       -3.144   2.195  -3.789  0.00  0.00    +0.079 A 
BRANCH  22  28
ATOM     28  O   LIG    1       -4.116   1.966  -1.658  0.00  0.00    -0.491 OA
BRANCH  28  29
ATOM     29  C   LIG    1       -5.082   1.921  -0.677  0.00  0.00    +0.229 C 
BRANCH  29  30
ATOM     30  C   LIG    1       -6.022   0.764  -0.916  0.00  0.00    +0.041 C 
BRANCH  30  31
ATOM     31  C   LIG    1       -5.114  -0.483  -0.844  0.00  0.00    +0.003 C 
BRANCH  31  32
ATOM     32  C   LIG    1       -5.826  -1.751  -1.045  0.00  0.00    +0.000 C 
BRANCH  32  33
ATOM     33  C   LIG    1       -6.943  -2.110  -0.167  0.00  0.00    -0.000 C 
BRANCH  33  34
ATOM     34  C   LIG    1       -6.756  -2.281   1.280  0.00  0.00    -0.000 C 
BRANCH  34  35
ATOM     35  C   LIG    1       -6.337  -1.126   2.110  0.00  0.00    -0.003 C 
ATOM     36  C   LIG    1       -6.216  -1.507   3.585  0.00  0.00    +0.004 C 
ENDBRANCH  34  35
ENDBRANCH  33  34
ENDBRANCH  32  33
ENDBRANCH  31  32
ENDBRANCH  30  31
ENDBRANCH  29  30
ENDBRANCH  28  29
ENDBRANCH  22  28
ENDBRANCH   1  27
TORSDOF 17
