REMARK  Name = molecules/NQIZDFMZAXUZCZ-UHFFFAOYSA-N.pdb
REMARK                            x       y       z     vdW  Elec       q    Type
REMARK                         _______ _______ _______ _____ _____    ______ ____
ROOT
ATOM      1  C   LIG    1       -2.418   0.215   0.301  0.00  0.00    +0.195 C 
ENDROOT
BRANCH   1   2
ATOM      2  C   LIG    1       -3.540  -0.650   0.838  0.00  0.00    -0.003 A 
ATOM      3  C   LIG    1       -4.143  -0.336   2.016  0.00  0.00    +0.007 A 
ATOM      4  C   LIG    1       -5.150  -1.093   2.537  0.00  0.00    +0.000 A 
ATOM      5  C   LIG    1       -5.567  -2.212   1.844  0.00  0.00    +0.000 A 
ATOM      6  C   LIG    1       -4.977  -2.559   0.649  0.00  0.00    +0.000 A 
ATOM      7  C   LIG    1       -3.955  -1.758   0.156  0.00  0.00    +0.007 A 
ENDBRANCH   1   2
BRANCH   1   8
ATOM      8  C   LIG    1       -2.159  -0.024  -1.133  0.00  0.00    -0.003 A 
ATOM      9  C   LIG    1       -0.873  -0.206  -1.561  0.00  0.00    +0.007 A 
ATOM     10  C   LIG    1       -0.597  -0.427  -2.887  0.00  0.00    +0.000 A 
ATOM     11  C   LIG    1       -1.628  -0.468  -3.799  0.00  0.00    +0.000 A 
ATOM     12  C   LIG    1       -2.948  -0.290  -3.416  0.00  0.00    +0.000 A 
ATOM     13  C   LIG    1       -3.165  -0.072  -2.075  0.00  0.00    +0.007 A 
ENDBRANCH   1   8
BRANCH   1  14
ATOM     14  C   LIG    1       -1.224  -0.332   1.059  0.00  0.00    +0.257 C 
ATOM     15  N   LIG    1       -0.499   0.396   2.020  0.00  0.00    -0.300 N 
ATOM     16  C   LIG    1       -0.851   1.778   2.358  0.00  0.00    +0.132 C 
ATOM     17  O   LIG    1       -0.866  -1.527   0.804  0.00  0.00    -0.272 OA
BRANCH  15  18
ATOM     18  C   LIG    1        0.625  -0.216   2.703  0.00  0.00    +0.123 C 
BRANCH  18  19
ATOM     19  C   LIG    1        1.949  -0.004   2.078  0.00  0.00    +0.103 C 
BRANCH  19  20
ATOM     20  N   LIG    1        2.163  -0.513   0.769  0.00  0.00    -0.304 NA
ATOM     21  C   LIG    1        2.315  -1.976   0.910  0.00  0.00    +0.104 C 
BRANCH  20  22
ATOM     22  C   LIG    1        3.495   0.006   0.358  0.00  0.00    +0.089 C 
BRANCH  22  23
ATOM     23  C   LIG    1        3.823  -0.481  -1.031  0.00  0.00    +0.050 C 
BRANCH  23  24
ATOM     24  C   LIG    1        5.151   0.060  -1.428  0.00  0.00    -0.046 A 
ATOM     25  C   LIG    1        6.300  -0.650  -1.145  0.00  0.00    +0.003 A 
ATOM     26  C   LIG    1        7.555  -0.170  -1.507  0.00  0.00    +0.000 A 
ATOM     27  C   LIG    1        7.653   1.037  -2.160  0.00  0.00    +0.000 A 
ATOM     28  C   LIG    1        6.516   1.755  -2.448  0.00  0.00    +0.000 A 
ATOM     29  C   LIG    1        5.290   1.261  -2.081  0.00  0.00    +0.003 A 
ENDBRANCH  23  24
ENDBRANCH  22  23
ENDBRANCH  20  22
ENDBRANCH  19  20
ENDBRANCH  18  19
ENDBRANCH  15  18
ENDBRANCH   1  14
BRANCH   1  30
ATOM     30  O   LIG    1       -2.608   1.478   0.663  0.00  0.00    -0.355 OA
BRANCH  30  31
ATOM     31  C   LIG    1       -3.522   2.313   0.195  0.00  0.00    +0.159 C 
ATOM     32  C   LIG    1       -4.972   2.062   0.342  0.00  0.00    +0.034 C 
ENDBRANCH  30  31
ENDBRANCH   1  30
TORSDOF 11
