REMARK  Name = molecules/NQPDXQQQCQDHHW-UHFFFAOYSA-N.pdb
REMARK                            x       y       z     vdW  Elec       q    Type
REMARK                         _______ _______ _______ _____ _____    ______ ____
ROOT
ATOM      1  C   LIG    1       -0.677  -0.780  -0.601  0.00  0.00    +0.149 A 
ATOM      2  C   LIG    1        0.269  -1.503   0.122  0.00  0.00    +0.077 A 
ATOM      3  C   LIG    1        1.588  -1.100   0.169  0.00  0.00    +0.094 A 
ATOM      4  N   LIG    1        2.692  -1.593   0.773  0.00  0.00    -0.222 NA
ATOM      5  C   LIG    1        3.750  -0.821   0.504  0.00  0.00    +0.167 A 
ATOM      6  N   LIG    1        3.296   0.165  -0.279  0.00  0.00    -0.333 N 
ATOM      7  H   LIG    1        3.907   0.932  -0.654  0.00  0.00    +0.168 HD
ATOM      8  C   LIG    1        1.988   0.050  -0.519  0.00  0.00    +0.068 A 
ATOM      9  C   LIG    1        1.068   0.783  -1.243  0.00  0.00    +0.051 A 
ATOM     10  C   LIG    1       -0.249   0.338  -1.260  0.00  0.00    +0.085 A 
ATOM     11 CL   LIG    1       -1.469   1.240  -2.172  0.00  0.00    -0.080 Cl
ENDROOT
BRANCH   5  12
ATOM     12  S   LIG    1        5.450  -1.049   1.073  0.00  0.00    -0.091 S 
ATOM     13  C   LIG    1        6.488   0.284   0.416  0.00  0.00    +0.093 C 
ENDBRANCH   5  12
BRANCH   1  14
ATOM     14  O   LIG    1       -1.978  -1.193  -0.636  0.00  0.00    -0.453 OA
BRANCH  14  15
ATOM     15  C   LIG    1       -3.075  -0.508  -0.216  0.00  0.00    +0.148 A 
ATOM     16  C   LIG    1       -3.161  -0.117   1.117  0.00  0.00    +0.101 A 
ATOM     17 CL   LIG    1       -1.881  -0.498   2.244  0.00  0.00    -0.078 Cl
ATOM     18  C   LIG    1       -4.262   0.571   1.539  0.00  0.00    +0.063 A 
ATOM     19 CL   LIG    1       -4.360   1.061   3.230  0.00  0.00    -0.082 Cl
ATOM     20  C   LIG    1       -5.296   0.894   0.684  0.00  0.00    +0.022 A 
ATOM     21  C   LIG    1       -5.171   0.488  -0.627  0.00  0.00    +0.005 A 
ATOM     22  C   LIG    1       -4.085  -0.207  -1.104  0.00  0.00    +0.048 A 
ENDBRANCH  14  15
ENDBRANCH   1  14
TORSDOF 3
