REMARK  Name = molecules/NREAGDHHMSOWKZ-DXJNJSHLSA-N.pdb
REMARK                            x       y       z     vdW  Elec       q    Type
REMARK                         _______ _______ _______ _____ _____    ______ ____
ROOT
ATOM      1  C   LIG    1       -0.222  -0.803   0.662  0.00  0.00    +0.253 C 
ATOM      2  O   LIG    1        0.607   0.345   0.818  0.00  0.00    -0.346 OA
ATOM      3  C   LIG    1        1.867  -0.098   1.300  0.00  0.00    +0.150 C 
ATOM      4  C   LIG    1        2.528   1.108   1.896  0.00  0.00    +0.041 C 
ATOM      5  C   LIG    1        2.611  -0.612   0.082  0.00  0.00    +0.178 C 
ATOM      6  C   LIG    1        1.666  -1.155  -0.932  0.00  0.00    +0.151 C 
ATOM      7  C   LIG    1        0.493  -1.811  -0.212  0.00  0.00    +0.095 C 
ENDROOT
BRANCH   6   8
ATOM      8  O   LIG    1        2.225  -2.082  -1.806  0.00  0.00    -0.389 OA
ATOM      9  H   LIG    1        2.522  -1.657  -2.662  0.00  0.00    +0.210 HD
ENDBRANCH   6   8
BRANCH   1  10
ATOM     10  O   LIG    1       -1.494  -0.494   0.268  0.00  0.00    -0.348 OA
BRANCH  10  20
ATOM     11  C   LIG    1       -8.790  -0.126   0.671  0.00  0.00    +0.077 C 
ATOM     12  C   LIG    1       -9.133   1.056   1.526  0.00  0.00    +0.036 C 
ATOM     13  C   LIG    1      -10.582   1.304   1.079  0.00  0.00    +0.011 C 
ATOM     14  C   LIG    1      -10.558   0.989  -0.416  0.00  0.00    +0.030 C 
ATOM     15  C   LIG    1       -7.367  -0.566   0.724  0.00  0.00    +0.025 C 
ATOM     16  C   LIG    1       -6.940  -0.858   2.125  0.00  0.00    +0.007 C 
ATOM     17  C   LIG    1       -5.546  -1.419   2.215  0.00  0.00    +0.004 C 
ATOM     18  C   LIG    1       -4.878  -1.344   0.873  0.00  0.00    -0.002 C 
ATOM     19  C   LIG    1       -3.426  -1.801   0.947  0.00  0.00    +0.035 C 
ATOM     20  C   LIG    1       -2.456  -0.720   1.255  0.00  0.00    +0.122 C 
ATOM     21  C   LIG    1       -3.053   0.596   1.605  0.00  0.00    +0.032 C 
ATOM     22  C   LIG    1       -4.082   1.017   0.624  0.00  0.00    +0.010 C 
ATOM     23  C   LIG    1       -5.012  -0.061   0.137  0.00  0.00    -0.026 C 
ATOM     24  C   LIG    1       -4.693  -0.401  -1.337  0.00  0.00    +0.012 C 
ATOM     25  C   LIG    1       -6.411   0.466   0.177  0.00  0.00    +0.003 C 
ATOM     26  C   LIG    1       -6.841   0.963  -1.184  0.00  0.00    +0.036 C 
ATOM     27  C   LIG    1       -8.275   1.416  -1.167  0.00  0.00    +0.124 C 
ATOM     28  C   LIG    1       -9.225   0.333  -0.694  0.00  0.00    +0.029 C 
ATOM     29  C   LIG    1       -9.296  -0.773  -1.700  0.00  0.00    +0.017 C 
BRANCH  14  30
ATOM     30  C   LIG    1      -11.719   0.200  -0.856  0.00  0.00    -0.022 C 
ATOM     31  C   LIG    1      -12.183  -1.138  -0.440  0.00  0.00    +0.264 C 
ATOM     32  O   LIG    1      -13.355  -1.436  -1.164  0.00  0.00    -0.457 OA
ATOM     33  C   LIG    1      -13.619  -0.374  -1.993  0.00  0.00    +0.332 C 
ATOM     34  O   LIG    1      -14.621  -0.365  -2.776  0.00  0.00    -0.246 OA
ATOM     35  C   LIG    1      -12.600   0.613  -1.780  0.00  0.00    +0.094 C 
ENDBRANCH  14  30
BRANCH  11  36
ATOM     36  O   LIG    1       -9.571  -1.196   1.127  0.00  0.00    -0.388 OA
ATOM     37  H   LIG    1       -9.062  -2.043   1.133  0.00  0.00    +0.210 HD
ENDBRANCH  11  36
BRANCH  27  38
ATOM     38  O   LIG    1       -8.629   1.696  -2.507  0.00  0.00    -0.391 OA
ATOM     39  H   LIG    1       -7.981   1.325  -3.144  0.00  0.00    +0.210 HD
ENDBRANCH  27  38
ENDBRANCH  10  20
ENDBRANCH   1  10
BRANCH   5  40
ATOM     40  O   LIG    1        3.655  -1.444   0.397  0.00  0.00    -0.343 OA
BRANCH  40  41
ATOM     41  C   LIG    1        4.918  -0.985   0.176  0.00  0.00    +0.254 C 
ATOM     42  C   LIG    1        5.620  -0.828   1.532  0.00  0.00    +0.095 C 
ATOM     43  C   LIG    1        6.820   0.046   1.259  0.00  0.00    +0.151 C 
ATOM     44  C   LIG    1        7.637  -0.424   0.074  0.00  0.00    +0.178 C 
ATOM     45  C   LIG    1        6.819  -1.012  -1.015  0.00  0.00    +0.150 C 
ATOM     46  C   LIG    1        7.717  -1.824  -1.924  0.00  0.00    +0.041 C 
ATOM     47  O   LIG    1        5.727  -1.776  -0.581  0.00  0.00    -0.346 OA
BRANCH  43  48
ATOM     48  O   LIG    1        6.418   1.365   1.131  0.00  0.00    -0.389 OA
ATOM     49  H   LIG    1        6.250   1.684   2.076  0.00  0.00    +0.210 HD
ENDBRANCH  43  48
BRANCH  44  50
ATOM     50  O   LIG    1        8.292   0.708  -0.403  0.00  0.00    -0.343 OA
BRANCH  50  51
ATOM     51  C   LIG    1        9.692   0.619  -0.301  0.00  0.00    +0.254 C 
ATOM     52  O   LIG    1       10.184   1.518   0.622  0.00  0.00    -0.345 OA
ATOM     53  C   LIG    1       11.240   2.284   0.231  0.00  0.00    +0.161 C 
ATOM     54  C   LIG    1       12.250   1.435  -0.480  0.00  0.00    +0.233 C 
ATOM     55  C   LIG    1       11.660   1.118  -1.835  0.00  0.00    +0.162 C 
ATOM     56  C   LIG    1       10.898   3.465  -0.642  0.00  0.00    +0.042 C 
ATOM     57  C   LIG    1       10.272   0.642  -1.656  0.00  0.00    +0.096 C 
BRANCH  55  58
ATOM     58  O   LIG    1       12.421   0.079  -2.425  0.00  0.00    -0.388 OA
ATOM     59  H   LIG    1       11.800  -0.504  -2.921  0.00  0.00    +0.210 HD
ENDBRANCH  55  58
BRANCH  54  60
ATOM     60  O   LIG    1       12.522   0.213   0.142  0.00  0.00    -0.456 OA
BRANCH  60  61
ATOM     61  C   LIG    1       13.813  -0.142   0.486  0.00  0.00    +0.304 C 
ATOM     62  C   LIG    1       14.168  -1.432   1.150  0.00  0.00    +0.136 C 
ATOM     63  O   LIG    1       14.709   0.688   0.208  0.00  0.00    -0.251 OA
ENDBRANCH  60  61
ENDBRANCH  54  60
ENDBRANCH  50  51
ENDBRANCH  44  50
ENDBRANCH  40  41
ENDBRANCH   5  40
TORSDOF 14
