REMARK  Name = molecules/NRFJZTXWLKPZAV-RXMQYKEDSA-N.pdb
REMARK                            x       y       z     vdW  Elec       q    Type
REMARK                         _______ _______ _______ _____ _____    ______ ____
ROOT
ATOM      1  C   LIG    1       -0.645  -0.110  -0.133  0.00  0.00    +0.151 C 
ATOM      2  C   LIG    1       -1.158   0.475   1.178  0.00  0.00    +0.042 C 
ATOM      3  C   LIG    1       -2.631   0.792   0.879  0.00  0.00    +0.079 C 
ATOM      4  S   LIG    1       -3.106  -0.826   0.129  0.00  0.00    -0.086 S 
ATOM      5  C   LIG    1       -1.460  -1.321  -0.363  0.00  0.00    +0.209 C 
ATOM      6  O   LIG    1       -1.104  -2.383  -0.780  0.00  0.00    -0.283 OA
ENDROOT
BRANCH   1   9
ATOM      7  C   LIG    1        3.139  -0.104  -0.808  0.00  0.00    +0.109 C 
ATOM      8  C   LIG    1        1.712   0.221  -0.938  0.00  0.00    +0.210 C 
ATOM      9  N   LIG    1        0.771  -0.369  -0.078  0.00  0.00    -0.305 N 
ATOM     10  H   LIG    1        1.131  -1.038   0.643  0.00  0.00    +0.149 HD
ATOM     11  O   LIG    1        1.332   1.023  -1.812  0.00  0.00    -0.276 OA
ENDBRANCH   1   9
TORSDOF 1
