REMARK  Name = molecules/NSJYMFYVNWVGON-UHFFFAOYSA-N.pdb
REMARK                            x       y       z     vdW  Elec       q    Type
REMARK                         _______ _______ _______ _____ _____    ______ ____
ROOT
ATOM      1  C   LIG    1       -1.997  -3.203   1.097  0.00  0.00    -0.046 A 
ATOM      2  C   LIG    1       -0.818  -3.345   1.806  0.00  0.00    +0.005 A 
ATOM      3  C   LIG    1        0.416  -3.100   1.259  0.00  0.00    +0.029 A 
ATOM      4  C   LIG    1        0.551  -2.684  -0.071  0.00  0.00    +0.109 A 
ATOM      5  C   LIG    1       -0.612  -2.536  -0.788  0.00  0.00    +0.029 A 
ATOM      6  C   LIG    1       -1.849  -2.783  -0.240  0.00  0.00    +0.005 A 
ENDROOT
BRANCH   4   7
ATOM      7  S   LIG    1        2.143  -2.410  -0.735  0.00  0.00    +0.076 S 
ATOM      8  O   LIG    1        3.143  -3.439  -0.223  0.00  0.00    -0.150 OA
ATOM      9  O   LIG    1        2.143  -2.541  -2.234  0.00  0.00    -0.150 OA
BRANCH   7  10
ATOM     10  N   LIG    1        2.715  -0.864  -0.282  0.00  0.00    -0.169 N 
ATOM     11  H   LIG    1        2.309  -0.298   0.477  0.00  0.00    +0.178 HD
ATOM     12  C   LIG    1        3.834  -0.296  -0.995  0.00  0.00    +0.319 C 
ATOM     13  N   LIG    1        4.343   0.971  -0.625  0.00  0.00    -0.295 N 
ATOM     14  H   LIG    1        3.912   1.504   0.165  0.00  0.00    +0.151 HD
ATOM     15  O   LIG    1        4.356  -0.923  -1.936  0.00  0.00    -0.251 OA
BRANCH  13  16
ATOM     16  C   LIG    1        5.468   1.514  -1.363  0.00  0.00    +0.074 C 
ATOM     17  C   LIG    1        6.760   1.344  -0.539  0.00  0.00    +0.022 C 
ATOM     18  C   LIG    1        7.718   2.144  -1.421  0.00  0.00    +0.002 C 
ATOM     19  C   LIG    1        6.887   3.337  -1.889  0.00  0.00    +0.002 C 
ATOM     20  C   LIG    1        5.439   3.003  -1.515  0.00  0.00    +0.022 C 
ENDBRANCH  13  16
ENDBRANCH   7  10
ENDBRANCH   4   7
BRANCH   1  21
ATOM     21  C   LIG    1       -3.303  -3.514   1.653  0.00  0.00    +0.054 C 
BRANCH  21  22
ATOM     22  C   LIG    1       -4.070  -2.529   2.408  0.00  0.00    +0.109 C 
BRANCH  22  24
ATOM     23  C   LIG    1       -3.506  -0.334   1.352  0.00  0.00    +0.248 C 
ATOM     24  N   LIG    1       -4.408  -1.329   1.719  0.00  0.00    -0.311 N 
ATOM     25  H   LIG    1       -5.430  -1.217   1.487  0.00  0.00    +0.149 HD
ATOM     26  O   LIG    1       -2.290  -0.535   1.719  0.00  0.00    -0.270 OA
BRANCH  23  27
ATOM     27  C   LIG    1       -3.792   0.881   0.610  0.00  0.00    +0.078 A 
ATOM     28  C   LIG    1       -2.720   1.767   0.361  0.00  0.00    +0.017 A 
ATOM     29  C   LIG    1       -2.938   2.928  -0.333  0.00  0.00    +0.001 A 
ATOM     30  C   LIG    1       -4.218   3.245  -0.796  0.00  0.00    +0.004 A 
ATOM     31  C   LIG    1       -5.274   2.405  -0.566  0.00  0.00    +0.046 A 
ATOM     32  C   LIG    1       -5.020   1.218   0.149  0.00  0.00    +0.132 A 
BRANCH  32  33
ATOM     33  O   LIG    1       -6.120   0.396   0.356  0.00  0.00    -0.494 OA
ATOM     34  C   LIG    1       -7.408   0.723  -0.121  0.00  0.00    +0.277 C 
ENDBRANCH  32  33
ENDBRANCH  23  27
ENDBRANCH  22  24
ENDBRANCH  21  22
ENDBRANCH   1  21
TORSDOF 8
