REMARK  Name = molecules/NSKGQURZWSPSBC-VVPCINPTSA-N.pdb
REMARK                            x       y       z     vdW  Elec       q    Type
REMARK                         _______ _______ _______ _____ _____    ______ ____
ROOT
ATOM      1  C   LIG    1        0.912   0.459  -1.617  0.00  0.00    +0.182 C 
ATOM      2  C   LIG    1       -0.465   1.013  -1.359  0.00  0.00    +0.169 C 
ATOM      3  C   LIG    1       -1.238   0.713  -2.649  0.00  0.00    +0.084 C 
ATOM      4  C   LIG    1       -0.690   1.660  -3.692  0.00  0.00    +0.042 C 
ATOM      5  C   LIG    1        0.780   1.566  -3.872  0.00  0.00    +0.084 C 
ATOM      6  C   LIG    1        1.559   1.471  -2.580  0.00  0.00    +0.163 C 
ENDROOT
BRANCH   3   7
ATOM      7  N   LIG    1       -2.640   0.935  -2.514  0.00  0.00    -0.325 NA
ATOM      8  H   LIG    1       -2.839   1.931  -2.748  0.00  0.00    +0.119 HD
ATOM      9  H   LIG    1       -3.235   0.322  -3.079  0.00  0.00    +0.119 HD
ENDBRANCH   3   7
BRANCH   5  10
ATOM     10  N   LIG    1        1.246   2.746  -4.576  0.00  0.00    -0.325 NA
ATOM     11  H   LIG    1        2.243   2.961  -4.368  0.00  0.00    +0.119 HD
ATOM     12  H   LIG    1        1.039   2.708  -5.593  0.00  0.00    +0.119 HD
ENDBRANCH   5  10
BRANCH   6  13
ATOM     13  O   LIG    1        2.836   1.034  -2.923  0.00  0.00    -0.388 OA
ATOM     14  H   LIG    1        3.534   1.524  -2.395  0.00  0.00    +0.210 HD
ENDBRANCH   6  13
BRANCH   2  15
ATOM     15  O   LIG    1       -1.024   0.428  -0.272  0.00  0.00    -0.342 OA
BRANCH  15  16
ATOM     16  C   LIG    1       -1.583   1.279   0.677  0.00  0.00    +0.270 C 
ATOM     17  C   LIG    1       -1.009   1.034   2.007  0.00  0.00    +0.139 C 
ATOM     18  C   LIG    1       -1.413  -0.315   2.599  0.00  0.00    +0.167 C 
ATOM     19  C   LIG    1       -2.947  -0.238   2.657  0.00  0.00    +0.175 C 
ATOM     20  C   LIG    1       -3.383  -0.080   1.240  0.00  0.00    +0.166 C 
ATOM     21  O   LIG    1       -2.945   1.037   0.582  0.00  0.00    -0.343 OA
BRANCH  17  22
ATOM     22  N   LIG    1        0.410   1.154   2.148  0.00  0.00    -0.321 NA
ATOM     23  H   LIG    1        0.823   0.470   2.806  0.00  0.00    +0.119 HD
ATOM     24  H   LIG    1        0.677   2.142   2.345  0.00  0.00    +0.119 HD
ENDBRANCH  17  22
BRANCH  18  25
ATOM     25  O   LIG    1       -0.866  -0.435   3.861  0.00  0.00    -0.387 OA
ATOM     26  H   LIG    1       -1.205   0.318   4.400  0.00  0.00    +0.210 HD
ENDBRANCH  18  25
BRANCH  19  27
ATOM     27  O   LIG    1       -3.403  -1.432   3.164  0.00  0.00    -0.387 OA
ATOM     28  H   LIG    1       -4.266  -1.274   3.624  0.00  0.00    +0.210 HD
ENDBRANCH  19  27
BRANCH  20  29
ATOM     29  C   LIG    1       -4.887  -0.225   1.189  0.00  0.00    +0.112 C 
BRANCH  29  30
ATOM     30  N   LIG    1       -5.553   0.915   1.800  0.00  0.00    -0.328 NA
ATOM     31  H   LIG    1       -5.462   0.852   2.855  0.00  0.00    +0.118 HD
ATOM     32  H   LIG    1       -6.573   0.796   1.617  0.00  0.00    +0.118 HD
ENDBRANCH  29  30
ENDBRANCH  20  29
ENDBRANCH  15  16
ENDBRANCH   2  15
BRANCH   1  33
ATOM     33  O   LIG    1        1.694   0.353  -0.538  0.00  0.00    -0.340 OA
BRANCH  33  34
ATOM     34  C   LIG    1        2.288  -0.827  -0.244  0.00  0.00    +0.282 C 
ATOM     35  O   LIG    1        1.793  -1.402   0.953  0.00  0.00    -0.341 OA
ATOM     36  C   LIG    1        2.536  -2.539   1.131  0.00  0.00    +0.178 C 
ATOM     37  C   LIG    1        3.888  -2.342   0.487  0.00  0.00    +0.179 C 
ATOM     38  C   LIG    1        3.739  -0.896  -0.026  0.00  0.00    +0.201 C 
BRANCH  37  39
ATOM     39  O   LIG    1        3.970  -3.220  -0.592  0.00  0.00    -0.386 OA
ATOM     40  H   LIG    1        3.495  -4.058  -0.319  0.00  0.00    +0.210 HD
ENDBRANCH  37  39
BRANCH  38  41
ATOM     41  O   LIG    1        4.537  -0.842  -1.160  0.00  0.00    -0.384 OA
ATOM     42  H   LIG    1        5.296  -1.475  -1.116  0.00  0.00    +0.210 HD
ENDBRANCH  38  41
BRANCH  36  43
ATOM     43  C   LIG    1        2.809  -2.685   2.629  0.00  0.00    +0.190 C 
BRANCH  43  44
ATOM     44  O   LIG    1        3.517  -1.525   2.990  0.00  0.00    -0.392 OA
ATOM     45  H   LIG    1        4.478  -1.703   3.104  0.00  0.00    +0.210 HD
ENDBRANCH  43  44
ENDBRANCH  36  43
ENDBRANCH  33  34
ENDBRANCH   1  33
TORSDOF 16
