REMARK  Name = molecules/NSPHQWLKCGGCQR-DLJDZFDSSA-N.pdb
REMARK                            x       y       z     vdW  Elec       q    Type
REMARK                         _______ _______ _______ _____ _____    ______ ____
ROOT
ATOM      1  CA  CYS A  4        4.000  -0.873  -0.282  0.00  0.00    +0.169 C 
ATOM      2  CB  CYS A  4        3.844  -0.813   1.247  0.00  0.00    +0.112 C 
ATOM      3  SG  CYS A  4        2.719   0.536   1.642  0.00  0.00    -0.091 S 
ATOM      4  SG  CYS A 12        2.421   0.669   3.754  0.00  0.00    -0.091 S 
ATOM      5  CB  CYS A 12        0.689   0.989   4.162  0.00  0.00    +0.112 C 
ATOM      6  CA  CYS A 12        0.061  -0.364   4.554  0.00  0.00    +0.169 C 
ATOM      7  C   CYS A 12       -1.093  -0.171   5.466  0.00  0.00    +0.235 C 
ATOM      8  O   CYS A 12       -0.791  -0.261   6.729  0.00  0.00    -0.274 OA
ATOM      9  N   THR A 13       -2.421   0.082   5.172  0.00  0.00    -0.300 N 
ATOM     10  H   THR A 13       -3.153  -0.659   5.485  0.00  0.00    +0.150 HD
ATOM     11  CA  THR A 13       -3.058   1.191   4.505  0.00  0.00    +0.187 C 
ATOM     12  C   THR A 13       -3.185   0.986   3.025  0.00  0.00    +0.236 C 
ATOM     13  N   GLY A 14       -4.271   0.290   2.429  0.00  0.00    -0.305 N 
ATOM     14  CA  GLY A 14       -5.667   0.454   2.780  0.00  0.00    +0.200 C 
ATOM     15  C   GLY A 14       -6.533   0.653   1.583  0.00  0.00    +0.231 C 
ATOM     16  O   GLY A 14       -7.553  -0.093   1.410  0.00  0.00    -0.274 OA
ATOM     17  N   CYS A 15       -6.242   1.656   0.635  0.00  0.00    -0.302 N 
ATOM     18  CA  CYS A 15       -5.870   3.013   1.011  0.00  0.00    +0.169 C 
ATOM     19  CB  CYS A 15       -4.523   3.270   0.343  0.00  0.00    +0.112 C 
ATOM     20  SG  CYS A 15       -4.779   3.812  -1.390  0.00  0.00    -0.091 S 
ATOM     21  SG  CYS A  7       -5.148   2.077  -2.556  0.00  0.00    -0.091 S 
ATOM     22  CB  CYS A  7       -3.793   1.793  -3.696  0.00  0.00    +0.112 C 
ATOM     23  CA  CYS A  7       -3.492   0.273  -3.801  0.00  0.00    +0.169 C 
ATOM     24  C   CYS A  7       -4.799  -0.445  -3.668  0.00  0.00    +0.235 C 
ATOM     25  N   VAL A  8       -5.250  -1.327  -2.719  0.00  0.00    -0.302 N 
ATOM     26  H   VAL A  8       -5.981  -0.928  -2.015  0.00  0.00    +0.150 HD
ATOM     27  CA  VAL A  8       -4.992  -2.717  -2.441  0.00  0.00    +0.161 C 
ATOM     28  C   VAL A  8       -5.194  -2.965  -0.973  0.00  0.00    +0.234 C 
ATOM     29  N   ASN A  9       -4.610  -3.913  -0.161  0.00  0.00    -0.302 N 
ATOM     30  H   ASN A  9       -4.009  -3.563   0.659  0.00  0.00    +0.150 HD
ATOM     31  CA  ASN A  9       -4.654  -5.358  -0.189  0.00  0.00    +0.168 C 
ATOM     32  C   ASN A  9       -3.305  -5.973  -0.340  0.00  0.00    +0.234 C 
ATOM     33  N   VAL A 10       -2.221  -5.705   0.520  0.00  0.00    -0.302 N 
ATOM     34  CA  VAL A 10       -2.289  -5.727   1.973  0.00  0.00    +0.161 C 
ATOM     35  C   VAL A 10       -0.920  -5.546   2.541  0.00  0.00    +0.234 C 
ATOM     36  N   ALA A 11       -0.605  -4.858   3.717  0.00  0.00    -0.303 N 
ATOM     37  H   ALA A 11        0.006  -5.362   4.427  0.00  0.00    +0.149 HD
ATOM     38  CA  ALA A 11       -1.048  -3.496   4.039  0.00  0.00    +0.156 C 
ATOM     39  CB  ALA A 11       -0.963  -3.359   5.516  0.00  0.00    +0.038 C 
ATOM     40  C   ALA A 11       -0.315  -2.528   3.225  0.00  0.00    +0.234 C 
ATOM     41  O   ALA A 11        0.361  -3.017   2.240  0.00  0.00    -0.274 OA
ATOM     42  O   VAL A 10        0.005  -6.096   1.845  0.00  0.00    -0.274 OA
ATOM     43  H   VAL A 10       -1.283  -5.471   0.068  0.00  0.00    +0.150 HD
ATOM     44  O   ASN A  9       -3.175  -6.783  -1.321  0.00  0.00    -0.274 OA
ATOM     45  O   VAL A  8       -6.043  -2.146  -0.445  0.00  0.00    -0.274 OA
ATOM     46  O   CYS A  7       -5.554  -0.101  -4.666  0.00  0.00    -0.274 OA
ATOM     47  N   CYS A  7       -3.007   0.107  -5.166  0.00  0.00    -0.302 N 
ATOM     48  C   LEU A  6       -1.797  -0.433  -5.575  0.00  0.00    +0.234 C 
ATOM     49  CA  LEU A  6       -0.424  -0.004  -5.139  0.00  0.00    +0.159 C 
ATOM     50  N   LEU A  6        0.324  -1.248  -4.977  0.00  0.00    -0.302 N 
ATOM     51  C   GLU A  5        1.183  -1.591  -3.941  0.00  0.00    +0.234 C 
ATOM     52  O   GLU A  5        0.995  -2.740  -3.386  0.00  0.00    -0.274 OA
ATOM     53  CA  GLU A  5        2.315  -0.746  -3.404  0.00  0.00    +0.159 C 
ATOM     54  N   GLU A  5        2.090  -0.460  -1.993  0.00  0.00    -0.302 N 
ATOM     55  H   GLU A  5        1.339   0.313  -1.860  0.00  0.00    +0.150 HD
ATOM     56  H   LEU A  6        0.172  -1.955  -5.761  0.00  0.00    +0.150 HD
ATOM     57  O   LEU A  6       -1.817  -1.402  -6.416  0.00  0.00    -0.274 OA
ATOM     58  H   CYS A  7       -3.706   0.456  -5.902  0.00  0.00    +0.150 HD
ATOM     59  H   CYS A 15       -6.295   1.447  -0.378  0.00  0.00    +0.150 HD
ATOM     60  H   GLY A 14       -4.106  -0.419   1.652  0.00  0.00    +0.149 HD
ATOM     61  O   THR A 13       -2.301   1.437   2.211  0.00  0.00    -0.274 OA
ATOM     62  N   CYS A 12       -0.243  -1.128   3.362  0.00  0.00    -0.302 N 
ATOM     63  H   CYS A 12       -0.421  -0.494   2.509  0.00  0.00    +0.150 HD
ATOM     64  C   CYS A  4        2.667  -1.027  -0.868  0.00  0.00    +0.235 C 
ATOM     65  O   CYS A  4        1.910  -1.846  -0.186  0.00  0.00    -0.274 OA
ENDROOT
BRANCH  18  66
ATOM     66  C   CYS A 15       -6.851   3.959   0.442  0.00  0.00    +0.235 C 
ATOM     67  N   LEU A 16       -6.894   5.347   0.697  0.00  0.00    -0.301 N 
ATOM     68  H   LEU A 16       -6.181   5.746   1.345  0.00  0.00    +0.150 HD
ATOM     69  O   CYS A 15       -7.735   3.489  -0.345  0.00  0.00    -0.274 OA
BRANCH  67  70
ATOM     70  CA  LEU A 16       -7.856   6.264   0.121  0.00  0.00    +0.182 C 
BRANCH  70  71
ATOM     71  C   LEU A 16       -7.278   7.511  -0.366  0.00  0.00    +0.325 C 
ATOM     72  OXT LEU A 16       -6.024   7.738  -0.288  0.00  0.00    -0.249 OA
BRANCH  71  73
ATOM     73  O   LEU A 16       -8.053   8.492  -0.927  0.00  0.00    -0.479 OA
ATOM     74  H   LEU A 16       -7.858   9.471  -0.958  0.00  0.00    +0.295 HD
ENDBRANCH  71  73
ENDBRANCH  70  71
BRANCH  70  75
ATOM     75  CB  LEU A 16       -9.044   6.407   1.038  0.00  0.00    +0.036 C 
BRANCH  75  76
ATOM     76  CG  LEU A 16       -8.751   6.920   2.402  0.00  0.00    -0.015 C 
ATOM     77  CD2 LEU A 16      -10.043   7.001   3.234  0.00  0.00    +0.007 C 
ATOM     78  CD1 LEU A 16       -8.226   8.362   2.326  0.00  0.00    +0.007 C 
ENDBRANCH  75  76
ENDBRANCH  70  75
ENDBRANCH  67  70
ENDBRANCH  18  66
BRANCH   1  81
ATOM     79  C   GLU A  3        6.168   0.249  -0.513  0.00  0.00    +0.234 C 
ATOM     80  O   GLU A  3        6.673  -0.730   0.089  0.00  0.00    -0.274 OA
ATOM     81  N   CYS A  4        4.771   0.257  -0.734  0.00  0.00    -0.302 N 
ATOM     82  H   CYS A  4        4.378   1.097  -1.222  0.00  0.00    +0.150 HD
BRANCH  79  83
ATOM     83  CA  GLU A  3        7.078   1.368  -0.977  0.00  0.00    +0.159 C 
BRANCH  83  85
ATOM     84  C   ASP A  2        9.166   0.892   0.356  0.00  0.00    +0.234 C 
ATOM     85  N   GLU A  3        8.010   1.629   0.056  0.00  0.00    -0.302 N 
ATOM     86  H   GLU A  3        7.803   2.509   0.691  0.00  0.00    +0.150 HD
ATOM     87  O   ASP A  2        9.468  -0.120  -0.326  0.00  0.00    -0.274 OA
BRANCH  84  88
ATOM     88  CA  ASP A  2       10.063   1.266   1.478  0.00  0.00    +0.169 C 
BRANCH  88  91
ATOM     89  C   ASN A  1       11.487  -0.021   3.083  0.00  0.00    +0.231 C 
ATOM     90  O   ASN A  1       10.868   0.512   4.022  0.00  0.00    -0.274 OA
ATOM     91  N   ASP A  2       11.125   0.331   1.732  0.00  0.00    -0.302 N 
ATOM     92  H   ASP A  2       11.661  -0.114   0.971  0.00  0.00    +0.150 HD
BRANCH  89  93
ATOM     93  CA  ASN A  1       12.569  -0.986   3.358  0.00  0.00    +0.146 C 
BRANCH  93  94
ATOM     94  N   ASN A  1       12.497  -2.086   2.359  0.00  0.00    -0.320 NA
ATOM     95  H1  ASN A  1       11.629  -2.631   2.642  0.00  0.00    +0.119 HD
ATOM     96  H2  ASN A  1       13.344  -2.690   2.473  0.00  0.00    +0.119 HD
ENDBRANCH  93  94
BRANCH  93  97
ATOM     97  CB  ASN A  1       13.910  -0.280   3.156  0.00  0.00    +0.123 C 
BRANCH  97  98
ATOM     98  CG  ASN A  1       14.052   0.806   4.122  0.00  0.00    +0.212 C 
ATOM     99  ND2 ASN A  1       13.169   0.960   5.207  0.00  0.00    -0.329 N 
ATOM    100 HD21 ASN A  1       12.876   0.166   5.843  0.00  0.00    +0.145 HD
ATOM    101 HD22 ASN A  1       12.748   1.896   5.454  0.00  0.00    +0.145 HD
ATOM    102  OD1 ASN A  1       15.012   1.621   3.956  0.00  0.00    -0.276 OA
ENDBRANCH  97  98
ENDBRANCH  93  97
ENDBRANCH  89  93
ENDBRANCH  88  91
BRANCH  88 103
ATOM    103  CB  ASP A  2       10.578   2.682   1.380  0.00  0.00    +0.152 C 
BRANCH 103 104
ATOM    104  CG  ASP A  2       11.583   2.907   0.334  0.00  0.00    +0.307 C 
ATOM    105  OD1 ASP A  2       11.389   3.316  -0.821  0.00  0.00    -0.251 OA
BRANCH 104 106
ATOM    106  OD2 ASP A  2       12.932   2.631   0.658  0.00  0.00    -0.481 OA
ATOM    107  HD2 ASP A  2       13.458   1.985   0.094  0.00  0.00    +0.295 HD
ENDBRANCH 104 106
ENDBRANCH 103 104
ENDBRANCH  88 103
ENDBRANCH  84  88
ENDBRANCH  83  85
BRANCH  83 108
ATOM    108  CB  GLU A  3        7.735   0.852  -2.230  0.00  0.00    +0.043 C 
BRANCH 108 109
ATOM    109  CG  GLU A  3        8.747   1.730  -2.852  0.00  0.00    +0.123 C 
BRANCH 109 110
ATOM    110  CD  GLU A  3        8.281   3.055  -3.300  0.00  0.00    +0.305 C 
ATOM    111  OE2 GLU A  3        7.094   3.378  -3.162  0.00  0.00    -0.251 OA
BRANCH 110 112
ATOM    112  OE1 GLU A  3        9.167   3.954  -3.881  0.00  0.00    -0.481 OA
ATOM    113  HE1 GLU A  3        9.525   3.839  -4.824  0.00  0.00    +0.295 HD
ENDBRANCH 110 112
ENDBRANCH 109 110
ENDBRANCH 108 109
ENDBRANCH  83 108
ENDBRANCH  79  83
ENDBRANCH   1  81
BRANCH  27 114
ATOM    114  CB  VAL A  8       -3.742  -3.291  -2.966  0.00  0.00    +0.012 C 
ATOM    115  CG2 VAL A  8       -2.462  -2.704  -2.500  0.00  0.00    +0.009 C 
ATOM    116  CG1 VAL A  8       -3.861  -3.411  -4.474  0.00  0.00    +0.009 C 
ENDBRANCH  27 114
BRANCH  34 117
ATOM    117  CB  VAL A 10       -2.776  -7.076   2.471  0.00  0.00    +0.012 C 
ATOM    118  CG2 VAL A 10       -2.833  -7.118   3.978  0.00  0.00    +0.009 C 
ATOM    119  CG1 VAL A 10       -1.829  -8.185   2.017  0.00  0.00    +0.009 C 
ENDBRANCH  34 117
BRANCH  11 120
ATOM    120  CB  THR A 13       -2.501   2.547   4.844  0.00  0.00    +0.141 C 
ATOM    121  CG2 THR A 13       -3.381   3.659   4.252  0.00  0.00    +0.040 C 
BRANCH 120 122
ATOM    122  OG1 THR A 13       -2.656   2.718   6.236  0.00  0.00    -0.390 OA
ATOM    123  HG1 THR A 13       -3.498   2.316   6.533  0.00  0.00    +0.210 HD
ENDBRANCH 120 122
ENDBRANCH  11 120
BRANCH  49 124
ATOM    124  CB  LEU A  6        0.245   0.734  -6.266  0.00  0.00    +0.034 C 
BRANCH 124 125
ATOM    125  CG  LEU A  6       -0.323   2.055  -6.620  0.00  0.00    -0.015 C 
ATOM    126  CD2 LEU A  6       -0.319   3.058  -5.510  0.00  0.00    +0.007 C 
ATOM    127  CD1 LEU A  6       -1.693   2.031  -7.243  0.00  0.00    +0.007 C 
ENDBRANCH 124 125
ENDBRANCH  49 124
BRANCH  53 128
ATOM    128  CB  GLU A  5        3.625  -1.433  -3.565  0.00  0.00    +0.043 C 
BRANCH 128 129
ATOM    129  CG  GLU A  5        3.971  -1.796  -4.997  0.00  0.00    +0.123 C 
BRANCH 129 130
ATOM    130  CD  GLU A  5        4.086  -0.642  -5.892  0.00  0.00    +0.305 C 
ATOM    131  OE2 GLU A  5        3.971   0.527  -5.484  0.00  0.00    -0.251 OA
BRANCH 130 132
ATOM    132  OE1 GLU A  5        4.330  -0.861  -7.236  0.00  0.00    -0.481 OA
ATOM    133  HE1 GLU A  5        3.622  -0.680  -7.965  0.00  0.00    +0.295 HD
ENDBRANCH 130 132
ENDBRANCH 129 130
ENDBRANCH 128 129
ENDBRANCH  53 128
BRANCH  31 134
ATOM    134  CB  ASN A  9       -5.665  -5.969  -1.085  0.00  0.00    +0.127 C 
BRANCH 134 135
ATOM    135  CG  ASN A  9       -7.061  -5.609  -0.768  0.00  0.00    +0.213 C 
ATOM    136  ND2 ASN A  9       -7.470  -4.844   0.325  0.00  0.00    -0.329 N 
ATOM    137 HD21 ASN A  9       -7.244  -5.148   1.290  0.00  0.00    +0.145 HD
ATOM    138 HD22 ASN A  9       -8.001  -3.968   0.191  0.00  0.00    +0.145 HD
ATOM    139  OD1 ASN A  9       -7.948  -6.046  -1.567  0.00  0.00    -0.276 OA
ENDBRANCH 134 135
ENDBRANCH  31 134
TORSDOF 34
