REMARK  Name = molecules/NSQSAUGJQHDYNO-UHFFFAOYSA-N.pdb
REMARK                            x       y       z     vdW  Elec       q    Type
REMARK                         _______ _______ _______ _____ _____    ______ ____
ROOT
ATOM      1  C   LIG    1       -0.904   0.275   0.183  0.00  0.00    -0.015 A 
ATOM      2  C   LIG    1       -0.688   1.635   0.337  0.00  0.00    +0.032 A 
ATOM      3  C   LIG    1        0.569   2.199   0.223  0.00  0.00    +0.034 A 
ATOM      4  C   LIG    1        1.643   1.413  -0.049  0.00  0.00    -0.017 A 
ATOM      5  C   LIG    1        2.961   2.060  -0.181  0.00  0.00    +0.046 C 
ATOM      6  C   LIG    1        1.474   0.037  -0.205  0.00  0.00    +0.042 A 
ATOM      7  C   LIG    1        0.186  -0.496  -0.085  0.00  0.00    +0.022 A 
ENDROOT
BRANCH   1  11
ATOM      8  C   LIG    1       -5.034  -0.883   0.532  0.00  0.00    -0.033 A 
ATOM      9  C   LIG    1       -4.034  -1.712   0.970  0.00  0.00    +0.005 A 
ATOM     10  C   LIG    1       -2.685  -1.381   0.844  0.00  0.00    +0.009 A 
ATOM     11  C   LIG    1       -2.284  -0.220   0.283  0.00  0.00    -0.018 A 
ATOM     12  C   LIG    1       -3.301   0.648  -0.176  0.00  0.00    +0.009 A 
ATOM     13  C   LIG    1       -4.626   0.321  -0.053  0.00  0.00    +0.005 A 
BRANCH   8  14
ATOM     14  C   LIG    1       -6.461  -1.178   0.696  0.00  0.00    +0.119 C 
BRANCH  14  19
ATOM     15  C   LIG    1       -7.876  -4.014  -1.138  0.00  0.00    +0.175 C 
ATOM     16  O   LIG    1       -7.574  -5.091  -0.303  0.00  0.00    -0.377 OA
ATOM     17  C   LIG    1       -6.768  -4.742   0.770  0.00  0.00    +0.175 C 
ATOM     18  C   LIG    1       -7.212  -3.412   1.300  0.00  0.00    +0.113 C 
ATOM     19  N   LIG    1       -6.946  -2.427   0.324  0.00  0.00    -0.294 NA
ATOM     20  C   LIG    1       -6.834  -2.886  -1.005  0.00  0.00    +0.113 C 
ENDBRANCH  14  19
ENDBRANCH   8  14
ENDBRANCH   1  11
BRANCH   6  21
ATOM     21  C   LIG    1        2.658  -0.821  -0.490  0.00  0.00    +0.245 C 
ATOM     22  O   LIG    1        3.744  -0.253  -0.370  0.00  0.00    -0.270 OA
ATOM     23  N   LIG    1        2.502  -2.142  -0.852  0.00  0.00    -0.307 N 
ATOM     24  H   LIG    1        1.428  -2.471  -0.924  0.00  0.00    +0.149 HD
BRANCH  23  25
ATOM     25  C   LIG    1        3.367  -3.200  -1.183  0.00  0.00    +0.145 C 
BRANCH  25  26
ATOM     26  C   LIG    1        4.632  -3.378  -0.539  0.00  0.00    +0.037 A 
ATOM     27  C   LIG    1        4.803  -4.532   0.274  0.00  0.00    +0.254 A 
ATOM     28  N   LIG    1        5.975  -4.896   0.777  0.00  0.00    -0.326 N 
ATOM     29  H   LIG    1        6.029  -5.757   1.371  0.00  0.00    +0.169 HD
ATOM     30  C   LIG    1        7.101  -4.209   0.558  0.00  0.00    +0.016 A 
ATOM     31  C   LIG    1        8.417  -4.658   1.150  0.00  0.00    +0.063 C 
ATOM     32  C   LIG    1        7.035  -3.079  -0.223  0.00  0.00    +0.024 A 
ATOM     33  O   LIG    1        3.742  -5.215   0.496  0.00  0.00    -0.268 OA
ATOM     34  C   LIG    1        5.788  -2.695  -0.754  0.00  0.00    -0.039 A 
ATOM     35  C   LIG    1        5.871  -1.593  -1.752  0.00  0.00    +0.044 C 
ENDBRANCH  25  26
ENDBRANCH  23  25
ENDBRANCH   6  21
BRANCH   3  36
ATOM     36  N   LIG    1        0.632   3.613   0.409  0.00  0.00    -0.327 N 
BRANCH  36  37
ATOM     37  C   LIG    1        0.634   4.500  -0.727  0.00  0.00    +0.078 C 
ATOM     38  C   LIG    1        1.485   5.714  -0.641  0.00  0.00    +0.050 C 
ATOM     39  C   LIG    1        0.686   6.909  -0.116  0.00  0.00    +0.161 C 
ATOM     40  O   LIG    1       -0.196   7.343  -1.111  0.00  0.00    -0.380 OA
ATOM     41  C   LIG    1       -0.726   6.245  -1.797  0.00  0.00    +0.161 C 
ATOM     42  C   LIG    1       -0.822   5.062  -0.874  0.00  0.00    +0.050 C 
ENDBRANCH  36  37
BRANCH  36  43
ATOM     43  C   LIG    1        0.603   4.048   1.786  0.00  0.00    +0.102 C 
ATOM     44  C   LIG    1        1.804   4.729   2.314  0.00  0.00    +0.024 C 
ENDBRANCH  36  43
ENDBRANCH   3  36
TORSDOF 9
