REMARK  Name = molecules/NSYTUNFHWYMMHU-IYRCEVNGSA-N.pdb
REMARK                            x       y       z     vdW  Elec       q    Type
REMARK                         _______ _______ _______ _____ _____    ______ ____
ROOT
ATOM      1  C   LIG    1       -2.248   0.512   1.595  0.00  0.00    +0.012 C 
ATOM      2  C   LIG    1       -1.892   0.156   0.146  0.00  0.00    -0.022 C 
ATOM      3  C   LIG    1       -0.457   0.338  -0.119  0.00  0.00    -0.001 C 
ATOM      4  C   LIG    1        0.154   1.440   0.707  0.00  0.00    +0.005 C 
ATOM      5  C   LIG    1        1.588   1.703   0.356  0.00  0.00    +0.010 C 
ATOM      6  C   LIG    1        2.379   0.445   0.449  0.00  0.00    -0.000 C 
ATOM      7  C   LIG    1        2.482  -0.123   1.832  0.00  0.00    +0.014 C 
ATOM      8  C   LIG    1        3.759   0.530  -0.132  0.00  0.00    +0.069 C 
ATOM      9  C   LIG    1        3.985  -0.762  -0.910  0.00  0.00    +0.035 C 
ATOM     10  C   LIG    1        2.723  -1.592  -0.654  0.00  0.00    +0.007 C 
ATOM     11  C   LIG    1        3.948   1.740  -1.015  0.00  0.00    +0.042 C 
ATOM     12  C   LIG    1        1.714  -0.538  -0.525  0.00  0.00    +0.001 C 
ATOM     13  C   LIG    1        0.395  -0.894   0.040  0.00  0.00    -0.004 C 
ATOM     14  C   LIG    1       -0.237  -2.122  -0.562  0.00  0.00    +0.004 C 
ATOM     15  C   LIG    1       -1.556  -2.336   0.191  0.00  0.00    +0.005 C 
ATOM     16  C   LIG    1       -2.453  -1.187  -0.211  0.00  0.00    +0.001 C 
ATOM     17  C   LIG    1       -3.844  -1.339   0.313  0.00  0.00    +0.063 C 
ATOM     18  C   LIG    1       -4.683  -0.276  -0.280  0.00  0.00    +0.087 A 
ATOM     19  N   LIG    1       -5.989  -0.161  -0.493  0.00  0.00    -0.083 NA
ATOM     20  O   LIG    1       -6.253   0.997  -1.058  0.00  0.00    -0.362 OA
ATOM     21  C   LIG    1       -5.128   1.676  -1.233  0.00  0.00    +0.234 A 
ATOM     22  C   LIG    1       -4.095   0.874  -0.737  0.00  0.00    +0.015 A 
ATOM     23  C   LIG    1       -2.660   1.182  -0.702  0.00  0.00    +0.047 C 
ENDROOT
BRANCH   8  24
ATOM     24  O   LIG    1        4.736   0.571   0.861  0.00  0.00    -0.388 OA
ATOM     25  H   LIG    1        5.553   0.063   0.560  0.00  0.00    +0.210 HD
ENDBRANCH   8  24
TORSDOF 1
