REMARK  Name = molecules/NSYZCCDSJNWWJL-YXOIYICCSA-N.pdb
REMARK                            x       y       z     vdW  Elec       q    Type
REMARK                         _______ _______ _______ _____ _____    ______ ____
ROOT
ATOM      1  C   LIG    1        0.106  -0.592  -1.356  0.00  0.00    +0.158 C 
ATOM      2  C   LIG    1       -0.628  -0.404  -0.087  0.00  0.00    +0.047 C 
ATOM      3  C   LIG    1        0.332  -0.166   1.051  0.00  0.00    +0.013 C 
ATOM      4  C   LIG    1       -1.659   0.774  -0.190  0.00  0.00    +0.140 C 
ATOM      5  C   LIG    1       -3.012   0.198   0.240  0.00  0.00    +0.124 C 
ATOM      6  C   LIG    1       -3.343   0.700   1.663  0.00  0.00    +0.022 C 
ATOM      7  C   LIG    1       -4.118   0.560  -0.675  0.00  0.00    +0.313 C 
ATOM      8  O   LIG    1       -4.384   1.788  -0.758  0.00  0.00    -0.250 OA
ATOM      9  O   LIG    1       -4.830  -0.327  -1.400  0.00  0.00    -0.458 OA
ATOM     10  C   LIG    1       -5.724  -1.337  -1.145  0.00  0.00    +0.210 C 
ATOM     11  C   LIG    1       -5.486  -2.459  -2.112  0.00  0.00    +0.126 C 
ATOM     12  C   LIG    1       -4.612  -3.567  -1.654  0.00  0.00    +0.159 C 
ATOM     13  C   LIG    1       -3.810  -4.273  -2.711  0.00  0.00    +0.084 C 
ATOM     14  C   LIG    1       -2.552  -3.663  -3.132  0.00  0.00    +0.142 C 
ATOM     15  C   LIG    1       -1.214  -3.807  -2.564  0.00  0.00    +0.055 C 
ATOM     16  C   LIG    1       -1.119  -4.356  -1.171  0.00  0.00    +0.015 C 
ATOM     17  C   LIG    1       -0.274  -2.680  -2.744  0.00  0.00    +0.048 C 
ATOM     18  O   LIG    1       -2.633  -2.918  -4.119  0.00  0.00    -0.297 OA
ATOM     19  C   LIG    1       -4.684  -4.649  -3.915  0.00  0.00    +0.018 C 
ATOM     20  C   LIG    1       -6.855  -2.978  -2.579  0.00  0.00    +0.048 C 
ATOM     21  C   LIG    1       -0.726  -1.300  -2.452  0.00  0.00    +0.090 C 
ATOM     22  C   LIG    1       -0.499  -0.437  -3.712  0.00  0.00    +0.044 C 
ENDROOT
BRANCH  21  23
ATOM     23  O   LIG    1       -2.060  -1.275  -2.215  0.00  0.00    -0.386 OA
ATOM     24  H   LIG    1       -2.528  -0.614  -2.792  0.00  0.00    +0.210 HD
ENDBRANCH  21  23
BRANCH  11  25
ATOM     25  O   LIG    1       -4.933  -1.859  -3.267  0.00  0.00    -0.383 OA
ATOM     26  H   LIG    1       -5.595  -1.231  -3.613  0.00  0.00    +0.210 HD
ENDBRANCH  11  25
BRANCH  12  27
ATOM     27  O   LIG    1       -3.762  -3.264  -0.616  0.00  0.00    -0.388 OA
ATOM     28  H   LIG    1       -3.743  -3.897   0.118  0.00  0.00    +0.210 HD
ENDBRANCH  12  27
BRANCH  10  29
ATOM     29  C   LIG    1       -5.897  -1.704   0.282  0.00  0.00    +0.044 C 
ATOM     30  C   LIG    1       -6.882  -2.783   0.574  0.00  0.00    +0.007 C 
ENDBRANCH  10  29
BRANCH   4  31
ATOM     31  O   LIG    1       -1.301   1.714   0.579  0.00  0.00    -0.347 OA
BRANCH  31  32
ATOM     32  C   LIG    1       -0.878   2.901   0.728  0.00  0.00    +0.254 C 
ATOM     33  C   LIG    1       -1.830   3.931   1.332  0.00  0.00    +0.098 C 
ATOM     34  C   LIG    1       -0.999   5.230   1.484  0.00  0.00    +0.099 C 
ATOM     35  C   LIG    1        0.057   5.008   2.563  0.00  0.00    +0.175 C 
ATOM     36  C   LIG    1        0.290   3.522   2.614  0.00  0.00    +0.149 C 
ATOM     37  C   LIG    1        1.533   3.146   3.380  0.00  0.00    +0.041 C 
ATOM     38  C   LIG    1       -0.411   5.545   0.148  0.00  0.00    +0.044 C 
ATOM     39  O   LIG    1        0.411   3.062   1.320  0.00  0.00    -0.346 OA
BRANCH  34  40
ATOM     40  O   LIG    1       -1.814   6.248   1.927  0.00  0.00    -0.374 OA
ATOM     41  C   LIG    1       -1.128   7.426   2.054  0.00  0.00    +0.194 C 
ENDBRANCH  34  40
BRANCH  35  42
ATOM     42  O   LIG    1       -0.388   5.405   3.822  0.00  0.00    -0.386 OA
ATOM     43  H   LIG    1       -0.493   4.661   4.461  0.00  0.00    +0.210 HD
ENDBRANCH  35  42
ENDBRANCH  31  32
ENDBRANCH   4  31
BRANCH   1  44
ATOM     44  O   LIG    1        1.190  -1.416  -1.195  0.00  0.00    -0.341 OA
BRANCH  44  51
ATOM     45  C   LIG    1        3.408  -0.881  -0.529  0.00  0.00    +0.249 C 
ATOM     46  C   LIG    1        4.557  -1.861  -0.860  0.00  0.00    +0.104 C 
ATOM     47  C   LIG    1        3.804  -3.033  -1.518  0.00  0.00    +0.054 C 
ATOM     48  C   LIG    1        3.480  -2.483  -2.895  0.00  0.00    +0.120 C 
ATOM     49  O   LIG    1        2.783  -1.324  -2.850  0.00  0.00    -0.345 OA
ATOM     50  C   LIG    1        2.962  -3.575  -3.758  0.00  0.00    +0.038 C 
ATOM     51  C   LIG    1        2.394  -0.851  -1.592  0.00  0.00    +0.293 C 
BRANCH  46  52
ATOM     52  N   LIG    1        5.234  -2.356   0.269  0.00  0.00    -0.302 NA
ATOM     53  C   LIG    1        4.526  -3.167   1.188  0.00  0.00    +0.105 C 
ATOM     54  C   LIG    1        6.557  -2.874   0.052  0.00  0.00    +0.105 C 
ENDBRANCH  46  52
BRANCH  45  55
ATOM     55  O   LIG    1        4.009   0.390  -0.226  0.00  0.00    -0.455 OA
BRANCH  55  56
ATOM     56  C   LIG    1        4.204   0.836   1.069  0.00  0.00    +0.308 C 
ATOM     57  O   LIG    1        3.815   0.039   1.985  0.00  0.00    -0.251 OA
BRANCH  56  58
ATOM     58  C   LIG    1        4.828   2.150   1.408  0.00  0.00    +0.132 C 
BRANCH  58  59
ATOM     59  C   LIG    1        5.184   2.083   2.872  0.00  0.00    +0.132 C 
BRANCH  59  60
ATOM     60  C   LIG    1        5.791   3.321   3.400  0.00  0.00    +0.308 C 
ATOM     61  O   LIG    1        5.849   4.340   2.684  0.00  0.00    -0.251 OA
BRANCH  60  62
ATOM     62  O   LIG    1        6.303   3.375   4.686  0.00  0.00    -0.465 OA
BRANCH  62  63
ATOM     63  C   LIG    1        6.890   4.528   5.254  0.00  0.00    +0.229 C 
ATOM     64  C   LIG    1        5.861   5.655   5.356  0.00  0.00    +0.048 C 
ENDBRANCH  62  63
ENDBRANCH  60  62
ENDBRANCH  59  60
ENDBRANCH  58  59
ENDBRANCH  56  58
ENDBRANCH  55  56
ENDBRANCH  45  55
ENDBRANCH  44  51
ENDBRANCH   1  44
TORSDOF 18
