REMARK  Name = molecules/NTHPAPBPFQJABD-LLVKDONJSA-N.pdb
REMARK                            x       y       z     vdW  Elec       q    Type
REMARK                         _______ _______ _______ _____ _____    ______ ____
ROOT
ATOM      1  C   LIG    1        0.206   0.318  -1.074  0.00  0.00    +0.169 C 
ATOM      2  O   LIG    1        0.212   0.867  -2.214  0.00  0.00    -0.292 OA
ENDROOT
BRANCH   1   3
ATOM      3  C   LIG    1       -1.072   0.253  -0.376  0.00  0.00    +0.043 A 
ATOM      4  C   LIG    1       -1.335  -0.334   0.844  0.00  0.00    +0.098 A 
ATOM      5  N   LIG    1       -2.635  -0.201   1.169  0.00  0.00    -0.349 N 
ATOM      6  C   LIG    1       -3.294  -0.693   2.385  0.00  0.00    +0.149 C 
ATOM      7  C   LIG    1       -3.236   0.471   0.171  0.00  0.00    +0.050 A 
ATOM      8  C   LIG    1       -4.560   0.869   0.007  0.00  0.00    +0.026 A 
ATOM      9  C   LIG    1       -4.930   1.553  -1.117  0.00  0.00    +0.002 A 
ATOM     10  C   LIG    1       -4.005   1.851  -2.085  0.00  0.00    +0.001 A 
ATOM     11  C   LIG    1       -2.683   1.449  -1.913  0.00  0.00    +0.011 A 
ATOM     12  C   LIG    1       -2.300   0.766  -0.798  0.00  0.00    +0.010 A 
ENDBRANCH   1   3
BRANCH   1  13
ATOM     13  C   LIG    1        1.410  -0.238  -0.455  0.00  0.00    +0.066 C 
ATOM     14  C   LIG    1        1.782   0.506   0.836  0.00  0.00    +0.018 C 
ATOM     15  C   LIG    1        2.562  -0.519   1.651  0.00  0.00    +0.058 C 
ATOM     16  C   LIG    1        3.705  -0.936   0.796  0.00  0.00    +0.062 A 
ATOM     17  N   LIG    1        4.853  -1.537   1.157  0.00  0.00    -0.241 NA
ATOM     18  C   LIG    1        5.626  -1.746   0.091  0.00  0.00    +0.196 A 
ATOM     19  N   LIG    1        4.947  -1.264  -0.961  0.00  0.00    -0.348 N 
ATOM     20  H   LIG    1        5.338  -1.304  -1.935  0.00  0.00    +0.166 HD
ATOM     21  C   LIG    1        3.756  -0.756  -0.563  0.00  0.00    +0.039 A 
ATOM     22  C   LIG    1        2.637  -0.107  -1.337  0.00  0.00    +0.066 C 
ENDBRANCH   1  13
TORSDOF 2
