REMARK  Name = molecules/NTJOBXMMWNYJFB-LBPRGKRZSA-N.pdb
REMARK                            x       y       z     vdW  Elec       q    Type
REMARK                         _______ _______ _______ _____ _____    ______ ____
ROOT
ATOM      1  C   LIG    1        1.533  -0.170   0.150  0.00  0.00    +0.080 A 
ATOM      2  C   LIG    1        2.827   0.371   0.113  0.00  0.00    +0.045 A 
ATOM      3  C   LIG    1        3.890  -0.465  -0.070  0.00  0.00    +0.110 A 
ATOM      4  C   LIG    1        3.742  -1.834  -0.221  0.00  0.00    +0.053 A 
ATOM      5  C   LIG    1        2.473  -2.319  -0.178  0.00  0.00    +0.071 A 
ATOM      6  C   LIG    1        1.345  -1.516   0.005  0.00  0.00    +0.134 A 
ENDROOT
BRANCH   1   7
ATOM      7  C   LIG    1        0.444   0.764   0.345  0.00  0.00    +0.248 C 
ATOM      8  O   LIG    1        0.771   2.014   0.469  0.00  0.00    -0.270 OA
ATOM      9  N   LIG    1       -0.917   0.425   0.410  0.00  0.00    -0.310 N 
ATOM     10  H   LIG    1       -1.276  -0.518   0.325  0.00  0.00    +0.149 HD
BRANCH   9  11
ATOM     11  C   LIG    1       -1.899   1.480   0.612  0.00  0.00    +0.123 C 
BRANCH  11  12
ATOM     12  C   LIG    1       -3.309   0.950   0.657  0.00  0.00    +0.074 C 
ATOM     13  C   LIG    1       -3.497  -0.008   1.824  0.00  0.00    +0.022 C 
ATOM     14  C   LIG    1       -4.657  -0.841   1.313  0.00  0.00    +0.017 C 
ATOM     15  C   LIG    1       -4.188  -1.061  -0.133  0.00  0.00    +0.085 C 
ATOM     16  N   LIG    1       -3.725   0.276  -0.522  0.00  0.00    -0.298 NA
BRANCH  16  17
ATOM     17  C   LIG    1       -4.843   0.896  -1.195  0.00  0.00    +0.081 C 
ATOM     18  C   LIG    1       -4.534   2.220  -1.806  0.00  0.00    +0.020 C 
ENDBRANCH  16  17
ENDBRANCH  11  12
ENDBRANCH   9  11
ENDBRANCH   1   7
BRANCH   3  19
ATOM     19  S   LIG    1        5.505   0.222  -0.097  0.00  0.00    -0.002 S 
ATOM     20  O   LIG    1        6.322  -0.395   0.982  0.00  0.00    -0.169 OA
ATOM     21  O   LIG    1        6.104  -0.149  -1.436  0.00  0.00    -0.169 OA
BRANCH  19  22
ATOM     22  C   LIG    1        5.400   1.970   0.024  0.00  0.00    +0.168 C 
ATOM     23  C   LIG    1        4.645   2.570  -1.125  0.00  0.00    +0.028 C 
ENDBRANCH  19  22
ENDBRANCH   3  19
BRANCH   4  24
ATOM     24  N   LIG    1        4.895  -2.630  -0.406  0.00  0.00    -0.356 N 
ATOM     25  H   LIG    1        5.577  -2.711   0.379  0.00  0.00    +0.142 HD
ATOM     26  H   LIG    1        5.127  -3.153  -1.278  0.00  0.00    +0.142 HD
ENDBRANCH   4  24
BRANCH   6  27
ATOM     27  O   LIG    1        0.097  -2.088   0.036  0.00  0.00    -0.494 OA
ATOM     28  C   LIG    1       -0.165  -3.448  -0.105  0.00  0.00    +0.277 C 
ENDBRANCH   6  27
TORSDOF 8
