REMARK  Name = molecules/NTYJJOPFIAHURM-UHFFFAOYSA-N.pdb
REMARK                            x       y       z     vdW  Elec       q    Type
REMARK                         _______ _______ _______ _____ _____    ______ ____
ROOT
ATOM      1  C   LIG    1        0.678   0.295   0.301  0.00  0.00    +0.037 A 
ATOM      2  N   LIG    1        1.219  -0.902   0.580  0.00  0.00    -0.348 N 
ATOM      3  H   LIG    1        0.743  -1.611   1.162  0.00  0.00    +0.166 HD
ATOM      4  C   LIG    1        2.430  -1.032   0.009  0.00  0.00    +0.196 A 
ATOM      5  N   LIG    1        2.676   0.108  -0.655  0.00  0.00    -0.244 NA
ATOM      6  C   LIG    1        1.619   0.935  -0.491  0.00  0.00    +0.133 A 
ENDROOT
BRANCH   1   7
ATOM      7  C   LIG    1       -0.631   0.866   0.717  0.00  0.00    +0.069 C 
BRANCH   7   8
ATOM      8  C   LIG    1       -1.716   0.519  -0.311  0.00  0.00    +0.084 C 
BRANCH   8   9
ATOM      9  N   LIG    1       -1.888  -0.860  -0.461  0.00  0.00    -0.330 NA
ATOM     10  H   LIG    1       -2.502  -1.361   0.169  0.00  0.00    +0.118 HD
ATOM     11  H   LIG    1       -1.654  -1.292  -1.356  0.00  0.00    +0.118 HD
ENDBRANCH   8   9
ENDBRANCH   7   8
ENDBRANCH   1   7
TORSDOF 3
