REMARK  Name = molecules/NULMGOSOSZBEQL-QMMMGPOBSA-N.pdb
REMARK                            x       y       z     vdW  Elec       q    Type
REMARK                         _______ _______ _______ _____ _____    ______ ____
ROOT
ATOM      1  C   LIG    1        0.143  -1.265  -1.302  0.00  0.00    +0.065 C 
ENDROOT
BRANCH   1   2
ATOM      2  C   LIG    1        1.154  -0.306  -0.813  0.00  0.00    -0.042 A 
ATOM      3  C   LIG    1        2.433  -0.707  -0.432  0.00  0.00    +0.053 A 
ATOM      4  C   LIG    1        3.341   0.228   0.015  0.00  0.00    +0.158 A 
ATOM      5  C   LIG    1        3.045   1.572   0.108  0.00  0.00    +0.158 A 
ATOM      6  C   LIG    1        1.782   1.978  -0.267  0.00  0.00    +0.049 A 
ATOM      7  C   LIG    1        0.861   1.039  -0.719  0.00  0.00    +0.007 A 
BRANCH   4   8
ATOM      8  O   LIG    1        4.617  -0.185   0.394  0.00  0.00    -0.503 OA
ATOM      9  H   LIG    1        4.915  -1.140   0.357  0.00  0.00    +0.292 HD
ENDBRANCH   4   8
BRANCH   5  10
ATOM     10  O   LIG    1        3.950   2.525   0.558  0.00  0.00    -0.503 OA
ATOM     11  H   LIG    1        4.885   2.311   0.848  0.00  0.00    +0.292 HD
ENDBRANCH   5  10
ENDBRANCH   1   2
BRANCH   1  12
ATOM     12  C   LIG    1       -0.711  -1.860  -0.204  0.00  0.00    +0.165 C 
BRANCH  12  13
ATOM     13  N   LIG    1       -1.721  -2.674  -0.902  0.00  0.00    -0.318 NA
ATOM     14  H   LIG    1       -1.401  -3.637  -1.062  0.00  0.00    +0.119 HD
ATOM     15  H   LIG    1       -1.988  -2.144  -1.749  0.00  0.00    +0.119 HD
ENDBRANCH  12  13
BRANCH  12  16
ATOM     16  C   LIG    1       -1.462  -0.825   0.540  0.00  0.00    +0.324 C 
ATOM     17  O   LIG    1       -0.885   0.045   1.271  0.00  0.00    -0.249 OA
BRANCH  16  18
ATOM     18  O   LIG    1       -2.858  -0.716   0.504  0.00  0.00    -0.464 OA
BRANCH  18  19
ATOM     19  C   LIG    1       -3.544   0.288   1.229  0.00  0.00    +0.229 C 
ATOM     20  C   LIG    1       -3.149   1.670   0.835  0.00  0.00    +0.048 C 
ENDBRANCH  18  19
ENDBRANCH  16  18
ENDBRANCH  12  16
ENDBRANCH   1  12
TORSDOF 8
