REMARK  Name = molecules/NUVBSKCKDOMJSU-UHFFFAOYSA-N.pdb
REMARK                            x       y       z     vdW  Elec       q    Type
REMARK                         _______ _______ _______ _____ _____    ______ ____
ROOT
ATOM      1  C   LIG    1       -1.674  -1.353  -0.368  0.00  0.00    +0.018 A 
ATOM      2  C   LIG    1       -0.680  -0.422  -0.223  0.00  0.00    +0.059 A 
ATOM      3  C   LIG    1       -1.006   0.935  -0.300  0.00  0.00    +0.018 A 
ATOM      4  C   LIG    1       -2.331   1.304  -0.522  0.00  0.00    +0.046 A 
ATOM      5  C   LIG    1       -3.342   0.369  -0.670  0.00  0.00    +0.117 A 
ATOM      6  C   LIG    1       -2.967  -0.956  -0.586  0.00  0.00    +0.046 A 
ENDROOT
BRANCH   2   7
ATOM      7  C   LIG    1        0.699  -0.842   0.008  0.00  0.00    +0.339 C 
ATOM      8  O   LIG    1        1.000  -2.059   0.079  0.00  0.00    -0.245 OA
BRANCH   7   9
ATOM      9  O   LIG    1        1.739   0.065   0.162  0.00  0.00    -0.461 OA
BRANCH   9  10
ATOM     10  C   LIG    1        3.080  -0.370   0.387  0.00  0.00    +0.229 C 
ATOM     11  C   LIG    1        4.036   0.759   0.523  0.00  0.00    +0.048 C 
ENDBRANCH   9  10
ENDBRANCH   7   9
ENDBRANCH   2   7
BRANCH   5  12
ATOM     12  O   LIG    1       -4.653   0.713  -0.889  0.00  0.00    -0.507 OA
ATOM     13  H   LIG    1       -5.338   0.872  -0.153  0.00  0.00    +0.292 HD
ENDBRANCH   5  12
TORSDOF 4
