REMARK  Name = molecules/NVKAWKQGWWIWPM-ABEVXSGRSA-N.pdb
REMARK                            x       y       z     vdW  Elec       q    Type
REMARK                         _______ _______ _______ _____ _____    ______ ____
ROOT
ATOM      1  C   LIG    1        1.749  -0.228   1.346  0.00  0.00    +0.012 C 
ATOM      2  C   LIG    1        1.715  -0.337  -0.164  0.00  0.00    -0.025 C 
ATOM      3  C   LIG    1        2.442  -1.601  -0.538  0.00  0.00    +0.015 C 
ATOM      4  C   LIG    1        3.920  -1.512  -0.358  0.00  0.00    +0.075 C 
ATOM      5  C   LIG    1        4.492  -0.230  -0.791  0.00  0.00    +0.134 C 
ATOM      6  C   LIG    1        3.804   1.032  -0.426  0.00  0.00    +0.078 C 
ATOM      7  O   LIG    1        5.520  -0.229  -1.441  0.00  0.00    -0.297 OA
ATOM      8  C   LIG    1        0.301  -0.383  -0.701  0.00  0.00    -0.001 C 
ATOM      9  C   LIG    1       -0.439   0.734   0.011  0.00  0.00    -0.004 C 
ATOM     10  C   LIG    1       -1.861   0.638  -0.384  0.00  0.00    +0.001 C 
ATOM     11  C   LIG    1       -2.403  -0.661   0.219  0.00  0.00    -0.003 C 
ATOM     12  C   LIG    1       -2.099  -0.800   1.669  0.00  0.00    +0.014 C 
ATOM     13  C   LIG    1       -3.880  -0.475   0.014  0.00  0.00    +0.121 C 
ATOM     14  C   LIG    1       -4.132   1.012  -0.128  0.00  0.00    +0.032 C 
ATOM     15  C   LIG    1       -1.800  -1.758  -0.585  0.00  0.00    +0.010 C 
ATOM     16  C   LIG    1       -2.788   1.639   0.188  0.00  0.00    +0.007 C 
ATOM     17  C   LIG    1        0.151   2.051  -0.417  0.00  0.00    +0.004 C 
ATOM     18  C   LIG    1        1.629   2.121  -0.377  0.00  0.00    +0.005 C 
ATOM     19  C   LIG    1       -0.317  -1.725  -0.512  0.00  0.00    +0.005 C 
ATOM     20  C   LIG    1        2.352   0.889  -0.778  0.00  0.00    +0.002 C 
ENDROOT
BRANCH  13  21
ATOM     21  O   LIG    1       -4.583  -0.901   1.139  0.00  0.00    -0.391 OA
ATOM     22  H   LIG    1       -4.652  -0.143   1.804  0.00  0.00    +0.210 HD
ENDBRANCH  13  21
TORSDOF 1
