REMARK  Name = molecules/NVOYVOBDTVTBDX-ZVDAJOARSA-N.pdb
REMARK                            x       y       z     vdW  Elec       q    Type
REMARK                         _______ _______ _______ _____ _____    ______ ____
ROOT
ATOM      1  O   LIG    1        0.501  -0.121  -0.224  0.00  0.00    -0.461 OA
ENDROOT
BRANCH   1   6
ATOM      2  N   LIG    1       -3.389  -0.258   0.012  0.00  0.00    +0.385 N 
ATOM      3  C   LIG    1       -3.649   0.826   0.931  0.00  0.00    -0.091 C 
ATOM      4  C   LIG    1       -2.473  -1.237   0.556  0.00  0.00    -0.030 C 
ATOM      5  C   LIG    1       -1.321  -0.548   1.262  0.00  0.00    +0.032 C 
ATOM      6  C   LIG    1       -0.650   0.461   0.398  0.00  0.00    +0.174 C 
ATOM      7  C   LIG    1       -1.541   1.112  -0.612  0.00  0.00    +0.032 C 
ATOM      8  C   LIG    1       -1.848  -1.936  -0.640  0.00  0.00    +0.133 C 
ATOM      9  O   LIG    1       -2.590  -2.191  -1.758  0.00  0.00    -0.372 OA
ATOM     10  C   LIG    1       -2.007  -0.958  -1.784  0.00  0.00    +0.133 C 
ATOM     11  C   LIG    1       -2.642   0.232  -1.118  0.00  0.00    -0.030 C 
BRANCH   2  12
ATOM     12  C   LIG    1       -4.657  -0.834  -0.337  0.00  0.00    -0.078 C 
ATOM     13  C   LIG    1       -5.803   0.153  -0.236  0.00  0.00    -0.016 C 
ENDBRANCH   2  12
ENDBRANCH   1   6
BRANCH   1  14
ATOM     14  C   LIG    1        1.789   0.345   0.049  0.00  0.00    +0.317 C 
ATOM     15  O   LIG    1        1.838   1.313   0.883  0.00  0.00    -0.250 OA
BRANCH  14  16
ATOM     16  C   LIG    1        3.000  -0.222  -0.567  0.00  0.00    +0.153 C 
BRANCH  16  17
ATOM     17  C   LIG    1        4.170   0.524  -0.039  0.00  0.00    -0.032 A 
ATOM     18  C   LIG    1        4.409   0.628   1.310  0.00  0.00    +0.004 A 
ATOM     19  C   LIG    1        5.508   1.329   1.796  0.00  0.00    +0.000 A 
ATOM     20  C   LIG    1        6.377   1.934   0.913  0.00  0.00    +0.000 A 
ATOM     21  C   LIG    1        6.155   1.842  -0.452  0.00  0.00    +0.000 A 
ATOM     22  C   LIG    1        5.048   1.134  -0.906  0.00  0.00    +0.004 A 
ENDBRANCH  16  17
BRANCH  16  23
ATOM     23  C   LIG    1        3.197  -1.679  -0.187  0.00  0.00    +0.175 C 
BRANCH  23  24
ATOM     24  O   LIG    1        2.092  -2.426  -0.618  0.00  0.00    -0.394 OA
ATOM     25  H   LIG    1        2.355  -3.257  -1.051  0.00  0.00    +0.209 HD
ENDBRANCH  23  24
ENDBRANCH  16  23
ENDBRANCH  14  16
ENDBRANCH   1  14
TORSDOF 7
