REMARK  Name = molecules/NWPRCRWQMGIBOT-UHFFFAOYSA-N.pdb
REMARK                            x       y       z     vdW  Elec       q    Type
REMARK                         _______ _______ _______ _____ _____    ______ ____
ROOT
ATOM      1  N   LIG    1        1.412  -0.424   0.822  0.00  0.00    -0.322 N 
ATOM      2  C   LIG    1        1.239  -1.525   1.590  0.00  0.00    +0.202 A 
ATOM      3  N   LIG    1       -0.057  -1.880   1.617  0.00  0.00    -0.218 NA
ATOM      4  C   LIG    1       -0.748  -0.994   0.851  0.00  0.00    +0.168 A 
ATOM      5  N   LIG    1       -2.054  -0.883   0.539  0.00  0.00    -0.280 N 
ATOM      6  C   LIG    1       -3.014  -1.844   1.066  0.00  0.00    +0.155 C 
ATOM      7  C   LIG    1       -2.435   0.137  -0.269  0.00  0.00    +0.333 A 
ATOM      8  O   LIG    1       -3.677   0.191  -0.529  0.00  0.00    -0.246 OA
ATOM      9  N   LIG    1       -1.589   1.030  -0.766  0.00  0.00    -0.262 N 
ATOM     10  C   LIG    1       -0.285   0.915  -0.451  0.00  0.00    +0.282 A 
ATOM     11  O   LIG    1        0.582   1.729  -0.888  0.00  0.00    -0.265 OA
ATOM     12  C   LIG    1       -2.022   2.111  -1.628  0.00  0.00    +0.157 C 
ATOM     13  C   LIG    1        0.189  -0.102   0.371  0.00  0.00    +0.152 A 
ENDROOT
BRANCH   1  14
ATOM     14  C   LIG    1        2.608   0.298   0.512  0.00  0.00    +0.151 C 
BRANCH  14  15
ATOM     15  C   LIG    1        3.312  -0.190  -0.722  0.00  0.00    +0.177 C 
BRANCH  15  16
ATOM     16  O   LIG    1        4.453   0.587  -0.914  0.00  0.00    -0.393 OA
ATOM     17  H   LIG    1        4.189   1.546  -0.822  0.00  0.00    +0.209 HD
ENDBRANCH  15  16
ENDBRANCH  14  15
ENDBRANCH   1  14
TORSDOF 3
