REMARK  Name = molecules/NWVVVBRKAWDGAB-UHFFFAOYSA-N.pdb
REMARK                            x       y       z     vdW  Elec       q    Type
REMARK                         _______ _______ _______ _____ _____    ______ ____
ROOT
ATOM      1  C   LIG    1        0.314   1.489   0.365  0.00  0.00    +0.049 A 
ATOM      2  C   LIG    1       -0.620   0.484   0.211  0.00  0.00    +0.120 A 
ATOM      3  C   LIG    1       -0.157  -0.774  -0.114  0.00  0.00    +0.049 A 
ATOM      4  C   LIG    1        1.185  -1.047  -0.285  0.00  0.00    +0.049 A 
ATOM      5  C   LIG    1        2.096  -0.023  -0.124  0.00  0.00    +0.117 A 
ATOM      6  C   LIG    1        1.676   1.250   0.201  0.00  0.00    +0.049 A 
ENDROOT
BRANCH   2   7
ATOM      7  O   LIG    1       -1.972   0.748   0.380  0.00  0.00    -0.495 OA
ATOM      8  C   LIG    1       -2.980  -0.203   0.243  0.00  0.00    +0.277 C 
ENDBRANCH   2   7
BRANCH   5   9
ATOM      9  O   LIG    1        3.461  -0.235  -0.282  0.00  0.00    -0.507 OA
ATOM     10  H   LIG    1        3.834  -1.135  -0.518  0.00  0.00    +0.292 HD
ENDBRANCH   5   9
TORSDOF 2
