REMARK  Name = molecules/NXFFJDQHYLNEJK-CYBMUJFWSA-N.pdb
REMARK                            x       y       z     vdW  Elec       q    Type
REMARK                         _______ _______ _______ _____ _____    ______ ____
ROOT
ATOM      1  N   LIG    1        0.266   0.682  -0.393  0.00  0.00    -0.337 N 
ATOM      2  C   LIG    1        0.043   1.789   0.299  0.00  0.00    +0.075 A 
ATOM      3  C   LIG    1        0.887   2.693   0.910  0.00  0.00    +0.115 A 
ATOM      4  C   LIG    1        0.277   3.762   1.588  0.00  0.00    +0.067 A 
ATOM      5  C   LIG    1       -1.076   3.958   1.672  0.00  0.00    +0.126 A 
ATOM      6  F   LIG    1       -1.577   5.035   2.359  0.00  0.00    -0.205 F 
ATOM      7  C   LIG    1       -1.880   3.047   1.051  0.00  0.00    +0.048 A 
ATOM      8  C   LIG    1       -1.349   1.970   0.369  0.00  0.00    +0.008 A 
ATOM      9  C   LIG    1       -1.954   0.940  -0.313  0.00  0.00    -0.018 A 
ATOM     10  C   LIG    1       -3.246   0.361  -0.756  0.00  0.00    +0.038 C 
ATOM     11  C   LIG    1       -2.851  -0.461  -1.994  0.00  0.00    +0.015 C 
ATOM     12  C   LIG    1       -1.524  -1.004  -1.522  0.00  0.00    +0.047 C 
ATOM     13  C   LIG    1       -0.944   0.157  -0.774  0.00  0.00    +0.027 A 
ENDROOT
BRANCH   3  14
ATOM     14  S   LIG    1        2.586   2.617   0.710  0.00  0.00    -0.004 S 
ATOM     15  O   LIG    1        3.120   3.845   1.491  0.00  0.00    -0.170 OA
ATOM     16  O   LIG    1        3.345   1.558   1.382  0.00  0.00    -0.170 OA
ATOM     17  C   LIG    1        3.136   3.015  -0.937  0.00  0.00    +0.200 C 
ENDBRANCH   3  14
BRANCH   1  18
ATOM     18  C   LIG    1        1.491   0.001  -0.635  0.00  0.00    +0.157 C 
BRANCH  18  19
ATOM     19  C   LIG    1        1.667  -1.147   0.351  0.00  0.00    -0.028 A 
ATOM     20  C   LIG    1        1.539  -0.982   1.704  0.00  0.00    +0.007 A 
ATOM     21  C   LIG    1        1.735  -2.051   2.543  0.00  0.00    +0.020 A 
ATOM     22  C   LIG    1        2.062  -3.313   2.084  0.00  0.00    +0.041 A 
ATOM     23 CL   LIG    1        2.301  -4.645   3.220  0.00  0.00    -0.084 Cl
ATOM     24  C   LIG    1        2.193  -3.493   0.727  0.00  0.00    +0.020 A 
ATOM     25  C   LIG    1        1.994  -2.415  -0.099  0.00  0.00    +0.007 A 
ENDBRANCH  18  19
ENDBRANCH   1  18
BRANCH  12  26
ATOM     26  C   LIG    1       -1.803  -2.185  -0.610  0.00  0.00    +0.130 C 
BRANCH  26  27
ATOM     27  C   LIG    1       -2.359  -3.285  -1.437  0.00  0.00    +0.305 C 
ATOM     28  O   LIG    1       -2.520  -3.217  -2.679  0.00  0.00    -0.251 OA
BRANCH  27  29
ATOM     29  O   LIG    1       -2.750  -4.506  -0.855  0.00  0.00    -0.481 OA
ATOM     30  H   LIG    1       -3.521  -4.549  -0.231  0.00  0.00    +0.295 HD
ENDBRANCH  27  29
ENDBRANCH  26  27
ENDBRANCH  12  26
TORSDOF 6
