REMARK  Name = molecules/NXWGWUVGUSFQJC-LBPRGKRZSA-N.pdb
REMARK                            x       y       z     vdW  Elec       q    Type
REMARK                         _______ _______ _______ _____ _____    ______ ____
ROOT
ATOM      1  O   LIG    1       -0.948   0.064  -0.321  0.00  0.00    -0.489 OA
ENDROOT
BRANCH   1   2
ATOM      2  C   LIG    1       -1.968  -0.699   0.246  0.00  0.00    +0.130 A 
ATOM      3  C   LIG    1       -1.705  -1.835   0.995  0.00  0.00    +0.046 A 
ATOM      4  C   LIG    1       -2.716  -2.587   1.555  0.00  0.00    +0.006 A 
ATOM      5  C   LIG    1       -4.038  -2.238   1.392  0.00  0.00    +0.026 A 
ATOM      6  C   LIG    1       -4.316  -1.110   0.650  0.00  0.00    +0.050 A 
ATOM      7  N   LIG    1       -5.489  -0.532   0.326  0.00  0.00    -0.358 N 
ATOM      8  H   LIG    1       -6.421  -0.890   0.617  0.00  0.00    +0.166 HD
ATOM      9  C   LIG    1       -5.231   0.566  -0.425  0.00  0.00    +0.014 A 
ATOM     10  C   LIG    1       -3.875   0.715  -0.599  0.00  0.00    +0.034 A 
ATOM     11  C   LIG    1       -6.298   1.449  -0.959  0.00  0.00    +0.063 C 
ATOM     12  C   LIG    1       -3.302  -0.356   0.089  0.00  0.00    +0.042 A 
ENDBRANCH   1   2
BRANCH   1  13
ATOM     13  C   LIG    1        0.374  -0.350  -0.113  0.00  0.00    +0.261 C 
BRANCH  13  14
ATOM     14  C   LIG    1        1.361   0.572  -0.786  0.00  0.00    +0.166 C 
BRANCH  14  15
ATOM     15  O   LIG    1        1.161   1.855  -0.224  0.00  0.00    -0.387 OA
ATOM     16  H   LIG    1        0.711   1.784   0.639  0.00  0.00    +0.210 HD
ENDBRANCH  14  15
BRANCH  14  17
ATOM     17  C   LIG    1        2.780   0.161  -0.398  0.00  0.00    +0.115 C 
BRANCH  17  18
ATOM     18  N   LIG    1        3.697   1.124  -0.936  0.00  0.00    -0.311 NA
ATOM     19  H   LIG    1        3.459   2.066  -0.546  0.00  0.00    +0.122 HD
BRANCH  18  20
ATOM     20  C   LIG    1        5.068   0.864  -0.644  0.00  0.00    +0.048 C 
ATOM     21  C   LIG    1        5.381   0.956   0.835  0.00  0.00    +0.023 C 
ATOM     22  C   LIG    1        5.604  -0.409  -1.203  0.00  0.00    +0.023 C 
ENDBRANCH  18  20
ENDBRANCH  17  18
ENDBRANCH  14  17
ENDBRANCH  13  14
ENDBRANCH   1  13
TORSDOF 7
