REMARK  Name = molecules/NYGHGTMKALXFIA-UHFFFAOYSA-N.pdb
REMARK                            x       y       z     vdW  Elec       q    Type
REMARK                         _______ _______ _______ _____ _____    ______ ____
ROOT
ATOM      1  N   LIG    1        1.281  -0.278   0.361  0.00  0.00    -0.290 NA
ATOM      2  C   LIG    1        1.259   1.117   0.232  0.00  0.00    +0.120 C 
ATOM      3  C   LIG    1       -0.116   1.676   0.194  0.00  0.00    -0.026 A 
ATOM      4  C   LIG    1       -0.072   3.081   0.210  0.00  0.00    +0.005 A 
ATOM      5  C   LIG    1       -1.214   3.826   0.138  0.00  0.00    +0.000 A 
ATOM      6  C   LIG    1       -2.421   3.185   0.048  0.00  0.00    +0.001 A 
ATOM      7  C   LIG    1       -2.540   1.807   0.028  0.00  0.00    +0.009 A 
ATOM      8  C   LIG    1       -1.380   1.080   0.103  0.00  0.00    -0.013 A 
ATOM      9  C   LIG    1       -1.628  -0.344   0.089  0.00  0.00    -0.013 A 
ATOM     10  C   LIG    1       -2.874  -0.656   0.536  0.00  0.00    +0.009 A 
ATOM     11  C   LIG    1       -3.219  -2.018   0.513  0.00  0.00    +0.001 A 
ATOM     12  C   LIG    1       -2.351  -2.978   0.069  0.00  0.00    +0.000 A 
ATOM     13  C   LIG    1       -1.076  -2.609  -0.379  0.00  0.00    +0.005 A 
ATOM     14  C   LIG    1       -0.735  -1.320  -0.362  0.00  0.00    -0.026 A 
ATOM     15  C   LIG    1        0.699  -1.034  -0.765  0.00  0.00    +0.120 C 
ENDROOT
BRANCH   1  16
ATOM     16  C   LIG    1        2.554  -0.769   0.744  0.00  0.00    +0.111 C 
BRANCH  16  17
ATOM     17  C   LIG    1        3.626  -0.638  -0.282  0.00  0.00    -0.019 C 
ATOM     18  C   LIG    1        4.244  -1.727  -0.747  0.00  0.00    +0.005 C 
ENDBRANCH  16  17
ENDBRANCH   1  16
TORSDOF 2
