REMARK  Name = molecules/NZASCBIBXNPDMH-UHFFFAOYSA-N.pdb
REMARK                            x       y       z     vdW  Elec       q    Type
REMARK                         _______ _______ _______ _____ _____    ______ ____
ROOT
ATOM      1  C   LIG    1       -0.406   0.189  -0.052  0.00  0.00    +0.109 C 
ATOM      2  C   LIG    1        0.343  -0.082   1.201  0.00  0.00    +0.172 C 
ATOM      3  O   LIG    1       -0.221   0.297   2.281  0.00  0.00    -0.292 OA
ATOM      4  C   LIG    1        1.637  -0.739   1.201  0.00  0.00    +0.062 C 
ATOM      5  C   LIG    1        2.273  -0.961   0.066  0.00  0.00    +0.078 C 
ATOM      6  N   LIG    1        1.702  -0.561  -1.176  0.00  0.00    -0.291 N 
ATOM      7  H   LIG    1        2.266  -0.771  -2.037  0.00  0.00    +0.154 HD
ATOM      8  C   LIG    1        0.441   0.086  -1.253  0.00  0.00    +0.230 C 
ATOM      9  O   LIG    1        0.079   0.552  -2.342  0.00  0.00    -0.274 OA
ENDROOT
BRANCH   1  10
ATOM     10  C   LIG    1       -1.025   1.579   0.074  0.00  0.00    +0.021 C 
ATOM     11  C   LIG    1        0.036   2.652   0.111  0.00  0.00    +0.005 C 
ENDBRANCH   1  10
BRANCH   1  12
ATOM     12  C   LIG    1       -1.571  -0.780  -0.077  0.00  0.00    +0.021 C 
ATOM     13  C   LIG    1       -1.091  -2.202  -0.200  0.00  0.00    +0.005 C 
ENDBRANCH   1  12
TORSDOF 2
