REMARK  Name = molecules/NZDASSHFKWDBBU-PDOICOKGSA-N.pdb
REMARK                            x       y       z     vdW  Elec       q    Type
REMARK                         _______ _______ _______ _____ _____    ______ ____
ROOT
ATOM      1  N   LIG    1        0.051   0.118   1.714  0.00  0.00    -0.301 N 
ATOM      2  C   LIG    1       -1.163   0.364   2.387  0.00  0.00    +0.232 C 
ATOM      3  O   LIG    1       -1.158   0.196   3.661  0.00  0.00    -0.275 OA
ATOM      4  H   LIG    1        0.097   0.210   0.683  0.00  0.00    +0.150 HD
ENDROOT
BRANCH   1   9
ATOM      5  CA  LIG    1        3.880  -0.757   0.317  0.00  0.00    +0.201 C 
ATOM      6  N   LIG    1        3.027  -0.224   1.337  0.00  0.00    -0.271 N 
ATOM      7  C   LIG    1        2.395   0.642   2.254  0.00  0.00    +0.240 C 
ATOM      8  O   LIG    1        2.578   1.762   2.817  0.00  0.00    -0.273 OA
ATOM      9  CA  LIG    1        1.208  -0.285   2.432  0.00  0.00    +0.190 C 
ATOM     10  C   LIG    1        2.137  -1.278   1.841  0.00  0.00    +0.165 C 
ATOM     11  S   LIG    1        1.633  -2.006   0.234  0.00  0.00    -0.127 S 
ATOM     12  C   LIG    1        2.976  -1.283  -0.781  0.00  0.00    +0.042 C 
ATOM     13  C   LIG    1        2.492  -0.113  -1.599  0.00  0.00    +0.025 C 
ATOM     14  C   LIG    1        3.608  -2.273  -1.680  0.00  0.00    +0.025 C 
BRANCH   5  15
ATOM     15  C   LIG    1        4.771  -1.763   0.885  0.00  0.00    +0.327 C 
ATOM     16  O   LIG    1        5.573  -2.336   0.071  0.00  0.00    -0.249 OA
BRANCH  15  17
ATOM     17  OXT LIG    1        4.847  -2.162   2.187  0.00  0.00    -0.479 OA
ATOM     18  HXT LIG    1        5.073  -1.635   2.993  0.00  0.00    +0.295 HD
ENDBRANCH  15  17
ENDBRANCH   5  15
ENDBRANCH   1   9
BRANCH   2  19
ATOM     19  C   LIG    1       -2.429   0.790   1.776  0.00  0.00    +0.213 C 
BRANCH  19  20
ATOM     20  C   LIG    1       -2.502   2.206   1.359  0.00  0.00    -0.025 A 
ATOM     21  C   LIG    1       -3.716   2.856   1.416  0.00  0.00    +0.005 A 
ATOM     22  C   LIG    1       -3.829   4.173   1.055  0.00  0.00    +0.000 A 
ATOM     23  C   LIG    1       -2.727   4.860   0.630  0.00  0.00    +0.000 A 
ATOM     24  C   LIG    1       -1.518   4.220   0.572  0.00  0.00    +0.000 A 
ATOM     25  C   LIG    1       -1.392   2.870   0.940  0.00  0.00    +0.005 A 
ENDBRANCH  19  20
BRANCH  19  26
ATOM     26  C   LIG    1       -2.778  -0.083   0.604  0.00  0.00    +0.329 C 
ATOM     27  O   LIG    1       -3.757  -0.869   0.606  0.00  0.00    -0.249 OA
BRANCH  26  28
ATOM     28  O   LIG    1       -2.005  -0.041  -0.540  0.00  0.00    -0.425 OA
BRANCH  28  29
ATOM     29  C   LIG    1       -2.268  -0.820  -1.663  0.00  0.00    +0.132 A 
ATOM     30  C   LIG    1       -1.722  -2.080  -1.677  0.00  0.00    +0.046 A 
ATOM     31  C   LIG    1       -1.941  -2.894  -2.747  0.00  0.00    +0.004 A 
ATOM     32  C   LIG    1       -2.702  -2.483  -3.823  0.00  0.00    +0.000 A 
ATOM     33  C   LIG    1       -3.246  -1.219  -3.801  0.00  0.00    +0.004 A 
ATOM     34  C   LIG    1       -3.024  -0.392  -2.713  0.00  0.00    +0.046 A 
ENDBRANCH  28  29
ENDBRANCH  26  28
ENDBRANCH  19  26
ENDBRANCH   2  19
TORSDOF 8
