REMARK  Name = molecules/NZHMAQSCHUSSSJ-UHFFFAOYSA-N.pdb
REMARK                            x       y       z     vdW  Elec       q    Type
REMARK                         _______ _______ _______ _____ _____    ______ ____
ROOT
ATOM      1  C   LIG    1        1.749   0.750   0.553  0.00  0.00    +0.023 A 
ATOM      2  C   LIG    1        0.864   0.934   1.593  0.00  0.00    +0.015 A 
ATOM      3  C   LIG    1       -0.408   1.498   1.398  0.00  0.00    +0.046 A 
ATOM      4  C   LIG    1       -0.784   1.876   0.143  0.00  0.00    +0.121 A 
ATOM      5  C   LIG    1        0.120   1.685  -0.904  0.00  0.00    +0.046 A 
ATOM      6  C   LIG    1        1.352   1.138  -0.705  0.00  0.00    +0.015 A 
ENDROOT
BRANCH   1   7
ATOM      7  C   LIG    1        3.075   0.160   0.754  0.00  0.00    +0.194 C 
ATOM      8  O   LIG    1        3.222  -0.591   1.726  0.00  0.00    -0.287 OA
BRANCH   7   9
ATOM      9  C   LIG    1        4.122   0.492  -0.191  0.00  0.00    +0.036 A 
ATOM     10  C   LIG    1        4.370   1.855  -0.437  0.00  0.00    +0.012 A 
ATOM     11  C   LIG    1        5.364   2.254  -1.286  0.00  0.00    +0.001 A 
ATOM     12  C   LIG    1        6.117   1.273  -1.894  0.00  0.00    +0.001 A 
ATOM     13  C   LIG    1        5.880  -0.070  -1.658  0.00  0.00    +0.016 A 
ATOM     14  C   LIG    1        4.861  -0.482  -0.788  0.00  0.00    +0.070 A 
BRANCH  14  15
ATOM     15  C   LIG    1        4.616  -1.889  -0.594  0.00  0.00    +0.340 C 
ATOM     16  O   LIG    1        5.400  -2.711  -1.198  0.00  0.00    -0.245 OA
BRANCH  15  17
ATOM     17  O   LIG    1        3.647  -2.487   0.154  0.00  0.00    -0.464 OA
ATOM     18  C   LIG    1        3.503  -3.908   0.268  0.00  0.00    +0.280 C 
ENDBRANCH  15  17
ENDBRANCH  14  15
ENDBRANCH   7   9
ENDBRANCH   1   7
BRANCH   4  19
ATOM     19  O   LIG    1       -1.974   2.421  -0.158  0.00  0.00    -0.491 OA
BRANCH  19  20
ATOM     20  C   LIG    1       -3.083   2.729   0.579  0.00  0.00    +0.244 C 
BRANCH  20  21
ATOM     21  C   LIG    1       -3.811   1.585   1.209  0.00  0.00    +0.125 C 
BRANCH  21  22
ATOM     22  N   LIG    1       -4.337   0.614   0.284  0.00  0.00    -0.299 NA
ATOM     23  C   LIG    1       -5.341  -0.181   0.915  0.00  0.00    +0.084 C 
ATOM     24  C   LIG    1       -4.904  -1.548   1.338  0.00  0.00    +0.015 C 
ATOM     25  C   LIG    1       -4.213  -2.301   0.252  0.00  0.00    +0.002 C 
ATOM     26  C   LIG    1       -3.792  -1.442  -0.923  0.00  0.00    +0.015 C 
ATOM     27  C   LIG    1       -3.292  -0.117  -0.343  0.00  0.00    +0.084 C 
ENDBRANCH  21  22
ENDBRANCH  20  21
ENDBRANCH  19  20
ENDBRANCH   4  19
TORSDOF 8
