REMARK  Name = molecules/OATDVDIMNNZTEY-DAXLTYESSA-N.pdb
REMARK                            x       y       z     vdW  Elec       q    Type
REMARK                         _______ _______ _______ _____ _____    ______ ____
ROOT
ATOM      1  C   LIG    1       -2.773   0.597  -1.078  0.00  0.00    +0.213 C 
ENDROOT
BRANCH   1   2
ATOM      2  C   LIG    1       -3.175   1.481   0.049  0.00  0.00    -0.001 A 
ATOM      3  C   LIG    1       -2.234   2.161   0.784  0.00  0.00    +0.007 A 
ATOM      4  C   LIG    1       -2.597   2.993   1.845  0.00  0.00    +0.000 A 
ATOM      5  C   LIG    1       -3.928   3.148   2.180  0.00  0.00    +0.000 A 
ATOM      6  C   LIG    1       -4.870   2.470   1.448  0.00  0.00    +0.000 A 
ATOM      7  C   LIG    1       -4.497   1.653   0.403  0.00  0.00    +0.007 A 
ENDBRANCH   1   2
BRANCH   1   8
ATOM      8  C   LIG    1       -3.287  -0.778  -0.906  0.00  0.00    -0.001 A 
ATOM      9  C   LIG    1       -2.861  -1.538   0.161  0.00  0.00    +0.007 A 
ATOM     10  C   LIG    1       -3.326  -2.841   0.352  0.00  0.00    +0.000 A 
ATOM     11  C   LIG    1       -4.225  -3.399  -0.524  0.00  0.00    +0.000 A 
ATOM     12  C   LIG    1       -4.658  -2.647  -1.595  0.00  0.00    +0.000 A 
ATOM     13  C   LIG    1       -4.187  -1.349  -1.775  0.00  0.00    +0.007 A 
ENDBRANCH   1   8
BRANCH   1  14
ATOM     14  C   LIG    1       -1.325   0.640  -1.304  0.00  0.00    +0.349 C 
ATOM     15  O   LIG    1       -0.878   1.181  -2.346  0.00  0.00    -0.247 OA
BRANCH  14  16
ATOM     16  O   LIG    1       -0.385   0.111  -0.429  0.00  0.00    -0.459 OA
BRANCH  16  17
ATOM     17  C   LIG    1        1.004   0.179  -0.697  0.00  0.00    +0.174 C 
ATOM     18  C   LIG    1        1.649   0.955   0.413  0.00  0.00    +0.030 C 
ATOM     19  C   LIG    1        2.932   0.391   0.921  0.00  0.00    -0.062 C 
ATOM     20  C   LIG    1        2.546  -0.729   1.901  0.00  0.00    -0.016 C 
ATOM     21  C   LIG    1        2.672  -2.012   1.104  0.00  0.00    -0.016 C 
ATOM     22  C   LIG    1        2.882  -1.469  -0.304  0.00  0.00    -0.062 C 
ATOM     23  N   LIG    1        3.717  -0.329  -0.029  0.00  0.00    +0.384 N 
ATOM     24  C   LIG    1        4.901  -0.836   0.661  0.00  0.00    -0.091 C 
ATOM     25  C   LIG    1        1.565  -1.192  -0.894  0.00  0.00    +0.030 C 
BRANCH  23  26
ATOM     26  C   LIG    1        4.166   0.370  -1.173  0.00  0.00    -0.041 C 
BRANCH  26  27
ATOM     27  C   LIG    1        4.726   1.708  -0.845  0.00  0.00    +0.195 C 
ATOM     28  F   LIG    1        5.146   2.337  -2.027  0.00  0.00    -0.251 F 
ENDBRANCH  26  27
ENDBRANCH  23  26
ENDBRANCH  16  17
ENDBRANCH  14  16
ENDBRANCH   1  14
BRANCH   1  29
ATOM     29  O   LIG    1       -3.400   1.162  -2.213  0.00  0.00    -0.370 OA
ATOM     30  H   LIG    1       -4.392   1.208  -2.081  0.00  0.00    +0.212 HD
ENDBRANCH   1  29
TORSDOF 8
