REMARK  Name = molecules/OBDOVFRMEYHSQB-UHFFFAOYSA-N.pdb
REMARK                            x       y       z     vdW  Elec       q    Type
REMARK                         _______ _______ _______ _____ _____    ______ ____
ROOT
ATOM      1  N   LIG    1       -1.844   0.272   0.477  0.00  0.00    -0.289 NA
ATOM      2  C   LIG    1       -1.137  -0.955   0.636  0.00  0.00    +0.104 C 
ATOM      3  C   LIG    1        0.236  -0.883   1.189  0.00  0.00    +0.123 C 
ATOM      4  N   LIG    1        1.000   0.208   0.644  0.00  0.00    -0.297 N 
ATOM      5  C   LIG    1        0.340   1.458   0.464  0.00  0.00    +0.123 C 
ATOM      6  C   LIG    1       -1.069   1.385   0.013  0.00  0.00    +0.104 C 
ENDROOT
BRANCH   4   7
ATOM      7  C   LIG    1        2.368   0.091   0.280  0.00  0.00    +0.224 A 
ATOM      8  N   LIG    1        3.050  -1.051   0.447  0.00  0.00    -0.181 NA
ATOM      9  C   LIG    1        4.351  -1.125   0.089  0.00  0.00    +0.221 A 
ATOM     10  N   LIG    1        4.974  -0.041  -0.444  0.00  0.00    -0.181 NA
ATOM     11  C   LIG    1        4.302   1.107  -0.616  0.00  0.00    +0.221 A 
ATOM     12  N   LIG    1        3.025   1.135  -0.249  0.00  0.00    -0.181 NA
BRANCH   9  13
ATOM     13  N   LIG    1        5.041  -2.342   0.280  0.00  0.00    -0.310 N 
ATOM     14  H   LIG    1        6.056  -2.376  -0.009  0.00  0.00    +0.149 HD
BRANCH  13  15
ATOM     15  C   LIG    1        4.379  -3.494   0.848  0.00  0.00    +0.131 C 
BRANCH  15  16
ATOM     16  C   LIG    1        5.365  -4.610   0.919  0.00  0.00    -0.016 C 
ATOM     17  C   LIG    1        5.171  -5.742   0.292  0.00  0.00    +0.005 C 
ENDBRANCH  15  16
ENDBRANCH  13  15
ENDBRANCH   9  13
BRANCH  11  18
ATOM     18  N   LIG    1        4.887   2.273  -1.163  0.00  0.00    -0.310 N 
ATOM     19  H   LIG    1        5.887   2.269  -1.457  0.00  0.00    +0.149 HD
BRANCH  18  20
ATOM     20  C   LIG    1        4.145   3.505  -1.341  0.00  0.00    +0.131 C 
BRANCH  20  21
ATOM     21  C   LIG    1        3.633   4.019  -0.043  0.00  0.00    -0.016 C 
ATOM     22  C   LIG    1        3.997   5.217   0.400  0.00  0.00    +0.005 C 
ENDBRANCH  20  21
ENDBRANCH  18  20
ENDBRANCH  11  18
ENDBRANCH   4   7
BRANCH   1  23
ATOM     23  C   LIG    1       -2.950  -0.016  -0.459  0.00  0.00    +0.117 C 
BRANCH  23  24
ATOM     24  C   LIG    1       -3.715  -1.212  -0.091  0.00  0.00    -0.026 A 
ATOM     25  C   LIG    1       -4.154  -1.434   1.198  0.00  0.00    +0.008 A 
ATOM     26  C   LIG    1       -4.877  -2.541   1.592  0.00  0.00    +0.038 A 
ATOM     27  C   LIG    1       -5.191  -3.504   0.642  0.00  0.00    +0.123 A 
ATOM     28  F   LIG    1       -5.897  -4.576   1.048  0.00  0.00    -0.205 F 
ATOM     29  C   LIG    1       -4.769  -3.318  -0.660  0.00  0.00    +0.038 A 
ATOM     30  C   LIG    1       -4.050  -2.200  -1.016  0.00  0.00    +0.008 A 
ENDBRANCH  23  24
BRANCH  23  31
ATOM     31  C   LIG    1       -3.806   1.181  -0.642  0.00  0.00    -0.026 A 
ATOM     32  C   LIG    1       -4.215   1.963   0.418  0.00  0.00    +0.008 A 
ATOM     33  C   LIG    1       -5.017   3.081   0.209  0.00  0.00    +0.038 A 
ATOM     34  C   LIG    1       -5.425   3.438  -1.054  0.00  0.00    +0.123 A 
ATOM     35  F   LIG    1       -6.206   4.523  -1.282  0.00  0.00    -0.205 F 
ATOM     36  C   LIG    1       -5.014   2.655  -2.114  0.00  0.00    +0.038 A 
ATOM     37  C   LIG    1       -4.228   1.559  -1.913  0.00  0.00    +0.008 A 
ENDBRANCH  23  31
ENDBRANCH   1  23
TORSDOF 10
