REMARK  Name = molecules/OBQUKWIVMOIRGG-UHFFFAOYSA-N.pdb
REMARK                            x       y       z     vdW  Elec       q    Type
REMARK                         _______ _______ _______ _____ _____    ______ ____
ROOT
ATOM      1  N   LIG    1       -1.606   1.008  -0.414  0.00  0.00    -0.264 N 
ATOM      2  C   LIG    1       -0.341   1.261   0.133  0.00  0.00    +0.258 C 
ATOM      3  O   LIG    1       -0.210   2.314   0.854  0.00  0.00    -0.272 OA
ENDROOT
BRANCH   1   4
ATOM      4  C   LIG    1       -2.677   1.896  -0.194  0.00  0.00    +0.082 A 
ATOM      5  C   LIG    1       -3.267   1.897   1.067  0.00  0.00    +0.142 A 
ATOM      6  C   LIG    1       -4.323   2.744   1.355  0.00  0.00    +0.051 A 
ATOM      7  C   LIG    1       -4.784   3.597   0.349  0.00  0.00    +0.049 A 
ATOM      8  C   LIG    1       -4.229   3.626  -0.910  0.00  0.00    +0.122 A 
ATOM      9  C   LIG    1       -3.164   2.754  -1.154  0.00  0.00    +0.072 A 
BRANCH   5  10
ATOM     10  O   LIG    1       -2.756   1.028   2.006  0.00  0.00    -0.490 OA
BRANCH  10  11
ATOM     11  C   LIG    1       -3.289   0.961   3.286  0.00  0.00    +0.226 C 
ATOM     12  C   LIG    1       -4.725   0.564   3.376  0.00  0.00    +0.048 C 
ENDBRANCH  10  11
ENDBRANCH   5  10
BRANCH   8  13
ATOM     13  O   LIG    1       -4.679   4.470  -1.918  0.00  0.00    -0.492 OA
BRANCH  13  14
ATOM     14  C   LIG    1       -5.726   5.381  -1.793  0.00  0.00    +0.225 C 
ATOM     15  C   LIG    1       -5.486   6.420  -0.724  0.00  0.00    +0.048 C 
ENDBRANCH  13  14
ENDBRANCH   8  13
ENDBRANCH   1   4
BRANCH   1  16
ATOM     16  C   LIG    1       -1.816  -0.199  -1.209  0.00  0.00    +0.129 C 
BRANCH  16  17
ATOM     17  C   LIG    1       -2.266  -1.342  -0.350  0.00  0.00    +0.103 C 
BRANCH  17  18
ATOM     18  N   LIG    1       -2.456  -2.549  -1.216  0.00  0.00    -0.301 NA
BRANCH  18  19
ATOM     19  C   LIG    1       -3.717  -2.335  -1.939  0.00  0.00    +0.081 C 
ATOM     20  C   LIG    1       -3.906  -3.400  -2.967  0.00  0.00    +0.020 C 
ENDBRANCH  18  19
BRANCH  18  21
ATOM     21  C   LIG    1       -2.654  -3.661  -0.260  0.00  0.00    +0.081 C 
ATOM     22  C   LIG    1       -2.577  -4.965  -0.956  0.00  0.00    +0.020 C 
ENDBRANCH  18  21
ENDBRANCH  17  18
ENDBRANCH  16  17
ENDBRANCH   1  16
BRANCH   2  23
ATOM     23  C   LIG    1        0.861   0.383  -0.074  0.00  0.00    +0.325 C 
BRANCH  23  24
ATOM     24  O   LIG    1        1.971   0.911   0.633  0.00  0.00    -0.483 OA
BRANCH  24  25
ATOM     25  C   LIG    1        3.215   0.310   0.634  0.00  0.00    +0.121 A 
ATOM     26  C   LIG    1        4.267   0.844   1.331  0.00  0.00    +0.049 A 
ATOM     27  C   LIG    1        5.505   0.250   1.335  0.00  0.00    +0.049 A 
ATOM     28  C   LIG    1        5.744  -0.919   0.633  0.00  0.00    +0.121 A 
ATOM     29  C   LIG    1        4.699  -1.478  -0.078  0.00  0.00    +0.049 A 
ATOM     30  C   LIG    1        3.446  -0.870  -0.078  0.00  0.00    +0.049 A 
BRANCH  28  31
ATOM     31  O   LIG    1        7.008  -1.501   0.656  0.00  0.00    -0.492 OA
BRANCH  31  32
ATOM     32  C   LIG    1        8.011  -0.866   1.411  0.00  0.00    +0.229 C 
BRANCH  32  33
ATOM     33  C   LIG    1        9.336  -1.554   1.379  0.00  0.00    +0.041 C 
BRANCH  33  34
ATOM     34  C   LIG    1        9.878  -1.631  -0.007  0.00  0.00    -0.000 C 
ATOM     35  C   LIG    1        8.952  -2.398  -0.911  0.00  0.00    +0.004 C 
ENDBRANCH  33  34
ENDBRANCH  32  33
ENDBRANCH  31  32
ENDBRANCH  28  31
ENDBRANCH  24  25
ENDBRANCH  23  24
ENDBRANCH   2  23
TORSDOF 17
