REMARK  Name = molecules/OBWASQILIWPZMG-QZMOQZSNSA-N.pdb
REMARK                            x       y       z     vdW  Elec       q    Type
REMARK                         _______ _______ _______ _____ _____    ______ ____
ROOT
ATOM      1  C   LIG    1       -2.346  -0.661  -0.659  0.00  0.00    -0.016 A 
ATOM      2  C   LIG    1       -1.294  -1.467  -0.281  0.00  0.00    +0.011 A 
ATOM      3  C   LIG    1       -0.259  -1.814  -1.156  0.00  0.00    -0.024 A 
ATOM      4  C   LIG    1       -0.292  -1.334  -2.435  0.00  0.00    +0.044 A 
ATOM      5  C   LIG    1       -1.343  -0.514  -2.852  0.00  0.00    +0.020 A 
ATOM      6 CL   LIG    1        0.920  -1.695  -3.637  0.00  0.00    -0.083 Cl
ATOM      7  C   LIG    1       -2.344  -0.193  -1.966  0.00  0.00    +0.008 A 
ENDROOT
BRANCH   1  13
ATOM      8  C   LIG    1       -3.335   1.080   0.825  0.00  0.00    +0.179 C 
ATOM      9  C   LIG    1       -4.564   1.918   0.530  0.00  0.00    +0.177 C 
ATOM     10  C   LIG    1       -5.784   1.175   0.999  0.00  0.00    +0.176 C 
ATOM     11  C   LIG    1       -5.609  -0.293   0.766  0.00  0.00    +0.175 C 
ATOM     12  O   LIG    1       -4.703  -0.434  -0.311  0.00  0.00    -0.361 OA
ATOM     13  C   LIG    1       -3.428  -0.310   0.286  0.00  0.00    +0.180 C 
BRANCH   8  14
ATOM     14  O   LIG    1       -3.268   0.983   2.235  0.00  0.00    -0.386 OA
ATOM     15  H   LIG    1       -3.075   0.053   2.515  0.00  0.00    +0.210 HD
ENDBRANCH   8  14
BRANCH  10  16
ATOM     16  O   LIG    1       -5.983   1.492   2.347  0.00  0.00    -0.386 OA
ATOM     17  H   LIG    1       -6.378   2.410   2.351  0.00  0.00    +0.210 HD
ENDBRANCH  10  16
BRANCH   9  18
ATOM     18  O   LIG    1       -4.644   2.312  -0.789  0.00  0.00    -0.386 OA
ATOM     19  H   LIG    1       -5.274   1.772  -1.333  0.00  0.00    +0.210 HD
ENDBRANCH   9  18
BRANCH  11  20
ATOM     20  C   LIG    1       -6.911  -0.957   0.360  0.00  0.00    +0.190 C 
BRANCH  20  21
ATOM     21  O   LIG    1       -7.446  -0.369  -0.772  0.00  0.00    -0.392 OA
ATOM     22  H   LIG    1       -6.735  -0.130  -1.410  0.00  0.00    +0.210 HD
ENDBRANCH  20  21
ENDBRANCH  11  20
ENDBRANCH   1  13
BRANCH   3  23
ATOM     23  C   LIG    1        0.827  -2.668  -0.662  0.00  0.00    +0.071 C 
BRANCH  23  24
ATOM     24  C   LIG    1        2.010  -1.864  -0.351  0.00  0.00    -0.043 A 
ATOM     25  C   LIG    1        2.018  -1.020   0.756  0.00  0.00    +0.007 A 
ATOM     26  C   LIG    1        3.122  -0.258   1.033  0.00  0.00    +0.046 A 
ATOM     27  C   LIG    1        4.271  -0.287   0.238  0.00  0.00    +0.121 A 
ATOM     28  C   LIG    1        4.237  -1.128  -0.847  0.00  0.00    +0.046 A 
ATOM     29  C   LIG    1        3.127  -1.907  -1.143  0.00  0.00    +0.007 A 
BRANCH  27  30
ATOM     30  O   LIG    1        5.358   0.491   0.547  0.00  0.00    -0.486 OA
BRANCH  30  31
ATOM     31  C   LIG    1        6.548   0.554  -0.154  0.00  0.00    +0.201 C 
ATOM     32  C   LIG    1        7.668   0.272   0.864  0.00  0.00    +0.204 C 
ATOM     33  O   LIG    1        7.559   1.384   1.687  0.00  0.00    -0.376 OA
ATOM     34  C   LIG    1        7.370   2.484   0.881  0.00  0.00    +0.163 C 
ATOM     35  C   LIG    1        6.888   2.025  -0.455  0.00  0.00    +0.075 C 
ENDBRANCH  30  31
ENDBRANCH  27  30
ENDBRANCH  23  24
ENDBRANCH   3  23
TORSDOF 10
