REMARK  Name = molecules/OCAPBUJLXMYKEJ-QFIPXVFZSA-N.pdb
REMARK                            x       y       z     vdW  Elec       q    Type
REMARK                         _______ _______ _______ _____ _____    ______ ____
ROOT
ATOM      1  C   LIG    1       -1.963  -0.341  -0.733  0.00  0.00    +0.148 C 
ENDROOT
BRANCH   1   2
ATOM      2  C   LIG    1       -2.761   0.577   0.118  0.00  0.00    -0.020 A 
ATOM      3  C   LIG    1       -2.747   0.527   1.500  0.00  0.00    +0.006 A 
ATOM      4  C   LIG    1       -3.481   1.393   2.274  0.00  0.00    +0.000 A 
ATOM      5  C   LIG    1       -4.275   2.366   1.693  0.00  0.00    +0.000 A 
ATOM      6  C   LIG    1       -4.316   2.450   0.316  0.00  0.00    +0.000 A 
ATOM      7  C   LIG    1       -3.580   1.580  -0.421  0.00  0.00    +0.006 A 
ENDBRANCH   1   2
BRANCH   1   8
ATOM      8  C   LIG    1       -0.517  -0.194  -0.528  0.00  0.00    -0.020 A 
ATOM      9  C   LIG    1        0.198  -0.991   0.351  0.00  0.00    +0.006 A 
ATOM     10  C   LIG    1        1.553  -0.820   0.517  0.00  0.00    +0.009 A 
ATOM     11  C   LIG    1        2.260   0.142  -0.174  0.00  0.00    -0.018 A 
ATOM     12  C   LIG    1        1.552   0.942  -1.054  0.00  0.00    +0.009 A 
ATOM     13  C   LIG    1        0.179   0.769  -1.223  0.00  0.00    +0.006 A 
BRANCH  11  14
ATOM     14  C   LIG    1        3.693   0.315   0.008  0.00  0.00    -0.018 A 
ATOM     15  C   LIG    1        4.293   0.042   1.229  0.00  0.00    +0.008 A 
ATOM     16  C   LIG    1        5.639   0.197   1.423  0.00  0.00    +0.001 A 
ATOM     17  C   LIG    1        6.451   0.633   0.406  0.00  0.00    +0.000 A 
ATOM     18  C   LIG    1        5.889   0.919  -0.834  0.00  0.00    +0.001 A 
ATOM     19  C   LIG    1        4.514   0.753  -1.009  0.00  0.00    +0.008 A 
ENDBRANCH  11  14
ENDBRANCH   1   8
BRANCH   1  20
ATOM     20  N   LIG    1       -2.440  -1.700  -0.760  0.00  0.00    -0.325 N 
ATOM     21  C   LIG    1       -2.688  -2.562   0.244  0.00  0.00    +0.200 A 
ATOM     22  N   LIG    1       -3.128  -3.755  -0.229  0.00  0.00    -0.244 NA
ATOM     23  C   LIG    1       -3.171  -3.679  -1.568  0.00  0.00    +0.130 A 
ATOM     24  C   LIG    1       -2.750  -2.422  -1.881  0.00  0.00    +0.107 A 
ENDBRANCH   1  20
TORSDOF 4
