REMARK  Name = molecules/OCJYIGYOJCODJL-VWLOTQADSA-N.pdb
REMARK                            x       y       z     vdW  Elec       q    Type
REMARK                         _______ _______ _______ _____ _____    ______ ____
ROOT
ATOM      1  C   LIG    1       -2.480   0.931   0.173  0.00  0.00    +0.117 C 
ENDROOT
BRANCH   1   2
ATOM      2  C   LIG    1       -3.402   0.272   1.129  0.00  0.00    -0.026 A 
ATOM      3  C   LIG    1       -4.320   1.014   1.836  0.00  0.00    +0.007 A 
ATOM      4  C   LIG    1       -5.191   0.436   2.726  0.00  0.00    +0.020 A 
ATOM      5  C   LIG    1       -5.188  -0.922   2.956  0.00  0.00    +0.041 A 
ATOM      6 CL   LIG    1       -6.300  -1.620   4.085  0.00  0.00    -0.084 Cl
ATOM      7  C   LIG    1       -4.264  -1.677   2.246  0.00  0.00    +0.020 A 
ATOM      8  C   LIG    1       -3.395  -1.085   1.356  0.00  0.00    +0.007 A 
ENDBRANCH   1   2
BRANCH   1   9
ATOM      9  N   LIG    1       -1.178   0.377   0.322  0.00  0.00    -0.289 NA
ATOM     10  C   LIG    1       -0.656   0.374   1.651  0.00  0.00    +0.100 C 
ATOM     11  C   LIG    1        0.525  -0.542   1.743  0.00  0.00    +0.100 C 
ATOM     12  N   LIG    1        1.437  -0.486   0.667  0.00  0.00    -0.296 NA
ATOM     13  C   LIG    1        0.956  -0.088  -0.593  0.00  0.00    +0.100 C 
ATOM     14  C   LIG    1       -0.173   0.921  -0.548  0.00  0.00    +0.100 C 
BRANCH  12  15
ATOM     15  C   LIG    1        2.724  -0.041   1.062  0.00  0.00    +0.119 C 
BRANCH  15  16
ATOM     16  C   LIG    1        3.846  -0.454   0.223  0.00  0.00    -0.033 A 
ATOM     17  C   LIG    1        5.085   0.085   0.483  0.00  0.00    +0.008 A 
ATOM     18  C   LIG    1        6.220  -0.228  -0.235  0.00  0.00    -0.050 A 
ATOM     19  C   LIG    1        7.558   0.380   0.078  0.00  0.00    +0.044 C 
ATOM     20  C   LIG    1        6.083  -1.137  -1.270  0.00  0.00    +0.003 A 
ATOM     21  C   LIG    1        4.846  -1.692  -1.549  0.00  0.00    +0.001 A 
ATOM     22  C   LIG    1        3.732  -1.355  -0.809  0.00  0.00    +0.005 A 
ENDBRANCH  15  16
ENDBRANCH  12  15
ENDBRANCH   1   9
BRANCH   1  23
ATOM     23  C   LIG    1       -2.908   0.786  -1.247  0.00  0.00    -0.026 A 
ATOM     24  C   LIG    1       -3.547   1.811  -1.921  0.00  0.00    +0.005 A 
ATOM     25  C   LIG    1       -3.919   1.629  -3.233  0.00  0.00    +0.000 A 
ATOM     26  C   LIG    1       -3.688   0.463  -3.929  0.00  0.00    +0.000 A 
ATOM     27  C   LIG    1       -3.054  -0.565  -3.271  0.00  0.00    +0.000 A 
ATOM     28  C   LIG    1       -2.683  -0.378  -1.957  0.00  0.00    +0.005 A 
ENDBRANCH   1  23
TORSDOF 5
