REMARK  Name = molecules/OCOKWVBYZHBHLU-UHFFFAOYSA-N.pdb
REMARK                            x       y       z     vdW  Elec       q    Type
REMARK                         _______ _______ _______ _____ _____    ______ ____
ROOT
ATOM      1  C   LIG    1        0.580   0.204  -0.851  0.00  0.00    +0.101 C 
ENDROOT
BRANCH   1   6
ATOM      2  N   LIG    1        3.534  -0.379   1.026  0.00  0.00    -0.205 N 
ATOM      3  C   LIG    1        2.582   0.591   1.517  0.00  0.00    +0.238 C 
ATOM      4  O   LIG    1        2.255   0.623   2.719  0.00  0.00    -0.274 OA
ATOM      5  C   LIG    1        1.981   1.571   0.580  0.00  0.00    +0.181 C 
ATOM      6  N   LIG    1        1.754   0.998  -0.730  0.00  0.00    -0.284 NA
ATOM      7  C   LIG    1        2.906   0.343  -1.266  0.00  0.00    +0.181 C 
ATOM      8  C   LIG    1        3.429  -0.701  -0.349  0.00  0.00    +0.238 C 
ATOM      9  O   LIG    1        3.775  -1.847  -0.756  0.00  0.00    -0.274 OA
BRANCH   2  10
ATOM     10  C   LIG    1        4.487  -0.995   1.897  0.00  0.00    +0.355 C 
BRANCH  10  11
ATOM     11  O   LIG    1        5.654  -0.251   2.004  0.00  0.00    -0.414 OA
BRANCH  11  12
ATOM     12  C   LIG    1        6.501   0.094   0.978  0.00  0.00    +0.512 C 
ATOM     13  O   LIG    1        6.283  -0.246  -0.195  0.00  0.00    -0.203 OA
BRANCH  12  14
ATOM     14  O   LIG    1        7.646   0.852   1.247  0.00  0.00    -0.433 OA
BRANCH  14  15
ATOM     15  C   LIG    1        8.573   1.264   0.287  0.00  0.00    +0.238 C 
BRANCH  15  16
ATOM     16  C   LIG    1        9.212   0.077  -0.387  0.00  0.00    +0.021 C 
ATOM     17  C   LIG    1        9.924  -0.782   0.645  0.00  0.00    +0.010 C 
ATOM     18  C   LIG    1       10.215   0.543  -1.425  0.00  0.00    +0.010 C 
ENDBRANCH  15  16
ENDBRANCH  14  15
ENDBRANCH  12  14
ENDBRANCH  11  12
ENDBRANCH  10  11
ENDBRANCH   2  10
ENDBRANCH   1   6
BRANCH   1  19
ATOM     19  C   LIG    1       -0.695   1.044  -0.770  0.00  0.00    +0.101 C 
BRANCH  19  20
ATOM     20  N   LIG    1       -1.893   0.257  -0.875  0.00  0.00    -0.284 NA
ATOM     21  C   LIG    1       -2.154  -0.409   0.327  0.00  0.00    +0.181 C 
ATOM     22  C   LIG    1       -3.329  -1.326   0.346  0.00  0.00    +0.238 C 
ATOM     23  O   LIG    1       -3.859  -1.677   1.447  0.00  0.00    -0.274 OA
ATOM     24  N   LIG    1       -3.843  -1.804  -0.878  0.00  0.00    -0.205 N 
ATOM     25  C   LIG    1       -3.006  -1.565  -2.030  0.00  0.00    +0.238 C 
ATOM     26  O   LIG    1       -2.993  -2.377  -2.989  0.00  0.00    -0.274 OA
ATOM     27  C   LIG    1       -2.144  -0.365  -2.111  0.00  0.00    +0.181 C 
BRANCH  24  28
ATOM     28  C   LIG    1       -5.083  -2.524  -0.994  0.00  0.00    +0.355 C 
BRANCH  28  29
ATOM     29  O   LIG    1       -6.216  -1.836  -1.293  0.00  0.00    -0.414 OA
BRANCH  29  30
ATOM     30  C   LIG    1       -6.890  -0.820  -0.653  0.00  0.00    +0.512 C 
ATOM     31  O   LIG    1       -6.388  -0.425   0.424  0.00  0.00    -0.203 OA
BRANCH  30  32
ATOM     32  O   LIG    1       -8.050  -0.274  -1.173  0.00  0.00    -0.433 OA
BRANCH  32  33
ATOM     33  C   LIG    1       -8.813   0.715  -0.637  0.00  0.00    +0.238 C 
BRANCH  33  34
ATOM     34  C   LIG    1       -9.554   0.511   0.624  0.00  0.00    +0.021 C 
ATOM     35  C   LIG    1       -8.808   0.196   1.862  0.00  0.00    +0.010 C 
ATOM     36  C   LIG    1      -10.413   1.779   0.830  0.00  0.00    +0.010 C 
ENDBRANCH  33  34
ENDBRANCH  32  33
ENDBRANCH  30  32
ENDBRANCH  29  30
ENDBRANCH  28  29
ENDBRANCH  24  28
ENDBRANCH  19  20
ENDBRANCH   1  19
TORSDOF 15
