REMARK  Name = molecules/OCSOHUROTFFTFO-QMMMGPOBSA-N.pdb
REMARK                            x       y       z     vdW  Elec       q    Type
REMARK                         _______ _______ _______ _____ _____    ______ ____
ROOT
ATOM      1  C   LIG    1        0.173  -1.468   0.067  0.00  0.00    +0.182 C 
ENDROOT
BRANCH   1   2
ATOM      2  C   LIG    1       -0.923  -0.456   0.078  0.00  0.00    -0.016 A 
ATOM      3  C   LIG    1       -2.010  -0.657   0.909  0.00  0.00    +0.006 A 
ATOM      4  C   LIG    1       -3.011   0.285   0.904  0.00  0.00    +0.000 A 
ATOM      5  C   LIG    1       -2.912   1.385   0.088  0.00  0.00    +0.000 A 
ATOM      6  C   LIG    1       -1.822   1.567  -0.731  0.00  0.00    +0.000 A 
ATOM      7  C   LIG    1       -0.804   0.634  -0.743  0.00  0.00    +0.006 A 
ENDBRANCH   1   2
BRANCH   1   8
ATOM      8  O   LIG    1        0.519  -1.674  -1.243  0.00  0.00    -0.384 OA
ATOM      9  H   LIG    1        0.337  -2.593  -1.541  0.00  0.00    +0.210 HD
ENDBRANCH   1   8
BRANCH   1  10
ATOM     10  C   LIG    1        1.262  -1.070   0.997  0.00  0.00    +0.269 C 
BRANCH  10  11
ATOM     11  O   LIG    1        1.941   0.106   0.731  0.00  0.00    -0.448 OA
BRANCH  11  12
ATOM     12  C   LIG    1        2.709   0.333  -0.380  0.00  0.00    +0.398 C 
ATOM     13  N   LIG    1        3.381   1.570  -0.611  0.00  0.00    -0.295 N 
ATOM     14  H   LIG    1        4.281   1.750  -0.151  0.00  0.00    +0.148 HD
ATOM     15  H   LIG    1        2.956   2.263  -1.231  0.00  0.00    +0.148 HD
ATOM     16  O   LIG    1        2.815  -0.610  -1.229  0.00  0.00    -0.227 OA
ENDBRANCH  11  12
ENDBRANCH  10  11
ENDBRANCH   1  10
TORSDOF 5
