REMARK  Name = molecules/OCUJLLGVOUDECM-CYBMUJFWSA-N.pdb
REMARK                            x       y       z     vdW  Elec       q    Type
REMARK                         _______ _______ _______ _____ _____    ______ ____
ROOT
ATOM      1  C   LIG    1       -0.309   0.294   0.185  0.00  0.00    +0.174 A 
ATOM      2  C   LIG    1        0.935   0.403   0.715  0.00  0.00    +0.174 A 
ATOM      3  C   LIG    1        1.281   1.564   1.349  0.00  0.00    +0.050 A 
ATOM      4  C   LIG    1        0.381   2.631   1.458  0.00  0.00    +0.010 A 
ATOM      5  C   LIG    1       -0.858   2.516   0.927  0.00  0.00    -0.014 A 
ATOM      6  C   LIG    1       -1.207   1.343   0.287  0.00  0.00    +0.056 A 
ENDROOT
BRANCH   1   7
ATOM      7  O   LIG    1       -0.775  -0.850  -0.487  0.00  0.00    -0.422 OA
BRANCH   7   8
ATOM      8  C   LIG    1       -1.419  -1.871   0.225  0.00  0.00    +0.318 C 
ATOM      9  O   LIG    1       -1.532  -1.666   1.466  0.00  0.00    -0.250 OA
BRANCH   8  10
ATOM     10  C   LIG    1       -1.933  -3.093  -0.399  0.00  0.00    +0.060 C 
ATOM     11  C   LIG    1       -2.555  -3.950   0.683  0.00  0.00    +0.022 C 
ATOM     12  C   LIG    1       -0.868  -3.916  -1.073  0.00  0.00    +0.022 C 
ATOM     13  C   LIG    1       -3.024  -2.821  -1.413  0.00  0.00    +0.022 C 
ENDBRANCH   8  10
ENDBRANCH   7   8
ENDBRANCH   1   7
BRANCH   5  14
ATOM     14  C   LIG    1       -1.854   3.603   1.001  0.00  0.00    +0.158 C 
BRANCH  14  15
ATOM     15  O   LIG    1       -2.421   3.818  -0.266  0.00  0.00    -0.386 OA
ATOM     16  H   LIG    1       -3.351   3.455  -0.304  0.00  0.00    +0.210 HD
ENDBRANCH  14  15
BRANCH  14  17
ATOM     17  C   LIG    1       -1.197   4.877   1.448  0.00  0.00    +0.116 C 
BRANCH  17  18
ATOM     18  N   LIG    1       -2.155   5.970   1.519  0.00  0.00    -0.316 NA
ATOM     19  H   LIG    1       -1.801   6.774   2.046  0.00  0.00    +0.122 HD
ATOM     20  C   LIG    1       -2.603   6.328   0.201  0.00  0.00    +0.101 C 
ENDBRANCH  17  18
ENDBRANCH  14  17
ENDBRANCH   5  14
BRANCH   2  21
ATOM     21  O   LIG    1        1.798  -0.680   0.584  0.00  0.00    -0.422 OA
BRANCH  21  22
ATOM     22  C   LIG    1        2.663  -0.751  -0.504  0.00  0.00    +0.318 C 
ATOM     23  O   LIG    1        2.607   0.197  -1.321  0.00  0.00    -0.250 OA
BRANCH  22  24
ATOM     24  C   LIG    1        3.603  -1.869  -0.709  0.00  0.00    +0.060 C 
ATOM     25  C   LIG    1        4.515  -2.109   0.457  0.00  0.00    +0.022 C 
ATOM     26  C   LIG    1        2.792  -3.123  -0.961  0.00  0.00    +0.022 C 
ATOM     27  C   LIG    1        4.402  -1.594  -1.972  0.00  0.00    +0.022 C 
ENDBRANCH  22  24
ENDBRANCH  21  22
ENDBRANCH   2  21
TORSDOF 10
