REMARK  Name = molecules/ODFJOVXVLFUVNQ-UHFFFAOYSA-N.pdb
REMARK                            x       y       z     vdW  Elec       q    Type
REMARK                         _______ _______ _______ _____ _____    ______ ____
ROOT
ATOM      1  C   LIG    1        0.720  -0.509  -0.395  0.00  0.00    +0.076 A 
ATOM      2  C   LIG    1       -0.343   0.236   0.067  0.00  0.00    +0.035 A 
ATOM      3  C   LIG    1       -1.668  -0.195  -0.103  0.00  0.00    -0.016 A 
ATOM      4  C   LIG    1       -1.947  -1.383  -0.741  0.00  0.00    +0.012 A 
ATOM      5  C   LIG    1       -0.899  -2.144  -1.210  0.00  0.00    +0.048 A 
ATOM      6  C   LIG    1        0.399  -1.704  -1.034  0.00  0.00    +0.138 A 
ENDROOT
BRANCH   1   7
ATOM      7  N   LIG    1        2.072  -0.154  -0.268  0.00  0.00    -0.283 N 
ATOM      8  C   LIG    1        2.629   0.984   0.328  0.00  0.00    +0.214 C 
ATOM      9  O   LIG    1        1.917   1.859   0.843  0.00  0.00    -0.276 OA
ATOM     10  C   LIG    1        4.094   1.185   0.364  0.00  0.00    +0.109 C 
ATOM     11  H   LIG    1        2.791  -0.834  -0.677  0.00  0.00    +0.155 HD
ENDBRANCH   1   7
BRANCH   6  12
ATOM     12  O   LIG    1        1.439  -2.479  -1.511  0.00  0.00    -0.505 OA
ATOM     13  H   LIG    1        1.216  -3.344  -1.974  0.00  0.00    +0.292 HD
ENDBRANCH   6  12
TORSDOF 2
REMARK  Name = molecules/ODFJOVXVLFUVNQ-UHFFFAOYSA-N.pdb
REMARK                            x       y       z     vdW  Elec       q    Type
REMARK                         _______ _______ _______ _____ _____    ______ ____
ROOT
ATOM      1 AS   LIG    1       -3.116   0.884   0.561  0.00  0.00    +0.000 As
ATOM      2  O   LIG    1       -4.404   0.671  -0.467  0.00  0.00    +0.000 OA
ENDROOT
BRANCH   1   3
ATOM      3  O   LIG    1       -3.585   0.261   2.232  0.00  0.00    +0.000 OA
ATOM      4  H   LIG    1       -4.492   0.564   2.498  0.00  0.00    +0.000 HD
ENDBRANCH   1   3
BRANCH   1   5
ATOM      5  O   LIG    1       -2.626   2.653   0.633  0.00  0.00    +0.000 OA
ATOM      6  H   LIG    1       -3.383   3.239   0.805  0.00  0.00    +0.000 HD
ENDBRANCH   1   5
TORSDOF 2
