REMARK  Name = molecules/ODKNJVUHOIMIIZ-RRKCRQDMSA-N.pdb
REMARK                            x       y       z     vdW  Elec       q    Type
REMARK                         _______ _______ _______ _____ _____    ______ ____
ROOT
ATOM      1  O   LIG    1        2.275  -2.342  -0.615  0.00  0.00    -0.246 OA
ATOM      2  C   LIG    1        2.417  -1.093  -0.551  0.00  0.00    +0.331 A 
ATOM      3  N   LIG    1        1.367  -0.295  -0.299  0.00  0.00    -0.271 N 
ATOM      4  C   LIG    1        1.581   1.027  -0.243  0.00  0.00    +0.137 A 
ATOM      5  C   LIG    1        2.847   1.580  -0.437  0.00  0.00    +0.204 A 
ATOM      6  F   LIG    1        3.030   2.922  -0.373  0.00  0.00    -0.198 F 
ATOM      7  C   LIG    1        3.883   0.722  -0.690  0.00  0.00    +0.289 A 
ATOM      8  O   LIG    1        5.042   1.197  -0.870  0.00  0.00    -0.265 OA
ATOM      9  N   LIG    1        3.655  -0.604  -0.744  0.00  0.00    -0.273 N 
ATOM     10  H   LIG    1        4.458  -1.233  -0.938  0.00  0.00    +0.174 HD
ENDROOT
BRANCH   3  11
ATOM     11  C1* LIG    1        0.077  -0.873  -0.103  0.00  0.00    +0.226 C 
ATOM     12  C2* LIG    1       -0.288  -0.721   1.360  0.00  0.00    +0.088 C 
ATOM     13  C3* LIG    1       -1.607   0.018   1.284  0.00  0.00    +0.150 C 
ATOM     14  C4* LIG    1       -2.071  -0.457  -0.097  0.00  0.00    +0.175 C 
ATOM     15  O4* LIG    1       -0.927  -0.245  -0.833  0.00  0.00    -0.348 OA
BRANCH  13  16
ATOM     16  O3* LIG    1       -2.485  -0.324   2.279  0.00  0.00    -0.389 OA
ATOM     17  H3* LIG    1       -3.321  -0.737   1.961  0.00  0.00    +0.210 HD
ENDBRANCH  13  16
BRANCH  14  18
ATOM     18  C5* LIG    1       -3.254   0.318  -0.571  0.00  0.00    +0.190 C 
BRANCH  18  19
ATOM     19  O5* LIG    1       -3.013   1.686  -0.523  0.00  0.00    -0.392 OA
ATOM     20  H5* LIG    1       -3.104   2.000   0.405  0.00  0.00    +0.210 HD
ENDBRANCH  18  19
ENDBRANCH  14  18
ENDBRANCH   3  11
TORSDOF 4
