REMARK  Name = molecules/ODKSFYDXXFIFQN-BYPYZUCNSA-N.pdb
REMARK                            x       y       z     vdW  Elec       q    Type
REMARK                         _______ _______ _______ _____ _____    ______ ____
ROOT
ATOM      1  CG  ARG A  1        0.047  -0.157  -1.238  0.00  0.00    +0.039 C 
ENDROOT
BRANCH   1   2
ATOM      2  CB  ARG A  1        1.467  -0.515  -0.916  0.00  0.00    +0.033 C 
BRANCH   2   3
ATOM      3  CA  ARG A  1        2.047   0.384   0.156  0.00  0.00    +0.161 C 
BRANCH   3   4
ATOM      4  N   ARG A  1        2.042   1.770  -0.247  0.00  0.00    -0.318 NA
ATOM      5  H1  ARG A  1        2.919   2.207   0.148  0.00  0.00    +0.119 HD
ATOM      6  H2  ARG A  1        1.236   2.291   0.147  0.00  0.00    +0.119 HD
ENDBRANCH   3   4
BRANCH   3   7
ATOM      7  C   ARG A  1        3.432  -0.049   0.478  0.00  0.00    +0.322 C 
ATOM      8  O   ARG A  1        4.408   0.732   0.388  0.00  0.00    -0.249 OA
BRANCH   7   9
ATOM      9  OXT ARG A  1        3.661  -1.351   0.888  0.00  0.00    -0.480 OA
ATOM     10  HXT ARG A  1        3.509  -2.147   0.280  0.00  0.00    +0.295 HD
ENDBRANCH   7   9
ENDBRANCH   3   7
ENDBRANCH   2   3
ENDBRANCH   1   2
BRANCH   1  11
ATOM     11  CD  ARG A  1       -0.881  -0.264  -0.058  0.00  0.00    +0.196 C 
BRANCH  11  12
ATOM     12  NE  ARG A  1       -2.214   0.100  -0.471  0.00  0.00    -0.276 N 
ATOM     13  HE  ARG A  1       -2.377   0.374  -1.460  0.00  0.00    +0.258 HD
BRANCH  12  14
ATOM     14  CZ  ARG A  1       -3.321   0.104   0.401  0.00  0.00    +0.376 C 
ATOM     15  NH2 ARG A  1       -3.772  -1.102   0.972  0.00  0.00    -0.289 N 
ATOM     16 HH21 ARG A  1       -3.259  -1.597   1.730  0.00  0.00    +0.255 HD
ATOM     17 HH22 ARG A  1       -4.661  -1.532   0.630  0.00  0.00    +0.255 HD
BRANCH  14  18
ATOM     18  NH1 ARG A  1       -3.910   1.204   0.668  0.00  0.00    -0.130 NA
ATOM     19  HH1 ARG A  1       -3.612   2.122   0.269  0.00  0.00    +0.306 HD
ENDBRANCH  14  18
ENDBRANCH  12  14
ENDBRANCH  11  12
ENDBRANCH   1  11
TORSDOF 9
