REMARK  Name = molecules/ODYKCPYPRCJXLY-PZORDLPLSA-N.pdb
REMARK                            x       y       z     vdW  Elec       q    Type
REMARK                         _______ _______ _______ _____ _____    ______ ____
ROOT
ATOM      1  C   LIG    1       -3.679  -1.240   1.179  0.00  0.00    +0.014 C 
ATOM      2  C   LIG    1       -3.897  -0.664  -0.178  0.00  0.00    -0.000 C 
ATOM      3  C   LIG    1       -3.377   0.776  -0.279  0.00  0.00    +0.004 C 
ATOM      4  C   LIG    1       -4.278   1.491   0.647  0.00  0.00    +0.038 C 
ATOM      5  C   LIG    1       -5.603   0.775   0.545  0.00  0.00    +0.144 C 
ATOM      6  C   LIG    1       -1.939   0.740   0.083  0.00  0.00    +0.001 C 
ATOM      7  C   LIG    1       -1.292   2.069   0.290  0.00  0.00    +0.009 C 
ATOM      8  C   LIG    1        0.104   1.849   0.835  0.00  0.00    +0.036 C 
ATOM      9  C   LIG    1        0.826   0.800   0.096  0.00  0.00    -0.040 A 
ATOM     10  C   LIG    1        2.203   0.690   0.323  0.00  0.00    +0.049 A 
ATOM     11  C   LIG    1        2.957  -0.258  -0.320  0.00  0.00    +0.121 A 
ATOM     12  C   LIG    1        2.333  -1.131  -1.221  0.00  0.00    +0.046 A 
ATOM     13  C   LIG    1        0.973  -1.004  -1.430  0.00  0.00    +0.008 A 
ATOM     14  C   LIG    1        0.221  -0.058  -0.788  0.00  0.00    -0.041 A 
ATOM     15  C   LIG    1       -1.223   0.032  -1.048  0.00  0.00    +0.023 C 
ATOM     16  C   LIG    1       -1.786  -1.291  -1.385  0.00  0.00    +0.009 C 
ATOM     17  C   LIG    1       -5.367  -0.427  -0.379  0.00  0.00    +0.149 C 
ATOM     18  C   LIG    1       -3.257  -1.438  -1.289  0.00  0.00    +0.010 C 
ENDROOT
BRANCH   5  19
ATOM     19  O   LIG    1       -6.615   1.564   0.053  0.00  0.00    -0.389 OA
ATOM     20  H   LIG    1       -6.396   2.521   0.281  0.00  0.00    +0.210 HD
ENDBRANCH   5  19
BRANCH  17  21
ATOM     21  O   LIG    1       -6.131  -1.511   0.017  0.00  0.00    -0.389 OA
ATOM     22  H   LIG    1       -6.559  -1.899  -0.776  0.00  0.00    +0.210 HD
ENDBRANCH  17  21
BRANCH  11  23
ATOM     23  O   LIG    1        4.307  -0.441  -0.163  0.00  0.00    -0.489 OA
BRANCH  23  24
ATOM     24  C   LIG    1        5.182   0.264   0.652  0.00  0.00    +0.173 C 
ATOM     25  C   LIG    1        5.980  -0.662   1.544  0.00  0.00    +0.044 C 
ATOM     26  C   LIG    1        7.288  -0.921   0.871  0.00  0.00    +0.004 C 
ATOM     27  C   LIG    1        7.137  -0.340  -0.515  0.00  0.00    +0.004 C 
ATOM     28  C   LIG    1        6.266   0.874  -0.239  0.00  0.00    +0.044 C 
ENDBRANCH  23  24
ENDBRANCH  11  23
TORSDOF 4
