REMARK  Name = molecules/ODZBBRURCPAEIQ-PIXDULNESA-N.pdb
REMARK                            x       y       z     vdW  Elec       q    Type
REMARK                         _______ _______ _______ _____ _____    ______ ____
ROOT
ATOM      1  O   LIG    1        0.404  -2.270   1.883  0.00  0.00    -0.246 OA
ATOM      2  C   LIG    1        1.087  -1.416   1.219  0.00  0.00    +0.331 A 
ATOM      3  N   LIG    1        2.360  -1.712   1.008  0.00  0.00    -0.274 N 
ATOM      4  H   LIG    1        2.833  -2.584   1.345  0.00  0.00    +0.173 HD
ATOM      5  C   LIG    1        3.130  -0.839   0.308  0.00  0.00    +0.261 A 
ATOM      6  O   LIG    1        4.339  -1.142   0.120  0.00  0.00    -0.267 OA
ATOM      7  C   LIG    1        2.605   0.328  -0.175  0.00  0.00    +0.056 A 
ATOM      8  C   LIG    1        1.244   0.558   0.097  0.00  0.00    +0.106 A 
ATOM      9  N   LIG    1        0.505  -0.284   0.772  0.00  0.00    -0.273 N 
ENDROOT
BRANCH   9  10
ATOM     10  C1* LIG    1       -0.888  -0.121   1.090  0.00  0.00    +0.226 C 
ATOM     11  O4* LIG    1       -1.623  -1.207   0.687  0.00  0.00    -0.348 OA
ATOM     12  C4* LIG    1       -2.695  -0.778  -0.054  0.00  0.00    +0.175 C 
ATOM     13  C3* LIG    1       -2.970   0.631   0.438  0.00  0.00    +0.150 C 
ATOM     14  C2* LIG    1       -1.517   1.117   0.580  0.00  0.00    +0.088 C 
BRANCH  13  15
ATOM     15  O3* LIG    1       -3.602   0.598   1.677  0.00  0.00    -0.389 OA
ATOM     16  H3* LIG    1       -3.255  -0.146   2.232  0.00  0.00    +0.210 HD
ENDBRANCH  13  15
BRANCH  12  17
ATOM     17  C5* LIG    1       -2.342  -0.769  -1.522  0.00  0.00    +0.190 C 
BRANCH  17  18
ATOM     18  O5* LIG    1       -3.379  -0.347  -2.323  0.00  0.00    -0.392 OA
ATOM     19  H5* LIG    1       -4.160   0.001  -1.837  0.00  0.00    +0.210 HD
ENDBRANCH  17  18
ENDBRANCH  12  17
ENDBRANCH   9  10
BRANCH   7  20
ATOM     20  C   LIG    1        3.340   1.314  -0.927  0.00  0.00    +0.022 C 
ATOM     21  C   LIG    1        4.594   1.207  -1.235  0.00  0.00    +0.052 C 
ATOM     22 BR   LIG    1        5.449   2.607  -2.247  0.00  0.00    -0.059 Br
ENDBRANCH   7  20
TORSDOF 5
