REMARK  Name = molecules/OEHFRZLKGRKFAS-UHFFFAOYSA-N.pdb
REMARK                            x       y       z     vdW  Elec       q    Type
REMARK                         _______ _______ _______ _____ _____    ______ ____
ROOT
ATOM      1  O   LIG    1        1.622  -1.677  -0.185  0.00  0.00    -0.265 OA
ATOM      2  C   LIG    1        0.976  -0.615  -0.007  0.00  0.00    +0.288 A 
ATOM      3  N   LIG    1        1.679   0.500   0.291  0.00  0.00    -0.194 N 
ATOM      4  C   LIG    1        1.010   1.642   0.485  0.00  0.00    +0.429 A 
ATOM      5  O   LIG    1        1.690   2.667   0.762  0.00  0.00    -0.222 OA
ATOM      6  O   LIG    1       -0.295   1.688   0.391  0.00  0.00    -0.406 OA
ATOM      7  C   LIG    1       -1.054   0.645   0.103  0.00  0.00    +0.170 A 
ATOM      8  C   LIG    1       -2.484   0.831   0.029  0.00  0.00    +0.046 A 
ATOM      9  C   LIG    1       -2.977   2.113   0.268  0.00  0.00    +0.013 A 
ATOM     10  C   LIG    1       -4.315   2.435   0.230  0.00  0.00    +0.001 A 
ATOM     11  C   LIG    1       -5.210   1.431  -0.059  0.00  0.00    +0.002 A 
ATOM     12  C   LIG    1       -4.721   0.159  -0.296  0.00  0.00    +0.029 A 
ATOM     13  C   LIG    1       -3.389  -0.141  -0.254  0.00  0.00    +0.119 A 
ATOM     14  S   LIG    1       -2.834  -1.750  -0.559  0.00  0.00    +0.075 S 
ATOM     15  O   LIG    1       -3.414  -2.715   0.443  0.00  0.00    -0.150 OA
ATOM     16  N   LIG    1       -1.112  -1.745  -0.419  0.00  0.00    -0.197 N 
ATOM     17  C   LIG    1       -0.397  -2.959  -0.623  0.00  0.00    +0.158 C 
ATOM     18  O   LIG    1       -3.240  -2.152  -1.965  0.00  0.00    -0.150 OA
ATOM     19  C   LIG    1       -0.410  -0.555  -0.105  0.00  0.00    +0.159 A 
ENDROOT
BRANCH   3  20
ATOM     20  C   LIG    1        3.085   0.414   0.385  0.00  0.00    +0.146 A 
ATOM     21  N   LIG    1        3.665   0.532   1.603  0.00  0.00    -0.237 NA
ATOM     22  C   LIG    1        4.978   0.465   1.795  0.00  0.00    +0.113 A 
ATOM     23  C   LIG    1        5.794   0.267   0.717  0.00  0.00    +0.020 A 
ATOM     24  C   LIG    1        5.243   0.141  -0.544  0.00  0.00    +0.005 A 
ATOM     25  C   LIG    1        3.887   0.214  -0.716  0.00  0.00    +0.047 A 
ENDBRANCH   3  20
TORSDOF 1
