REMARK  Name = molecules/OENHQHLEOONYIE-JLTXGRSLSA-N.pdb
REMARK                            x       y       z     vdW  Elec       q    Type
REMARK                         _______ _______ _______ _____ _____    ______ ____
ROOT
ATOM      1  C   LIG    1       -0.366  -0.890  -4.072  0.00  0.00    +0.017 C 
ENDROOT
BRANCH   1   3
ATOM      2  C   LIG    1       -2.852  -0.639  -4.272  0.00  0.00    -0.054 C 
ATOM      3  C   LIG    1       -1.719  -0.629  -3.662  0.00  0.00    -0.015 C 
ATOM      4  C   LIG    1       -2.889  -0.914  -5.710  0.00  0.00    +0.043 C 
BRANCH   2   6
ATOM      5  C   LIG    1       -5.183   0.008  -3.503  0.00  0.00    +0.001 C 
ATOM      6  C   LIG    1       -3.958  -0.324  -3.378  0.00  0.00    +0.003 C 
BRANCH   5   8
ATOM      7  C   LIG    1       -7.112   0.664  -2.060  0.00  0.00    -0.050 C 
ATOM      8  C   LIG    1       -5.945   0.159  -2.215  0.00  0.00    +0.003 C 
ATOM      9  C   LIG    1       -7.748   1.408  -3.142  0.00  0.00    +0.044 C 
BRANCH   7  11
ATOM     10  C   LIG    1       -8.861   1.183  -0.442  0.00  0.00    +0.004 C 
ATOM     11  C   LIG    1       -7.712   0.665  -0.697  0.00  0.00    +0.003 C 
BRANCH  10  12
ATOM     12  C   LIG    1       -9.486   1.157   0.903  0.00  0.00    -0.043 C 
ATOM     13  C   LIG    1       -9.102   0.209   1.923  0.00  0.00    -0.010 C 
ATOM     14  C   LIG    1      -10.228  -0.193   2.852  0.00  0.00    +0.011 C 
ATOM     15  C   LIG    1      -11.294   0.760   3.095  0.00  0.00    +0.005 C 
ATOM     16  C   LIG    1      -11.316   2.050   2.333  0.00  0.00    +0.031 C 
ATOM     17  C   LIG    1       -7.982   0.820   2.787  0.00  0.00    +0.016 C 
ATOM     18  C   LIG    1       -8.517  -1.114   1.360  0.00  0.00    +0.016 C 
ATOM     19  C   LIG    1      -10.582   1.908   1.019  0.00  0.00    -0.069 C 
ATOM     20  C   LIG    1      -11.090   2.672  -0.116  0.00  0.00    +0.039 C 
ENDBRANCH  10  12
ENDBRANCH   7  11
ENDBRANCH   5   8
ENDBRANCH   2   6
ENDBRANCH   1   3
BRANCH   1  21
ATOM     21  C   LIG    1        0.649  -0.922  -4.029  0.00  0.00    +0.031 C 
BRANCH  21  22
ATOM     22  C   LIG    1        2.196  -1.135  -4.294  0.00  0.00    -0.019 C 
ATOM     23  C   LIG    1        2.764  -0.862  -3.083  0.00  0.00    -0.054 C 
ATOM     24  C   LIG    1        1.865  -0.404  -1.977  0.00  0.00    +0.043 C 
BRANCH  23  25
ATOM     25  C   LIG    1        4.152  -0.938  -2.764  0.00  0.00    +0.003 C 
ATOM     26  C   LIG    1        4.552  -0.677  -1.562  0.00  0.00    +0.001 C 
BRANCH  26  27
ATOM     27  C   LIG    1        5.892  -0.723  -1.094  0.00  0.00    +0.003 C 
ATOM     28  C   LIG    1        6.148  -0.389   0.219  0.00  0.00    -0.051 C 
ATOM     29  C   LIG    1        5.036  -0.077   1.076  0.00  0.00    +0.044 C 
BRANCH  28  30
ATOM     30  C   LIG    1        7.534  -0.481   0.624  0.00  0.00    -0.000 C 
ATOM     31  C   LIG    1        8.009  -0.104   1.806  0.00  0.00    -0.018 C 
BRANCH  31  32
ATOM     32  C   LIG    1        9.410  -0.260   2.124  0.00  0.00    +0.010 C 
ATOM     33  C   LIG    1        9.838   0.323   3.314  0.00  0.00    -0.015 C 
ATOM     34  C   LIG    1        8.786   1.009   4.088  0.00  0.00    +0.012 C 
ATOM     35  C   LIG    1       11.240   0.422   3.696  0.00  0.00    +0.008 C 
ATOM     36  C   LIG    1       12.223   0.325   2.542  0.00  0.00    +0.001 C 
ATOM     37  C   LIG    1       11.592  -0.070   1.243  0.00  0.00    +0.007 C 
ATOM     38  C   LIG    1       10.473  -1.065   1.533  0.00  0.00    -0.024 C 
ATOM     39  C   LIG    1       11.056  -1.958   2.683  0.00  0.00    +0.012 C 
ATOM     40  C   LIG    1       10.190  -2.005   0.430  0.00  0.00    +0.012 C 
ENDBRANCH  31  32
ENDBRANCH  28  30
ENDBRANCH  26  27
ENDBRANCH  23  25
ENDBRANCH  21  22
ENDBRANCH   1  21
TORSDOF 11
REMARK  Name = molecules/OENHQHLEOONYIE-JLTXGRSLSA-N.pdb
REMARK                            x       y       z     vdW  Elec       q    Type
REMARK                         _______ _______ _______ _____ _____    ______ ____
ROOT
ATOM      1  H   UNK    1       -0.154   0.600  -3.721  0.00  0.00    +0.000 HD
ENDROOT
TORSDOF 0
