REMARK  Name = molecules/OEXHQOGQTVQTAT-KKKDIUQISA-N.pdb
REMARK                            x       y       z     vdW  Elec       q    Type
REMARK                         _______ _______ _______ _____ _____    ______ ____
ROOT
ATOM      1  O   LIG    1        0.895   0.161  -0.052  0.00  0.00    -0.461 OA
ENDROOT
BRANCH   1   2
ATOM      2  C   LIG    1       -0.188  -0.725  -0.317  0.00  0.00    +0.173 C 
ATOM      3  C   LIG    1       -0.937  -1.018   0.929  0.00  0.00    +0.030 C 
ATOM      4  C   LIG    1       -2.203  -0.257   1.111  0.00  0.00    -0.062 C 
ATOM      5  C   LIG    1       -1.936   1.206   1.213  0.00  0.00    -0.016 C 
ATOM      6  C   LIG    1       -1.925   1.658  -0.227  0.00  0.00    -0.016 C 
ATOM      7  C   LIG    1       -2.313   0.409  -1.029  0.00  0.00    -0.062 C 
ATOM      8  N   LIG    1       -3.050  -0.364  -0.065  0.00  0.00    +0.384 N 
ATOM      9  C   LIG    1       -3.235  -1.736  -0.432  0.00  0.00    -0.091 C 
ATOM     10  C   LIG    1       -1.035  -0.241  -1.459  0.00  0.00    +0.030 C 
BRANCH   8  11
ATOM     11  C   LIG    1       -4.337   0.236   0.135  0.00  0.00    -0.071 C 
ATOM     12  C   LIG    1       -5.238  -0.655   0.989  0.00  0.00    -0.013 C 
ATOM     13  C   LIG    1       -4.990   0.434  -1.236  0.00  0.00    -0.013 C 
ENDBRANCH   8  11
ENDBRANCH   1   2
BRANCH   1  14
ATOM     14  C   LIG    1        2.215  -0.182  -0.214  0.00  0.00    +0.317 C 
ATOM     15  O   LIG    1        2.519  -1.325  -0.613  0.00  0.00    -0.250 OA
BRANCH  14  16
ATOM     16  C   LIG    1        3.298   0.792   0.081  0.00  0.00    +0.153 C 
BRANCH  16  17
ATOM     17  C   LIG    1        4.636   0.245  -0.151  0.00  0.00    -0.032 A 
ATOM     18  C   LIG    1        5.095  -0.852   0.548  0.00  0.00    +0.004 A 
ATOM     19  C   LIG    1        6.353  -1.381   0.344  0.00  0.00    +0.000 A 
ATOM     20  C   LIG    1        7.213  -0.828  -0.580  0.00  0.00    +0.000 A 
ATOM     21  C   LIG    1        6.766   0.269  -1.286  0.00  0.00    +0.000 A 
ATOM     22  C   LIG    1        5.502   0.796  -1.076  0.00  0.00    +0.004 A 
ENDBRANCH  16  17
BRANCH  16  23
ATOM     23  C   LIG    1        3.100   1.272   1.502  0.00  0.00    +0.175 C 
BRANCH  23  24
ATOM     24  O   LIG    1        1.857   1.886   1.646  0.00  0.00    -0.394 OA
ATOM     25  H   LIG    1        1.726   2.457   0.828  0.00  0.00    +0.209 HD
ENDBRANCH  23  24
ENDBRANCH  16  23
ENDBRANCH  14  16
ENDBRANCH   1  14
TORSDOF 7
