REMARK  Name = molecules/OFAIGZWCDGNZGT-UHFFFAOYSA-N.pdb
REMARK                            x       y       z     vdW  Elec       q    Type
REMARK                         _______ _______ _______ _____ _____    ______ ____
ROOT
ATOM      1  C   LIG    1       -2.050  -0.700  -0.032  0.00  0.00    +0.093 C 
ATOM      2  C   LIG    1       -2.038  -1.784   1.020  0.00  0.00    +0.023 C 
ATOM      3  C   LIG    1       -3.249  -2.661   0.745  0.00  0.00    +0.001 C 
ATOM      4  C   LIG    1       -3.883  -2.065  -0.480  0.00  0.00    +0.001 C 
ATOM      5  C   LIG    1       -2.724  -1.362  -1.204  0.00  0.00    +0.023 C 
ENDROOT
BRANCH   1   6
ATOM      6  C   LIG    1       -2.845   0.469   0.376  0.00  0.00    -0.031 A 
ATOM      7  C   LIG    1       -3.672   0.566   1.450  0.00  0.00    +0.005 A 
ATOM      8  C   LIG    1       -4.390   1.708   1.766  0.00  0.00    +0.000 A 
ATOM      9  C   LIG    1       -4.282   2.847   0.957  0.00  0.00    +0.000 A 
ATOM     10  C   LIG    1       -3.442   2.744  -0.132  0.00  0.00    +0.000 A 
ATOM     11  C   LIG    1       -2.739   1.606  -0.431  0.00  0.00    +0.005 A 
ENDBRANCH   1   6
BRANCH   1  12
ATOM     12  C   LIG    1       -0.678  -0.214  -0.340  0.00  0.00    +0.318 C 
ATOM     13  O   LIG    1       -0.179   0.574   0.511  0.00  0.00    -0.250 OA
BRANCH  12  14
ATOM     14  O   LIG    1        0.043  -0.557  -1.454  0.00  0.00    -0.463 OA
BRANCH  14  15
ATOM     15  C   LIG    1        1.351  -0.073  -1.691  0.00  0.00    +0.247 C 
BRANCH  15  16
ATOM     16  C   LIG    1        2.347  -0.576  -0.669  0.00  0.00    +0.125 C 
BRANCH  16  17
ATOM     17  N   LIG    1        3.688  -0.061  -0.933  0.00  0.00    -0.300 NA
BRANCH  17  18
ATOM     18  C   LIG    1        4.625  -0.791  -0.086  0.00  0.00    +0.081 C 
ATOM     19  C   LIG    1        4.507  -0.499   1.373  0.00  0.00    +0.020 C 
ENDBRANCH  17  18
BRANCH  17  20
ATOM     20  C   LIG    1        3.763   1.355  -0.590  0.00  0.00    +0.081 C 
ATOM     21  C   LIG    1        5.141   1.891  -0.910  0.00  0.00    +0.020 C 
ENDBRANCH  17  20
ENDBRANCH  16  17
ENDBRANCH  15  16
ENDBRANCH  14  15
ENDBRANCH  12  14
ENDBRANCH   1  12
TORSDOF 8
