REMARK  Name = molecules/OFBIFZUFASYYRE-UHFFFAOYSA-N.pdb
REMARK                            x       y       z     vdW  Elec       q    Type
REMARK                         _______ _______ _______ _____ _____    ______ ____
ROOT
ATOM      1  C   LIG    1        1.356  -0.830   0.156  0.00  0.00    +0.170 A 
ATOM      2  C   LIG    1        0.120  -0.253   0.333  0.00  0.00    +0.075 A 
ATOM      3  C   LIG    1       -0.058   1.120   0.788  0.00  0.00    +0.163 C 
ATOM      4  N   LIG    1       -1.099   1.858   0.125  0.00  0.00    -0.295 N 
ATOM      5  C   LIG    1       -0.803   3.234  -0.218  0.00  0.00    +0.132 C 
ATOM      6  C   LIG    1       -2.408   1.433  -0.253  0.00  0.00    +0.249 C 
ATOM      7  C   LIG    1       -2.932   0.077  -0.095  0.00  0.00    +0.063 A 
ATOM      8  C   LIG    1       -2.174  -1.083   0.022  0.00  0.00    +0.060 A 
ATOM      9  C   LIG    1       -2.825  -2.307   0.182  0.00  0.00    +0.030 A 
ATOM     10  C   LIG    1       -4.211  -2.348   0.221  0.00  0.00    +0.040 A 
ATOM     11  C   LIG    1       -4.930  -1.184   0.102  0.00  0.00    +0.124 A 
ATOM     12  F   LIG    1       -6.279  -1.271   0.144  0.00  0.00    -0.205 F 
ATOM     13  C   LIG    1       -4.319   0.040  -0.057  0.00  0.00    +0.053 A 
ATOM     14  O   LIG    1       -3.209   2.233  -0.759  0.00  0.00    -0.270 OA
ATOM     15  N   LIG    1       -0.775  -1.213  -0.005  0.00  0.00    -0.300 N 
ATOM     16  C   LIG    1       -0.149  -2.329  -0.374  0.00  0.00    +0.205 A 
ATOM     17  N   LIG    1        1.151  -2.115  -0.282  0.00  0.00    -0.228 NA
ENDROOT
BRANCH   1  18
ATOM     18  C   LIG    1        2.693  -0.278   0.369  0.00  0.00    +0.360 C 
ATOM     19  O   LIG    1        2.924   0.880   0.773  0.00  0.00    -0.243 OA
BRANCH  18  20
ATOM     20  O   LIG    1        3.799  -1.069   0.113  0.00  0.00    -0.460 OA
BRANCH  20  21
ATOM     21  C   LIG    1        5.125  -0.616   0.290  0.00  0.00    +0.229 C 
ATOM     22  C   LIG    1        5.431   0.577  -0.567  0.00  0.00    +0.048 C 
ENDBRANCH  20  21
ENDBRANCH  18  20
ENDBRANCH   1  18
TORSDOF 3
