REMARK  Name = molecules/OFHCOWSQAMBJIW-AVJTYSNKSA-N.pdb
REMARK                            x       y       z     vdW  Elec       q    Type
REMARK                         _______ _______ _______ _____ _____    ______ ____
ROOT
ATOM      1  C   LIG    1       -2.739  -0.302   0.175  0.00  0.00    -0.000 C 
ATOM      2  C   LIG    1       -1.597  -0.967   0.291  0.00  0.00    -0.066 C 
ATOM      3  C   LIG    1       -0.390  -0.269   0.691  0.00  0.00    +0.021 C 
ATOM      4  C   LIG    1       -0.422   1.206   0.617  0.00  0.00    +0.009 C 
ATOM      5  C   LIG    1        1.051   1.541   0.704  0.00  0.00    +0.005 C 
ATOM      6  C   LIG    1        1.807   0.276   0.262  0.00  0.00    -0.002 C 
ATOM      7  C   LIG    1        0.782  -0.626  -0.251  0.00  0.00    -0.022 C 
ATOM      8  C   LIG    1        0.982  -2.087   0.128  0.00  0.00    +0.008 C 
ATOM      9  C   LIG    1       -0.169  -2.904  -0.341  0.00  0.00    +0.005 C 
ATOM     10  C   LIG    1        0.266  -0.449  -1.629  0.00  0.00    +0.012 C 
ATOM     11  C   LIG    1       -1.528  -2.411   0.010  0.00  0.00    +0.031 C 
ENDROOT
BRANCH   1  13
ATOM     12  C   LIG    1       -5.093  -0.266  -0.380  0.00  0.00    -0.040 C 
ATOM     13  C   LIG    1       -3.975  -0.930  -0.215  0.00  0.00    +0.004 C 
ATOM     14  C   LIG    1       -5.061   1.208  -0.271  0.00  0.00    -0.023 C 
ATOM     15  C   LIG    1       -6.200   1.858   0.456  0.00  0.00    +0.147 C 
ATOM     16  C   LIG    1       -7.450   1.322  -0.218  0.00  0.00    +0.067 C 
ATOM     17  C   LIG    1       -7.512  -0.168  -0.038  0.00  0.00    +0.122 C 
ATOM     18  C   LIG    1       -4.095   1.863  -0.874  0.00  0.00    +0.015 C 
ATOM     19  C   LIG    1       -6.403  -0.917  -0.771  0.00  0.00    +0.067 C 
BRANCH  15  20
ATOM     20  O   LIG    1       -6.113   3.242   0.306  0.00  0.00    -0.387 OA
ATOM     21  H   LIG    1       -6.727   3.635   0.983  0.00  0.00    +0.210 HD
ENDBRANCH  15  20
BRANCH  17  22
ATOM     22  O   LIG    1       -7.518  -0.499   1.308  0.00  0.00    -0.391 OA
ATOM     23  H   LIG    1       -7.112  -1.406   1.421  0.00  0.00    +0.210 HD
ENDBRANCH  17  22
ENDBRANCH   1  13
BRANCH   6  24
ATOM     24  C   LIG    1        3.020   0.635  -0.467  0.00  0.00    -0.010 C 
ATOM     25  C   LIG    1        2.837   1.325  -1.801  0.00  0.00    +0.008 C 
BRANCH  24  26
ATOM     26  C   LIG    1        4.065  -0.423  -0.644  0.00  0.00    +0.003 C 
BRANCH  26  27
ATOM     27  C   LIG    1        4.640  -0.995   0.591  0.00  0.00    +0.001 C 
BRANCH  27  28
ATOM     28  C   LIG    1        5.346  -0.170   1.560  0.00  0.00    +0.003 C 
BRANCH  28  29
ATOM     29  C   LIG    1        6.581   0.555   1.138  0.00  0.00    -0.017 C 
ATOM     30  C   LIG    1        7.674  -0.374   0.630  0.00  0.00    +0.007 C 
ATOM     31  C   LIG    1        6.406   1.791   0.338  0.00  0.00    +0.007 C 
ENDBRANCH  28  29
ENDBRANCH  27  28
ENDBRANCH  26  27
ENDBRANCH  24  26
ENDBRANCH   6  24
TORSDOF 8
