REMARK  Name = molecules/OFVFGKQCUDMLLP-UHFFFAOYSA-N.pdb
REMARK                            x       y       z     vdW  Elec       q    Type
REMARK                         _______ _______ _______ _____ _____    ______ ____
ROOT
ATOM      1  O   LIG    1       -0.274   2.178   1.979  0.00  0.00    -0.273 OA
ATOM      2  C   LIG    1       -0.552   1.140   1.372  0.00  0.00    +0.249 C 
ATOM      3  C   LIG    1        0.384   0.014   1.091  0.00  0.00    +0.165 C 
ATOM      4  C   LIG    1       -0.109  -0.431  -0.231  0.00  0.00    +0.249 C 
ATOM      5  N   LIG    1       -1.544  -0.225  -0.200  0.00  0.00    -0.180 N 
ATOM      6  O   LIG    1        0.488  -0.896  -1.227  0.00  0.00    -0.273 OA
ATOM      7  N   LIG    1       -1.782   0.751   0.801  0.00  0.00    -0.180 N 
ENDROOT
BRANCH   5   8
ATOM      8  C   LIG    1       -2.532  -0.858  -0.993  0.00  0.00    +0.057 A 
ATOM      9  C   LIG    1       -2.975  -2.128  -0.707  0.00  0.00    +0.025 A 
ATOM     10  C   LIG    1       -3.937  -2.745  -1.481  0.00  0.00    +0.002 A 
ATOM     11  C   LIG    1       -4.472  -2.093  -2.562  0.00  0.00    +0.000 A 
ATOM     12  C   LIG    1       -4.046  -0.824  -2.868  0.00  0.00    +0.002 A 
ATOM     13  C   LIG    1       -3.078  -0.214  -2.081  0.00  0.00    +0.025 A 
ENDBRANCH   5   8
BRANCH   7  14
ATOM     14  C   LIG    1       -3.043   1.268   1.188  0.00  0.00    +0.057 A 
ATOM     15  C   LIG    1       -3.720   0.747   2.270  0.00  0.00    +0.025 A 
ATOM     16  C   LIG    1       -4.921   1.280   2.607  0.00  0.00    +0.002 A 
ATOM     17  C   LIG    1       -5.513   2.331   1.918  0.00  0.00    +0.000 A 
ATOM     18  C   LIG    1       -4.809   2.834   0.835  0.00  0.00    +0.002 A 
ATOM     19  C   LIG    1       -3.575   2.309   0.464  0.00  0.00    +0.025 A 
ENDBRANCH   7  14
BRANCH   3  20
ATOM     20  C   LIG    1        1.817   0.456   1.112  0.00  0.00    +0.030 C 
BRANCH  20  21
ATOM     21  C   LIG    1        2.713  -0.702   0.848  0.00  0.00    +0.076 C 
BRANCH  21  22
ATOM     22  C   LIG    1        4.160  -0.380   0.866  0.00  0.00    +0.139 C 
ATOM     23  O   LIG    1        4.681  -0.142   1.948  0.00  0.00    -0.297 OA
BRANCH  22  24
ATOM     24  C   LIG    1        5.008  -0.328  -0.331  0.00  0.00    +0.021 C 
ATOM     25  C   LIG    1        6.477  -0.070   0.044  0.00  0.00    +0.018 C 
ATOM     26  C   LIG    1        5.028  -1.643  -1.091  0.00  0.00    +0.018 C 
ATOM     27  C   LIG    1        4.573   0.838  -1.189  0.00  0.00    +0.018 C 
ENDBRANCH  22  24
ENDBRANCH  21  22
ENDBRANCH  20  21
ENDBRANCH   3  20
TORSDOF 6
