REMARK  Name = molecules/OFVLGDICTFRJMM-WESIUVDSSA-N.pdb
REMARK                            x       y       z     vdW  Elec       q    Type
REMARK                         _______ _______ _______ _____ _____    ______ ____
ROOT
ATOM      1  C   LIG    1       -4.855   1.939  -0.494  0.00  0.00    +0.128 A 
ATOM      2  C   LIG    1       -6.055   1.245  -0.251  0.00  0.00    +0.046 A 
ATOM      3  C   LIG    1       -6.048  -0.075   0.091  0.00  0.00    +0.004 A 
ATOM      4  C   LIG    1       -4.884  -0.791   0.212  0.00  0.00    +0.007 A 
ATOM      5  C   LIG    1       -3.679  -0.149  -0.018  0.00  0.00    -0.001 A 
ATOM      6  C   LIG    1       -2.411  -0.866  -0.050  0.00  0.00    +0.096 C 
ATOM      7  C   LIG    1       -1.326  -0.140   0.698  0.00  0.00    +0.062 C 
ATOM      8  C   LIG    1       -0.066  -0.957   0.558  0.00  0.00    +0.020 C 
ATOM      9  C   LIG    1        1.194  -0.203   0.691  0.00  0.00    +0.061 C 
ATOM     10  C   LIG    1        1.169   1.252   0.459  0.00  0.00    +0.190 C 
ATOM     11  C   LIG    1       -0.050   1.823  -0.094  0.00  0.00    +0.141 C 
ATOM     12  C   LIG    1        2.382   1.722  -0.253  0.00  0.00    +0.211 C 
ATOM     13  C   LIG    1        3.680   1.046   0.014  0.00  0.00    +0.121 C 
ATOM     14  C   LIG    1        3.583  -0.299   0.030  0.00  0.00    +0.127 C 
ATOM     15  O   LIG    1        2.344   2.659  -1.056  0.00  0.00    -0.288 OA
ATOM     16  C   LIG    1        2.226  -0.818  -0.229  0.00  0.00    +0.129 C 
ATOM     17  C   LIG    1       -1.195   1.185   0.026  0.00  0.00    +0.047 C 
ATOM     18  C   LIG    1       -2.417   1.934  -0.366  0.00  0.00    +0.197 C 
ATOM     19  O   LIG    1       -2.369   3.125  -0.683  0.00  0.00    -0.287 OA
ATOM     20  C   LIG    1       -2.480  -2.333   0.217  0.00  0.00    +0.047 C 
ATOM     21  C   LIG    1       -3.676   1.200  -0.361  0.00  0.00    +0.069 A 
ENDROOT
BRANCH  13  22
ATOM     22  C   LIG    1        4.920   1.743   0.217  0.00  0.00    +0.248 C 
ATOM     23  O   LIG    1        5.955   1.069   0.416  0.00  0.00    -0.270 OA
ATOM     24  N   LIG    1        4.996   3.165   0.200  0.00  0.00    -0.325 N 
ATOM     25  H   LIG    1        5.824   3.638   0.616  0.00  0.00    +0.145 HD
ATOM     26  H   LIG    1        4.234   3.734  -0.216  0.00  0.00    +0.145 HD
ENDBRANCH  13  22
BRANCH  16  27
ATOM     27  N   LIG    1        2.140  -2.228  -0.276  0.00  0.00    -0.299 NA
ATOM     28  C   LIG    1        2.830  -2.956   0.735  0.00  0.00    +0.105 C 
ATOM     29  C   LIG    1        2.201  -2.788  -1.595  0.00  0.00    +0.105 C 
ENDBRANCH  16  27
BRANCH  10  30
ATOM     30  O   LIG    1        1.320   1.872   1.777  0.00  0.00    -0.373 OA
ATOM     31  H   LIG    1        2.291   1.824   1.983  0.00  0.00    +0.211 HD
ENDBRANCH  10  30
BRANCH  11  32
ATOM     32  O   LIG    1       -0.037   3.067  -0.776  0.00  0.00    -0.507 OA
ATOM     33  H   LIG    1        0.013   2.958  -1.803  0.00  0.00    +0.292 HD
ENDBRANCH  11  32
BRANCH  14  34
ATOM     34  O   LIG    1        4.694  -1.064   0.276  0.00  0.00    -0.509 OA
ATOM     35  H   LIG    1        5.080  -1.631  -0.456  0.00  0.00    +0.292 HD
ENDBRANCH  14  34
BRANCH   6  36
ATOM     36  O   LIG    1       -1.988  -0.788  -1.416  0.00  0.00    -0.384 OA
ATOM     37  H   LIG    1       -1.329  -0.096  -1.563  0.00  0.00    +0.211 HD
ENDBRANCH   6  36
BRANCH   1  38
ATOM     38  O   LIG    1       -4.894   3.245  -0.836  0.00  0.00    -0.506 OA
ATOM     39  H   LIG    1       -4.340   3.977  -1.063  0.00  0.00    +0.292 HD
ENDBRANCH   1  38
TORSDOF 7
