REMARK  Name = molecules/OFZCIYFFPZCNJE-GFCCVEGCSA-N.pdb
REMARK                            x       y       z     vdW  Elec       q    Type
REMARK                         _______ _______ _______ _____ _____    ______ ____
ROOT
ATOM      1  C   LIG    1       -1.650   0.215   1.010  0.00  0.00    +0.036 C 
ATOM      2  C   LIG    1       -2.571  -0.179   2.099  0.00  0.00    +0.018 C 
ENDROOT
BRANCH   1   3
ATOM      3  C   LIG    1       -0.229  -0.097   1.542  0.00  0.00    +0.243 C 
BRANCH   3   4
ATOM      4  O   LIG    1        0.727   0.124   0.551  0.00  0.00    -0.450 OA
BRANCH   4   5
ATOM      5  C   LIG    1        2.055  -0.103   0.844  0.00  0.00    +0.400 C 
ATOM      6  O   LIG    1        2.365  -0.502   1.993  0.00  0.00    -0.226 OA
ATOM      7  N   LIG    1        3.062   0.108  -0.132  0.00  0.00    -0.279 N 
ATOM      8  H   LIG    1        2.808   0.439  -1.087  0.00  0.00    +0.152 HD
BRANCH   7   9
ATOM      9  C   LIG    1        4.457  -0.132   0.181  0.00  0.00    +0.070 C 
ATOM     10  C   LIG    1        5.227   1.171   0.007  0.00  0.00    +0.027 C 
ATOM     11  C   LIG    1        5.077  -1.152  -0.740  0.00  0.00    +0.027 C 
ENDBRANCH   7   9
ENDBRANCH   4   5
ENDBRANCH   3   4
ENDBRANCH   1   3
BRANCH   1  12
ATOM     12  C   LIG    1       -1.677   1.657   0.594  0.00  0.00    +0.243 C 
BRANCH  12  13
ATOM     13  O   LIG    1       -2.826   2.174   0.068  0.00  0.00    -0.450 OA
BRANCH  13  14
ATOM     14  C   LIG    1       -4.061   2.400   0.560  0.00  0.00    +0.398 C 
ATOM     15  O   LIG    1       -4.310   2.126   1.737  0.00  0.00    -0.227 OA
ATOM     16  N   LIG    1       -5.120   2.959  -0.246  0.00  0.00    -0.295 N 
ATOM     17  H   LIG    1       -5.912   3.451   0.200  0.00  0.00    +0.148 HD
ATOM     18  H   LIG    1       -5.105   2.876  -1.287  0.00  0.00    +0.148 HD
ENDBRANCH  13  14
ENDBRANCH  12  13
ENDBRANCH   1  12
BRANCH   1  19
ATOM     19  C   LIG    1       -1.818  -0.603  -0.249  0.00  0.00    +0.013 C 
BRANCH  19  20
ATOM     20  C   LIG    1       -1.691  -2.075  -0.026  0.00  0.00    -0.003 C 
ATOM     21  C   LIG    1       -1.883  -2.784  -1.371  0.00  0.00    +0.004 C 
ENDBRANCH  19  20
ENDBRANCH   1  19
TORSDOF 9
