REMARK  Name = molecules/OGBMKVWORPGQRR-UMXFMPSGSA-N.pdb
REMARK                            x       y       z     vdW  Elec       q    Type
REMARK                         _______ _______ _______ _____ _____    ______ ____
ROOT
ATOM      1  N   GLY A  1       56.010 -15.280   0.000  0.00  0.00    -0.136 NA
ATOM      2  CA  GLY A  1       56.474 -13.853   0.000  0.00  0.00    +0.144 C 
ENDROOT
BRANCH   2   3
ATOM      3  C   GLY A  1       57.900 -14.317   0.000  0.00  0.00    +0.225 C 
ATOM      4  O   GLY A  1       59.327 -14.780   0.000  0.00  0.00    -0.233 OA
ENDBRANCH   2   3
TORSDOF 1
REMARK  Name = molecules/OGBMKVWORPGQRR-UMXFMPSGSA-N.pdb
REMARK                            x       y       z     vdW  Elec       q    Type
REMARK                         _______ _______ _______ _____ _____    ______ ____
ROOT
ATOM      1  N   LIG    1       54.735 -11.923   0.000  0.00  0.00    -0.132 NA
ATOM      2  C   LIG    1       54.272 -13.349   0.000  0.00  0.00    +0.101 C 
ATOM      3  C   LIG    1       55.047 -13.390   0.000  0.00  0.00    +0.031 C 
ENDROOT
TORSDOF 0
REMARK  Name = molecules/OGBMKVWORPGQRR-UMXFMPSGSA-N.pdb
REMARK                            x       y       z     vdW  Elec       q    Type
REMARK                         _______ _______ _______ _____ _____    ______ ____
ROOT
ATOM      1  N   GLY A  1       52.768  -8.918   0.000  0.00  0.00    -0.134 NA
ATOM      2  CA  GLY A  1       53.232  -7.491   0.000  0.00  0.00    +0.160 C 
ATOM      3  C   GLY A  1       54.658  -7.955   0.000  0.00  0.00    +0.269 C 
ATOM      4  O   GLY A  1       56.085  -8.418   0.000  0.00  0.00    -0.295 OA
ENDROOT
TORSDOF 0
REMARK  Name = molecules/OGBMKVWORPGQRR-UMXFMPSGSA-N.pdb
REMARK                            x       y       z     vdW  Elec       q    Type
REMARK                         _______ _______ _______ _____ _____    ______ ____
ROOT
ATOM      1  C   LIG    1       50.530  -3.670   0.000  0.00  0.00    -0.005 C 
ATOM      2  C   LIG    1       50.953  -3.019   0.000  0.00  0.00    -0.025 C 
ENDROOT
BRANCH   2   3
ATOM      3  C   LIG    1       51.417  -1.593   0.000  0.00  0.00    +0.023 C 
ATOM      4  C   LIG    1       49.990  -1.129   0.000  0.00  0.00    +0.004 C 
ATOM      5  C   LIG    1       52.843  -2.056   0.000  0.00  0.00    -0.001 C 
ENDBRANCH   2   3
BRANCH   1   6
ATOM      6  C   LIG    1       50.490  -4.446   0.000  0.00  0.00    +0.078 C 
ATOM      7  C   LIG    1       50.067  -5.097   0.000  0.00  0.00    +0.028 C 
BRANCH   6   8
ATOM      8  N   LIG    1       51.493  -5.560   0.000  0.00  0.00    -0.243 NA
ATOM      9  H   LIG    1       50.750  -5.923   0.000  0.00  0.00    +0.142 HD
ENDBRANCH   6   8
ENDBRANCH   1   6
TORSDOF 3
REMARK  Name = molecules/OGBMKVWORPGQRR-UMXFMPSGSA-N.pdb
REMARK                            x       y       z     vdW  Elec       q    Type
REMARK                         _______ _______ _______ _____ _____    ______ ____
ROOT
ATOM      1  N   LIG    1       49.527  -2.556   0.000  0.00  0.00    -0.163 NA
ATOM      2  H   LIG    1       49.130  -3.812   0.000  0.00  0.00    +0.163 HD
ENDROOT
TORSDOF 0
REMARK  Name = molecules/OGBMKVWORPGQRR-UMXFMPSGSA-N.pdb
REMARK                            x       y       z     vdW  Elec       q    Type
REMARK                         _______ _______ _______ _____ _____    ______ ____
ROOT
ATOM      1  C   LIG    1       46.825   1.265   0.000  0.00  0.00    +0.088 C 
ATOM      2  C   LIG    1       46.362  -0.161   0.000  0.00  0.00    -0.001 C 
ENDROOT
BRANCH   1   3
ATOM      3  N   LIG    1       48.252   0.802   0.000  0.00  0.00    -0.245 NA
ATOM      4  C   LIG    1       48.563  -0.665   0.000  0.00  0.00    +0.135 C 
ENDBRANCH   1   3
BRANCH   2   5
ATOM      5  C   LIG    1       45.898  -1.588   0.000  0.00  0.00    +0.127 C 
BRANCH   5   6
ATOM      6  C   LIG    1       45.434  -3.014   0.000  0.00  0.00    +0.256 C 
ATOM      7  O   LIG    1       46.438  -4.129   0.000  0.00  0.00    -0.272 OA
ATOM      8  N   LIG    1       43.967  -3.326   0.000  0.00  0.00    -0.088 NA
ENDBRANCH   5   6
ENDBRANCH   2   5
TORSDOF 3
REMARK  Name = molecules/OGBMKVWORPGQRR-UMXFMPSGSA-N.pdb
REMARK                            x       y       z     vdW  Elec       q    Type
REMARK                         _______ _______ _______ _____ _____    ______ ____
ROOT
ATOM      1  C   LIG    1       45.322   5.697   0.000  0.00  0.00    +0.137 C 
ENDROOT
BRANCH   1   3
ATOM      2  N   LIG    1       46.285   3.807   0.000  0.00  0.00    -0.137 NA
ATOM      3  C   LIG    1       46.748   5.233   0.000  0.00  0.00    +0.129 C 
BRANCH   3   4
ATOM      4  C   LIG    1       48.175   4.770   0.000  0.00  0.00    +0.019 C 
BRANCH   4   5
ATOM      5  C   LIG    1       49.602   4.306   0.000  0.00  0.00    -0.012 C 
ATOM      6  C   LIG    1       50.065   5.733   0.000  0.00  0.00    +0.007 C 
ATOM      7  C   LIG    1       51.028   3.843   0.000  0.00  0.00    +0.007 C 
ENDBRANCH   4   5
ENDBRANCH   3   4
ENDBRANCH   1   3
BRANCH   1   8
ATOM      8  N   LIG    1       45.010   7.164   0.000  0.00  0.00    -0.282 NA
ATOM      9  C   LIG    1       43.583   7.627   0.000  0.00  0.00    +0.083 C 
BRANCH   9  10
ATOM     10  C   LIG    1       43.120   6.201   0.000  0.00  0.00    +0.049 C 
BRANCH  10  11
ATOM     11  C   LIG    1       42.656   4.774   0.000  0.00  0.00    +0.078 C 
BRANCH  11  12
ATOM     12  S   LIG    1       42.193   3.348   0.000  0.00  0.00    -0.163 S 
ATOM     13  C   LIG    1       40.726   3.036   0.000  0.00  0.00    +0.084 C 
ENDBRANCH  11  12
ENDBRANCH  10  11
ENDBRANCH   9  10
ENDBRANCH   1   8
TORSDOF 7
REMARK  Name = molecules/OGBMKVWORPGQRR-UMXFMPSGSA-N.pdb
REMARK                            x       y       z     vdW  Elec       q    Type
REMARK                         _______ _______ _______ _____ _____    ______ ____
ROOT
ATOM      1  C   LIG    1       46.360  10.668   0.000  0.00  0.00    +0.066 C 
ATOM      2  N   LIG    1       46.823   9.242   0.000  0.00  0.00    -0.306 NA
ATOM      3  C   LIG    1       48.323   9.242   0.000  0.00  0.00    +0.202 C 
ATOM      4  N   LIG    1       48.787  10.668   0.000  0.00  0.00    -0.243 NA
ATOM      5  H   LIG    1       46.125   8.168   0.000  0.00  0.00    +0.175 HD
ATOM      6  C   LIG    1       47.573  11.550   0.000  0.00  0.00    +0.138 C 
ENDROOT
BRANCH   1   9
ATOM      7  N   LIG    1       43.043  10.169   0.000  0.00  0.00    -0.138 NA
ATOM      8  C   LIG    1       43.507  11.595   0.000  0.00  0.00    +0.120 C 
ATOM      9  C   LIG    1       44.933  11.132   0.000  0.00  0.00    +0.046 C 
ENDBRANCH   1   9
BRANCH   2  10
ATOM     10  O   LIG    1       45.514   9.366   0.000  0.00  0.00    -0.302 OA
ATOM     11  H   LIG    1       44.829   9.635   0.000  0.00  0.00    +0.242 HD
ENDBRANCH   2  10
TORSDOF 2
REMARK  Name = molecules/OGBMKVWORPGQRR-UMXFMPSGSA-N.pdb
REMARK                            x       y       z     vdW  Elec       q    Type
REMARK                         _______ _______ _______ _____ _____    ______ ____
ROOT
ATOM      1  C   LIG    1       40.265  17.957   0.000  0.00  0.00    +0.159 C 
ENDROOT
BRANCH   1   2
ATOM      2  C   LIG    1       38.839  18.421   0.000  0.00  0.00    +0.083 C 
ATOM      3  N   LIG    1       38.527  19.888   0.000  0.00  0.00    -0.282 NA
BRANCH   3   4
ATOM      4  C   LIG    1       37.100  20.352   0.000  0.00  0.00    +0.168 C 
BRANCH   4   5
ATOM      5  C   LIG    1       35.673  20.815   0.000  0.00  0.00    +0.083 C 
BRANCH   5   6
ATOM      6  N   LIG    1       34.559  19.812   0.000  0.00  0.00    -0.302 NA
ATOM      7  H   LIG    1       34.987  18.553   0.000  0.00  0.00    +0.123 HD
BRANCH   6   8
ATOM      8  C   LIG    1       33.132  20.275   0.000  0.00  0.00    +0.066 C 
ATOM      9  C   LIG    1       32.669  18.849   0.000  0.00  0.00    +0.011 C 
BRANCH   8  10
ATOM     10  C   LIG    1       33.596  21.702   0.000  0.00  0.00    +0.011 C 
BRANCH  10  11
ATOM     11  C   LIG    1       34.059  23.128   0.000  0.00  0.00    +0.007 C 
BRANCH  11  12
ATOM     12  C   LIG    1       34.523  24.555   0.000  0.00  0.00    +0.019 C 
BRANCH  12  13
ATOM     13  C   LIG    1       34.986  25.981   0.000  0.00  0.00    +0.124 C 
ATOM     14  N   LIG    1       35.450  27.408   0.000  0.00  0.00    -0.143 NA
ENDBRANCH  12  13
ENDBRANCH  11  12
ENDBRANCH  10  11
ENDBRANCH   8  10
ENDBRANCH   6   8
ENDBRANCH   5   6
ENDBRANCH   4   5
ENDBRANCH   3   4
ENDBRANCH   1   2
BRANCH   1  16
ATOM     15  C   LIG    1       40.805  15.416   0.000  0.00  0.00    +0.078 C 
ATOM     16  N   LIG    1       39.801  16.531   0.000  0.00  0.00    -0.275 NA
BRANCH  15  17
ATOM     17  C   LIG    1       40.342  13.990   0.000  0.00  0.00    +0.136 C 
BRANCH  17  18
ATOM     18  N   LIG    1       41.768  13.526   0.000  0.00  0.00    -0.217 NA
ATOM     19  C   LIG    1       42.080  12.059   0.000  0.00  0.00    +0.107 C 
ENDBRANCH  17  18
BRANCH  17  20
ATOM     20  C   LIG    1       39.878  12.563   0.000  0.00  0.00    +0.115 C 
BRANCH  20  21
ATOM     21  C   LIG    1       39.415  11.136   0.000  0.00  0.00    +0.235 C 
ATOM     22  O   LIG    1       37.947  10.825   0.000  0.00  0.00    -0.274 OA
ATOM     23  N   LIG    1       40.418  10.022   0.000  0.00  0.00    -0.234 NA
ATOM     24  H   LIG    1       41.549  10.038   0.000  0.00  0.00    +0.173 HD
ENDBRANCH  20  21
ENDBRANCH  17  20
ENDBRANCH  15  17
ENDBRANCH   1  16
BRANCH   1  25
ATOM     25  C   LIG    1       41.692  17.494   0.000  0.00  0.00    +0.028 C 
BRANCH  25  26
ATOM     26  C   LIG    1       43.118  17.030   0.000  0.00  0.00    -0.011 C 
ATOM     27  C   LIG    1       43.582  18.457   0.000  0.00  0.00    +0.007 C 
ATOM     28  C   LIG    1       44.545  16.567   0.000  0.00  0.00    +0.007 C 
ENDBRANCH  25  26
ENDBRANCH   1  25
TORSDOF 16
REMARK  Name = molecules/OGBMKVWORPGQRR-UMXFMPSGSA-N.pdb
REMARK                            x       y       z     vdW  Elec       q    Type
REMARK                         _______ _______ _______ _____ _____    ______ ____
ROOT
ATOM      1  C   LIG    1       33.591  16.183   0.000  0.00  0.00    +0.132 C 
ENDROOT
BRANCH   1   4
ATOM      2  N   LIG    1       31.201  18.537   0.000  0.00  0.00    -0.138 NA
ATOM      3  C   LIG    1       30.738  17.110   0.000  0.00  0.00    +0.116 C 
ATOM      4  C   LIG    1       32.164  16.646   0.000  0.00  0.00    +0.024 C 
ENDBRANCH   1   4
BRANCH   1   5
ATOM      5  N   LIG    1       34.055  14.756   0.000  0.00  0.00    -0.222 NA
BRANCH   5   6
ATOM      6  C   LIG    1       35.555  14.756   0.000  0.00  0.00    +0.227 C 
ATOM      7  N   LIG    1       36.018  16.183   0.000  0.00  0.00    -0.140 NA
ENDBRANCH   5   6
ENDBRANCH   1   5
TORSDOF 3
REMARK  Name = molecules/OGBMKVWORPGQRR-UMXFMPSGSA-N.pdb
REMARK                            x       y       z     vdW  Elec       q    Type
REMARK                         _______ _______ _______ _____ _____    ______ ____
ROOT
ATOM      1  N   LIG    1       28.197  16.570   0.000  0.00  0.00    -0.133 NA
ATOM      2  C   LIG    1       26.770  17.033   0.000  0.00  0.00    +0.147 C 
ENDROOT
BRANCH   2   3
ATOM      3  C   LIG    1       26.306  15.607   0.000  0.00  0.00    +0.084 C 
ATOM      4  N   LIG    1       24.839  15.295   0.000  0.00  0.00    -0.257 NA
BRANCH   4   5
ATOM      5  C   LIG    1       24.376  13.868   0.000  0.00  0.00    +0.109 C 
ATOM      6  C   LIG    1       25.802  13.405   0.000  0.00  0.00    +0.022 C 
BRANCH   6   7
ATOM      7  C   LIG    1       27.229  12.941   0.000  0.00  0.00    +0.128 C 
ATOM      8  N   LIG    1       27.541  11.474   0.000  0.00  0.00    -0.127 NA
ENDBRANCH   6   7
ENDBRANCH   4   5
ENDBRANCH   2   3
BRANCH   2   9
ATOM      9  C   LIG    1       27.233  18.460   0.000  0.00  0.00    +0.023 C 
BRANCH   9  10
ATOM     10  C   LIG    1       27.697  19.887   0.000  0.00  0.00    -0.012 C 
ATOM     11  C   LIG    1       26.270  20.350   0.000  0.00  0.00    +0.007 C 
ATOM     12  C   LIG    1       28.161  21.313   0.000  0.00  0.00    +0.007 C 
ENDBRANCH   9  10
ENDBRANCH   2   9
TORSDOF 5
REMARK  Name = molecules/OGBMKVWORPGQRR-UMXFMPSGSA-N.pdb
REMARK                            x       y       z     vdW  Elec       q    Type
REMARK                         _______ _______ _______ _____ _____    ______ ____
ROOT
ATOM      1  N   GLY A  1       21.834  13.328   0.000  0.00  0.00    -0.134 NA
ATOM      2  CA  GLY A  1       20.408  13.792   0.000  0.00  0.00    +0.160 C 
ATOM      3  C   GLY A  1       20.871  15.218   0.000  0.00  0.00    +0.269 C 
ATOM      4  O   GLY A  1       21.335  16.645   0.000  0.00  0.00    -0.295 OA
ENDROOT
TORSDOF 0
REMARK  Name = molecules/OGBMKVWORPGQRR-UMXFMPSGSA-N.pdb
REMARK                            x       y       z     vdW  Elec       q    Type
REMARK                         _______ _______ _______ _____ _____    ______ ____
ROOT
ATOM      1  N   LIG    1       15.472  10.086   0.000  0.00  0.00    -0.241 NA
ATOM      2  C   LIG    1       14.046  10.550   0.000  0.00  0.00    +0.188 C 
ENDROOT
BRANCH   2   3
ATOM      3  O   LIG    1       12.871  11.018   0.000  0.00  0.00    -0.495 OA
ATOM      4  H   LIG    1       11.752  10.267   0.000  0.00  0.00    +0.293 HD
ENDBRANCH   2   3
BRANCH   1   5
ATOM      5  C   LIG    1       16.587  11.090   0.000  0.00  0.00    +0.147 C 
BRANCH   5   6
ATOM      6  C   LIG    1       18.014  10.627   0.000  0.00  0.00    +0.115 C 
BRANCH   6   7
ATOM      7  N   LIG    1       18.477  12.053   0.000  0.00  0.00    -0.214 NA
ATOM      8  C   LIG    1       19.944  12.365   0.000  0.00  0.00    +0.108 C 
ENDBRANCH   6   7
ENDBRANCH   5   6
ENDBRANCH   1   5
BRANCH   2   9
ATOM      9  C   LIG    1       14.509  11.977   0.000  0.00  0.00    +0.097 C 
BRANCH   9  10
ATOM     10  C   LIG    1       14.973  13.403   0.000  0.00  0.00    +0.138 C 
BRANCH  10  11
ATOM     11  C   LIG    1       15.436  14.830   0.000  0.00  0.00    +0.357 C 
ATOM     12  O   LIG    1       14.432  15.944   0.000  0.00  0.00    -0.246 OA
ATOM     13  O   LIG    1       16.904  15.142   0.000  0.00  0.00    -0.246 OA
ENDBRANCH  10  11
ENDBRANCH   9  10
ENDBRANCH   2   9
TORSDOF 7
REMARK  Name = molecules/OGBMKVWORPGQRR-UMXFMPSGSA-N.pdb
REMARK                            x       y       z     vdW  Elec       q    Type
REMARK                         _______ _______ _______ _____ _____    ______ ____
ROOT
ATOM      1  N   LIG    1       12.115   8.812   0.000  0.00  0.00    -0.180 NA
ATOM      2  C   LIG    1       11.887   9.886   0.000  0.00  0.00    +0.180 C 
ENDROOT
TORSDOF 0
REMARK  Name = molecules/OGBMKVWORPGQRR-UMXFMPSGSA-N.pdb
REMARK                            x       y       z     vdW  Elec       q    Type
REMARK                         _______ _______ _______ _____ _____    ______ ____
ROOT
ATOM      1  N   LIG    1        9.110   6.845   0.000  0.00  0.00    -0.163 NA
ATOM      2  H   LIG    1        8.697   6.142   0.000  0.00  0.00    +0.163 HD
ENDROOT
TORSDOF 0
REMARK  Name = molecules/OGBMKVWORPGQRR-UMXFMPSGSA-N.pdb
REMARK                            x       y       z     vdW  Elec       q    Type
REMARK                         _______ _______ _______ _____ _____    ______ ____
ROOT
ATOM      1  N   LIG    1        7.143   9.850   0.000  0.00  0.00    -0.245 NA
ATOM      2  H   LIG    1        7.103   9.074   0.000  0.00  0.00    +0.141 HD
ENDROOT
BRANCH   1   3
ATOM      3  C   LIG    1        7.835  10.202   0.000  0.00  0.00    +0.084 C 
ATOM      4  C   LIG    1        7.607  11.276   0.000  0.00  0.00    +0.020 C 
ENDBRANCH   1   3
TORSDOF 1
REMARK  Name = molecules/OGBMKVWORPGQRR-UMXFMPSGSA-N.pdb
REMARK                            x       y       z     vdW  Elec       q    Type
REMARK                         _______ _______ _______ _____ _____    ______ ____
ROOT
ATOM      1  N   LIG    1        5.868  13.207   0.000  0.00  0.00    +0.000 NA
ENDROOT
TORSDOF 0
REMARK  Name = molecules/OGBMKVWORPGQRR-UMXFMPSGSA-N.pdb
REMARK                            x       y       z     vdW  Elec       q    Type
REMARK                         _______ _______ _______ _____ _____    ______ ____
ROOT
ATOM      1  N   LIG    1        4.982  11.129   0.000  0.00  0.00    +0.000 NA
ENDROOT
TORSDOF 0
REMARK  Name = molecules/OGBMKVWORPGQRR-UMXFMPSGSA-N.pdb
REMARK                            x       y       z     vdW  Elec       q    Type
REMARK                         _______ _______ _______ _____ _____    ______ ____
ROOT
ATOM      1  C   LIG    1        2.048  10.505   0.000  0.00  0.00    +0.147 C 
ENDROOT
BRANCH   1   2
ATOM      2  N   LIG    1        1.977   9.162   0.000  0.00  0.00    -0.243 NA
BRANCH   2   3
ATOM      3  C   LIG    1        0.551   9.626   0.000  0.00  0.00    +0.101 C 
ATOM      4  C   LIG    1        0.621  10.969   0.000  0.00  0.00    +0.008 C 
ENDBRANCH   2   3
ENDBRANCH   1   2
BRANCH   1   5
ATOM      5  C   LIG    1        1.014  11.053   0.000  0.00  0.00    +0.208 C 
BRANCH   5   6
ATOM      6  O   LIG    1        1.666  11.649   0.000  0.00  0.00    -0.187 OA
BRANCH   6   7
ATOM      7  O   LIG    1        2.275  11.424   0.000  0.00  0.00    -0.032 OA
ATOM      8  O   LIG    1        2.496  10.818   0.000  0.00  0.00    -0.002 OA
ENDBRANCH   6   7
ENDBRANCH   5   6
ENDBRANCH   1   5
TORSDOF 5
REMARK  Name = molecules/OGBMKVWORPGQRR-UMXFMPSGSA-N.pdb
REMARK                            x       y       z     vdW  Elec       q    Type
REMARK                         _______ _______ _______ _____ _____    ______ ____
ROOT
ATOM      1  N   LIG    1        0.010  12.167   0.000  0.00  0.00    -0.384 N 
ATOM      2  C   LIG    1       -0.806  11.433   0.000  0.00  0.00    +0.127 C 
ATOM      3  C   LIG    1       -0.342  12.859   0.000  0.00  0.00    -0.001 C 
ATOM      4  C   LIG    1        0.474  13.594   0.000  0.00  0.00    +0.044 C 
ATOM      5  C   LIG    1       -0.953  14.057   0.000  0.00  0.00    +0.054 C 
ATOM      6  H   LIG    1        1.085  12.396   0.000  0.00  0.00    +0.159 HD
ENDROOT
TORSDOF 0
REMARK  Name = molecules/OGBMKVWORPGQRR-UMXFMPSGSA-N.pdb
REMARK                            x       y       z     vdW  Elec       q    Type
REMARK                         _______ _______ _______ _____ _____    ______ ____
ROOT
ATOM      1  N   LIG    1        3.015  14.134   0.000  0.00  0.00    +0.000 NA
ENDROOT
TORSDOF 0
REMARK  Name = molecules/OGBMKVWORPGQRR-UMXFMPSGSA-N.pdb
REMARK                            x       y       z     vdW  Elec       q    Type
REMARK                         _______ _______ _______ _____ _____    ______ ____
ROOT
ATOM      1  N   LIG    1        2.511  11.932   0.000  0.00  0.00    +0.000 NA
ENDROOT
TORSDOF 0
REMARK  Name = molecules/OGBMKVWORPGQRR-UMXFMPSGSA-N.pdb
REMARK                            x       y       z     vdW  Elec       q    Type
REMARK                         _______ _______ _______ _____ _____    ______ ____
ROOT
ATOM      1  N   LIG    1        3.786   8.575   0.000  0.00  0.00    -0.163 NA
ATOM      2  H   LIG    1        4.414   8.206   0.000  0.00  0.00    +0.163 HD
ENDROOT
TORSDOF 0
REMARK  Name = molecules/OGBMKVWORPGQRR-UMXFMPSGSA-N.pdb
REMARK                            x       y       z     vdW  Elec       q    Type
REMARK                         _______ _______ _______ _____ _____    ______ ____
ROOT
ATOM      1  N   LIG    1        3.282   6.373   0.000  0.00  0.00    -0.163 NA
ATOM      2  H   LIG    1        4.297   6.450   0.000  0.00  0.00    +0.163 HD
ENDROOT
TORSDOF 0
REMARK  Name = molecules/OGBMKVWORPGQRR-UMXFMPSGSA-N.pdb
REMARK                            x       y       z     vdW  Elec       q    Type
REMARK                         _______ _______ _______ _____ _____    ______ ____
ROOT
ATOM      1  N   LIG    1        4.557   3.015   0.000  0.00  0.00    -0.163 NA
ATOM      2  H   LIG    1        3.833   3.066   0.000  0.00  0.00    +0.163 HD
ENDROOT
TORSDOF 0
REMARK  Name = molecules/OGBMKVWORPGQRR-UMXFMPSGSA-N.pdb
REMARK                            x       y       z     vdW  Elec       q    Type
REMARK                         _______ _______ _______ _____ _____    ______ ____
ROOT
ATOM      1  N   LIG    1        7.914   4.290   0.000  0.00  0.00    +0.119 NA
ATOM      2  O   LIG    1        8.348   5.149   0.000  0.00  0.00    -0.119 OA
ENDROOT
TORSDOF 0
REMARK  Name = molecules/OGBMKVWORPGQRR-UMXFMPSGSA-N.pdb
REMARK                            x       y       z     vdW  Elec       q    Type
REMARK                         _______ _______ _______ _____ _____    ______ ____
ROOT
ATOM      1  N   LIG    1        5.836   5.177   0.000  0.00  0.00    -0.163 NA
ATOM      2  H   LIG    1        4.998   5.073   0.000  0.00  0.00    +0.163 HD
ENDROOT
TORSDOF 0
REMARK  Name = molecules/OGBMKVWORPGQRR-UMXFMPSGSA-N.pdb
REMARK                            x       y       z     vdW  Elec       q    Type
REMARK                         _______ _______ _______ _____ _____    ______ ____
ROOT
ATOM      1  N   LIG    1        8.619   2.907   0.000  0.00  0.00    +0.000 NA
ENDROOT
TORSDOF 0
REMARK  Name = molecules/OGBMKVWORPGQRR-UMXFMPSGSA-N.pdb
REMARK                            x       y       z     vdW  Elec       q    Type
REMARK                         _______ _______ _______ _____ _____    ______ ____
ROOT
ATOM      1  O   HOH    1       54.208 -14.633   0.000  0.00  0.00    -0.410 OA
ATOM      2  H   HOH    0       54.543 -15.592   0.000  0.00  0.00    +0.205 HD
ATOM      3  H   HOH    0       53.653 -15.107   0.000  0.00  0.00    +0.205 HD
ENDROOT
TORSDOF 0
REMARK  Name = molecules/OGBMKVWORPGQRR-UMXFMPSGSA-N.pdb
REMARK                            x       y       z     vdW  Elec       q    Type
REMARK                         _______ _______ _______ _____ _____    ______ ____
ROOT
ATOM      1  C   LIG    1       53.772 -10.033   0.000  0.00  0.00    +0.021 C 
ATOM      2  C   LIG    1       53.308 -11.459   0.000  0.00  0.00    -0.022 C 
ATOM      3  C   LIG    1       52.845 -12.886   0.000  0.00  0.00    -0.030 C 
ATOM      4  C   LIG    1       52.381 -14.312   0.000  0.00  0.00    +0.031 C 
ENDROOT
TORSDOF 0
REMARK  Name = molecules/OGBMKVWORPGQRR-UMXFMPSGSA-N.pdb
REMARK                            x       y       z     vdW  Elec       q    Type
REMARK                         _______ _______ _______ _____ _____    ______ ____
ROOT
ATOM      1  O   HOH    1       55.239  -9.721   0.000  0.00  0.00    -0.410 OA
ATOM      2  H   HOH    0       56.397  -9.885   0.000  0.00  0.00    +0.205 HD
ATOM      3  H   HOH    0       54.554  -9.451   0.000  0.00  0.00    +0.205 HD
ENDROOT
TORSDOF 0
REMARK  Name = molecules/OGBMKVWORPGQRR-UMXFMPSGSA-N.pdb
REMARK                            x       y       z     vdW  Elec       q    Type
REMARK                         _______ _______ _______ _____ _____    ______ ____
ROOT
ATOM      1  C   LIG    1       51.805  -7.028   0.000  0.00  0.00    +0.000 C 
ENDROOT
TORSDOF 0
REMARK  Name = molecules/OGBMKVWORPGQRR-UMXFMPSGSA-N.pdb
REMARK                            x       y       z     vdW  Elec       q    Type
REMARK                         _______ _______ _______ _____ _____    ______ ____
ROOT
ATOM      1  O   HOH    1       50.821  -8.160   0.000  0.00  0.00    -0.410 OA
ATOM      2  H   HOH    0       50.875  -7.318   0.000  0.00  0.00    +0.205 HD
ATOM      3  H   HOH    0       51.301  -9.230   0.000  0.00  0.00    +0.205 HD
ENDROOT
TORSDOF 0
REMARK  Name = molecules/OGBMKVWORPGQRR-UMXFMPSGSA-N.pdb
REMARK                            x       y       z     vdW  Elec       q    Type
REMARK                         _______ _______ _______ _____ _____    ______ ____
ROOT
ATOM      1  C   LIG    1       48.676  -9.377   0.000  0.00  0.00    +0.356 C 
ATOM      2  O   LIG    1       47.209  -9.688   0.000  0.00  0.00    -0.246 OA
ATOM      3  O   LIG    1       49.680 -10.491   0.000  0.00  0.00    -0.246 OA
ENDROOT
BRANCH   1   5
ATOM      4  C   LIG    1       49.603  -6.524   0.000  0.00  0.00    +0.008 C 
ATOM      5  C   LIG    1       49.140  -7.950   0.000  0.00  0.00    +0.129 C 
ENDBRANCH   1   5
TORSDOF 1
REMARK  Name = molecules/OGBMKVWORPGQRR-UMXFMPSGSA-N.pdb
REMARK                            x       y       z     vdW  Elec       q    Type
REMARK                         _______ _______ _______ _____ _____    ______ ____
ROOT
ATOM      1  O   HOH    1       52.029  -3.723   0.000  0.00  0.00    -0.410 OA
ATOM      2  H   HOH    0       51.988  -4.367   0.000  0.00  0.00    +0.205 HD
ATOM      3  H   HOH    0       52.739  -3.552   0.000  0.00  0.00    +0.205 HD
ENDROOT
TORSDOF 0
REMARK  Name = molecules/OGBMKVWORPGQRR-UMXFMPSGSA-N.pdb
REMARK                            x       y       z     vdW  Elec       q    Type
REMARK                         _______ _______ _______ _____ _____    ______ ____
ROOT
ATOM      1  O   HOH    1       47.580  -1.798   0.000  0.00  0.00    -0.410 OA
ATOM      2  H   HOH    0       47.634  -0.956   0.000  0.00  0.00    +0.205 HD
ATOM      3  H   HOH    0       48.059  -2.868   0.000  0.00  0.00    +0.205 HD
ENDROOT
TORSDOF 0
REMARK  Name = molecules/OGBMKVWORPGQRR-UMXFMPSGSA-N.pdb
REMARK                            x       y       z     vdW  Elec       q    Type
REMARK                         _______ _______ _______ _____ _____    ______ ____
ROOT
ATOM      1  C   LIG    1       47.289   2.692   0.000  0.00  0.00    +0.000 C 
ENDROOT
TORSDOF 0
REMARK  Name = molecules/OGBMKVWORPGQRR-UMXFMPSGSA-N.pdb
REMARK                            x       y       z     vdW  Elec       q    Type
REMARK                         _______ _______ _______ _____ _____    ______ ____
ROOT
ATOM      1  O   HOH    1       48.783   2.823   0.000  0.00  0.00    -0.410 OA
ATOM      2  H   HOH    0       49.366   1.805   0.000  0.00  0.00    +0.205 HD
ATOM      3  H   HOH    0       48.071   3.273   0.000  0.00  0.00    +0.205 HD
ENDROOT
TORSDOF 0
REMARK  Name = molecules/OGBMKVWORPGQRR-UMXFMPSGSA-N.pdb
REMARK                            x       y       z     vdW  Elec       q    Type
REMARK                         _______ _______ _______ _____ _____    ______ ____
ROOT
ATOM      1  O   HOH    1       44.338   4.565   0.000  0.00  0.00    -0.410 OA
ATOM      2  H   HOH    0       44.818   3.495   0.000  0.00  0.00    +0.205 HD
ATOM      3  H   HOH    0       44.392   5.406   0.000  0.00  0.00    +0.205 HD
ENDROOT
TORSDOF 0
REMARK  Name = molecules/OGBMKVWORPGQRR-UMXFMPSGSA-N.pdb
REMARK                            x       y       z     vdW  Elec       q    Type
REMARK                         _______ _______ _______ _____ _____    ______ ____
ROOT
ATOM      1  C   LIG    1       44.047   9.054   0.000  0.00  0.00    +0.000 C 
ENDROOT
TORSDOF 0
REMARK  Name = molecules/OGBMKVWORPGQRR-UMXFMPSGSA-N.pdb
REMARK                            x       y       z     vdW  Elec       q    Type
REMARK                         _______ _______ _______ _____ _____    ______ ____
ROOT
ATOM      1  O   HOH    1       40.965  11.055   0.000  0.00  0.00    -0.410 OA
ATOM      2  H   HOH    0       41.837  10.510   0.000  0.00  0.00    +0.205 HD
ATOM      3  H   HOH    0       41.150  11.768   0.000  0.00  0.00    +0.205 HD
ENDROOT
TORSDOF 0
REMARK  Name = molecules/OGBMKVWORPGQRR-UMXFMPSGSA-N.pdb
REMARK                            x       y       z     vdW  Elec       q    Type
REMARK                         _______ _______ _______ _____ _____    ______ ____
ROOT
ATOM      1  O   HOH    1       42.300  15.547   0.000  0.00  0.00    -0.410 OA
ATOM      2  H   HOH    0       42.883  14.530   0.000  0.00  0.00    +0.205 HD
ATOM      3  H   HOH    0       41.587  15.998   0.000  0.00  0.00    +0.205 HD
ENDROOT
TORSDOF 0
REMARK  Name = molecules/OGBMKVWORPGQRR-UMXFMPSGSA-N.pdb
REMARK                            x       y       z     vdW  Elec       q    Type
REMARK                         _______ _______ _______ _____ _____    ______ ____
ROOT
ATOM      1  O   HOH    1       37.854  17.289   0.000  0.00  0.00    -0.410 OA
ATOM      2  H   HOH    0       38.334  16.219   0.000  0.00  0.00    +0.205 HD
ATOM      3  H   HOH    0       37.490  16.469   0.000  0.00  0.00    +0.205 HD
ENDROOT
TORSDOF 0
REMARK  Name = molecules/OGBMKVWORPGQRR-UMXFMPSGSA-N.pdb
REMARK                            x       y       z     vdW  Elec       q    Type
REMARK                         _______ _______ _______ _____ _____    ______ ____
ROOT
ATOM      1  O   HOH    1       35.543  22.310   0.000  0.00  0.00    -0.253 OA
ATOM      2  H   HOH    0       35.092  21.597   0.000  0.00  0.00    +0.253 HD
ENDROOT
TORSDOF 0
REMARK  Name = molecules/OGBMKVWORPGQRR-UMXFMPSGSA-N.pdb
REMARK                            x       y       z     vdW  Elec       q    Type
REMARK                         _______ _______ _______ _____ _____    ______ ____
ROOT
ATOM      1  O   LIG    1       33.672  17.734   0.000  0.00  0.00    -0.386 OA
ATOM      2  C   LIG    1       34.805  17.065   0.000  0.00  0.00    +0.176 C 
ATOM      3  H   LIG    1       32.959  17.919   0.000  0.00  0.00    +0.210 HD
ENDROOT
TORSDOF 0
REMARK  Name = molecules/OGBMKVWORPGQRR-UMXFMPSGSA-N.pdb
REMARK                            x       y       z     vdW  Elec       q    Type
REMARK                         _______ _______ _______ _____ _____    ______ ____
ROOT
ATOM      1  C   LIG    1       29.311  17.574   0.000  0.00  0.00    +0.000 C 
ENDROOT
TORSDOF 0
REMARK  Name = molecules/OGBMKVWORPGQRR-UMXFMPSGSA-N.pdb
REMARK                            x       y       z     vdW  Elec       q    Type
REMARK                         _______ _______ _______ _____ _____    ______ ____
ROOT
ATOM      1  O   HOH    1       29.181  19.068   0.000  0.00  0.00    -0.410 OA
ATOM      2  H   HOH    0       30.198  19.651   0.000  0.00  0.00    +0.205 HD
ATOM      3  H   HOH    0       28.730  18.355   0.000  0.00  0.00    +0.205 HD
ENDROOT
TORSDOF 0
REMARK  Name = molecules/OGBMKVWORPGQRR-UMXFMPSGSA-N.pdb
REMARK                            x       y       z     vdW  Elec       q    Type
REMARK                         _______ _______ _______ _____ _____    ______ ____
ROOT
ATOM      1  O   LIG    1       27.310  14.492   0.000  0.00  0.00    -0.253 OA
ATOM      2  H   LIG    1       26.597  14.677   0.000  0.00  0.00    +0.253 HD
ENDROOT
BRANCH   1   3
ATOM      3  O   LIG    1       28.344  13.945   0.000  0.00  0.00    -0.253 OA
ATOM      4  H   LIG    1       28.508  15.103   0.000  0.00  0.00    +0.253 HD
ENDBRANCH   1   3
TORSDOF 1
REMARK  Name = molecules/OGBMKVWORPGQRR-UMXFMPSGSA-N.pdb
REMARK                            x       y       z     vdW  Elec       q    Type
REMARK                         _______ _______ _______ _____ _____    ______ ____
ROOT
ATOM      1  C   LIG    1       22.949  14.332   0.000  0.00  0.00    +0.000 C 
ENDROOT
TORSDOF 0
REMARK  Name = molecules/OGBMKVWORPGQRR-UMXFMPSGSA-N.pdb
REMARK                            x       y       z     vdW  Elec       q    Type
REMARK                         _______ _______ _______ _____ _____    ______ ____
ROOT
ATOM      1  O   HOH    1       22.637  15.799   0.000  0.00  0.00    -0.410 OA
ATOM      2  H   HOH    0       22.368  15.114   0.000  0.00  0.00    +0.205 HD
ATOM      3  H   HOH    0       23.835  16.410   0.000  0.00  0.00    +0.205 HD
ENDROOT
TORSDOF 0
REMARK  Name = molecules/OGBMKVWORPGQRR-UMXFMPSGSA-N.pdb
REMARK                            x       y       z     vdW  Elec       q    Type
REMARK                         _______ _______ _______ _____ _____    ______ ____
ROOT
ATOM      1  O   HOH    1       21.076  11.381   0.000  0.00  0.00    -0.410 OA
ATOM      2  H   HOH    0       20.235  11.435   0.000  0.00  0.00    +0.205 HD
ATOM      3  H   HOH    0       22.146  11.861   0.000  0.00  0.00    +0.205 HD
ENDROOT
TORSDOF 0
REMARK  Name = molecules/OGBMKVWORPGQRR-UMXFMPSGSA-N.pdb
REMARK                            x       y       z     vdW  Elec       q    Type
REMARK                         _______ _______ _______ _____ _____    ______ ____
ROOT
ATOM      1  C   LIG    1       20.867   9.700   0.000  0.00  0.00    +0.056 C 
ATOM      2  S   LIG    1       22.293   9.236   0.000  0.00  0.00    -0.144 S 
ATOM      3  C   LIG    1       22.605   7.769   0.000  0.00  0.00    +0.088 C 
ENDROOT
TORSDOF 0
REMARK  Name = molecules/OGBMKVWORPGQRR-UMXFMPSGSA-N.pdb
REMARK                            x       y       z     vdW  Elec       q    Type
REMARK                         _______ _______ _______ _____ _____    ______ ____
ROOT
ATOM      1  C   LIG    1       19.440  10.163   0.000  0.00  0.00    +0.000 C 
ENDROOT
TORSDOF 0
REMARK  Name = molecules/OGBMKVWORPGQRR-UMXFMPSGSA-N.pdb
REMARK                            x       y       z     vdW  Elec       q    Type
REMARK                         _______ _______ _______ _____ _____    ______ ____
ROOT
ATOM      1  O   HOH    1       16.456  12.585   0.000  0.00  0.00    -0.410 OA
ATOM      2  H   HOH    0       16.006  11.872   0.000  0.00  0.00    +0.205 HD
ATOM      3  H   HOH    0       17.473  13.168   0.000  0.00  0.00    +0.205 HD
ENDROOT
TORSDOF 0
REMARK  Name = molecules/OGBMKVWORPGQRR-UMXFMPSGSA-N.pdb
REMARK                            x       y       z     vdW  Elec       q    Type
REMARK                         _______ _______ _______ _____ _____    ______ ____
ROOT
ATOM      1  C   LIG    1       13.582   9.123   0.000  0.00  0.00    +0.000 C 
ENDROOT
TORSDOF 0
REMARK  Name = molecules/OGBMKVWORPGQRR-UMXFMPSGSA-N.pdb
REMARK                            x       y       z     vdW  Elec       q    Type
REMARK                         _______ _______ _______ _____ _____    ______ ____
ROOT
ATOM      1  O   HOH    1       14.714   8.139   0.000  0.00  0.00    -0.253 OA
ATOM      2  H   HOH    0       14.022   8.087   0.000  0.00  0.00    +0.253 HD
ENDROOT
TORSDOF 0
REMARK  Name = molecules/OGBMKVWORPGQRR-UMXFMPSGSA-N.pdb
REMARK                            x       y       z     vdW  Elec       q    Type
REMARK                         _______ _______ _______ _____ _____    ______ ____
ROOT
ATOM      1  C   LIG    1       10.225   7.848   0.000  0.00  0.00    +0.000 C 
ENDROOT
TORSDOF 0
REMARK  Name = molecules/OGBMKVWORPGQRR-UMXFMPSGSA-N.pdb
REMARK                            x       y       z     vdW  Elec       q    Type
REMARK                         _______ _______ _______ _____ _____    ______ ____
ROOT
ATOM      1  C   LIG    1       13.078   6.921   0.000  0.00  0.00    -0.005 C 
ATOM      2  C   LIG    1       12.444   5.672   0.000  0.00  0.00    +0.005 C 
ENDROOT
TORSDOF 0
REMARK  Name = molecules/OGBMKVWORPGQRR-UMXFMPSGSA-N.pdb
REMARK                            x       y       z     vdW  Elec       q    Type
REMARK                         _______ _______ _______ _____ _____    ______ ____
ROOT
ATOM      1  C   LIG    1       14.505   6.458   0.000  0.00  0.00    +0.000 C 
ENDROOT
TORSDOF 0
REMARK  Name = molecules/OGBMKVWORPGQRR-UMXFMPSGSA-N.pdb
REMARK                            x       y       z     vdW  Elec       q    Type
REMARK                         _______ _______ _______ _____ _____    ______ ____
ROOT
ATOM      1  C   LIG    1       15.931   5.994   0.000  0.00  0.00    +0.000 C 
ENDROOT
TORSDOF 0
REMARK  Name = molecules/OGBMKVWORPGQRR-UMXFMPSGSA-N.pdb
REMARK                            x       y       z     vdW  Elec       q    Type
REMARK                         _______ _______ _______ _____ _____    ______ ____
ROOT
ATOM      1  N   LIG    1       17.358   5.531   0.000  0.00  0.00    +0.132 NA
ATOM      2  C   LIG    1       18.473   6.535   0.000  0.00  0.00    +0.498 C 
ATOM      3  N   LIG    1       19.899   6.071   0.000  0.00  0.00    +0.132 NA
ENDROOT
BRANCH   2   4
ATOM      4  N   LIG    1       18.161   8.002   0.000  0.00  0.00    -0.281 N 
ATOM      5  H   LIG    1       17.550   9.200   0.000  0.00  0.00    +0.255 HD
ATOM      6  H   LIG    1       19.154   8.691   0.000  0.00  0.00    +0.255 HD
ENDBRANCH   2   4
TORSDOF 1
REMARK  Name = molecules/OGBMKVWORPGQRR-UMXFMPSGSA-N.pdb
REMARK                            x       y       z     vdW  Elec       q    Type
REMARK                         _______ _______ _______ _____ _____    ______ ____
ROOT
ATOM      1  C   LIG    1       11.651   7.385   0.000  0.00  0.00    +0.225 C 
ATOM      2  O   LIG    1       12.198   8.418   0.000  0.00  0.00    -0.225 OA
ENDROOT
TORSDOF 0
REMARK  Name = molecules/OGBMKVWORPGQRR-UMXFMPSGSA-N.pdb
REMARK                            x       y       z     vdW  Elec       q    Type
REMARK                         _______ _______ _______ _____ _____    ______ ____
ROOT
ATOM      1  O   HOH    1       10.267   9.063   0.000  0.00  0.00    -0.253 OA
ATOM      2  H   HOH    0       10.295   8.207   0.000  0.00  0.00    +0.253 HD
ENDROOT
TORSDOF 0
REMARK  Name = molecules/OGBMKVWORPGQRR-UMXFMPSGSA-N.pdb
REMARK                            x       y       z     vdW  Elec       q    Type
REMARK                         _______ _______ _______ _____ _____    ______ ____
ROOT
ATOM      1  C   LIG    1        8.147   8.735   0.000  0.00  0.00    -0.040 C 
ATOM      2  C   LIG    1        7.372   8.776   0.000  0.00  0.00    +0.004 C 
ATOM      3  C   LIG    1        8.798   8.312   0.000  0.00  0.00    +0.035 C 
ENDROOT
TORSDOF 0
REMARK  Name = molecules/OGBMKVWORPGQRR-UMXFMPSGSA-N.pdb
REMARK                            x       y       z     vdW  Elec       q    Type
REMARK                         _______ _______ _______ _____ _____    ______ ____
ROOT
ATOM      1  C   LIG    1        6.756   4.455   0.000  0.00  0.00    +0.013 C 
ATOM      2  C   LIG    1        7.615   4.021   0.000  0.00  0.00    +0.009 C 
ENDROOT
BRANCH   1   3
ATOM      3  C   LIG    1        6.148   3.710   0.000  0.00  0.00    -0.009 C 
ATOM      4  C   LIG    1        5.983   2.552   0.000  0.00  0.00    -0.013 C 
ENDBRANCH   1   3
TORSDOF 1
REMARK  Name = molecules/OGBMKVWORPGQRR-UMXFMPSGSA-N.pdb
REMARK                            x       y       z     vdW  Elec       q    Type
REMARK                         _______ _______ _______ _____ _____    ______ ____
ROOT
ATOM      1  C   LIG    1        7.684   7.308   0.000  0.00  0.00    +0.176 C 
ATOM      2  O   LIG    1        6.639   7.648   0.000  0.00  0.00    -0.386 OA
ATOM      3  H   LIG    1        5.715   7.843   0.000  0.00  0.00    +0.210 HD
ENDROOT
TORSDOF 0
REMARK  Name = molecules/OGBMKVWORPGQRR-UMXFMPSGSA-N.pdb
REMARK                            x       y       z     vdW  Elec       q    Type
REMARK                         _______ _______ _______ _____ _____    ______ ____
ROOT
ATOM      1  C   LIG    1        5.793   6.345   0.000  0.00  0.00    -0.083 C 
ATOM      2  C   LIG    1        6.951   6.181   0.000  0.00  0.00    -0.014 C 
ATOM      3  C   LIG    1        4.749   6.685   0.000  0.00  0.00    +0.097 C 
ENDROOT
TORSDOF 0
REMARK  Name = molecules/OGBMKVWORPGQRR-UMXFMPSGSA-N.pdb
REMARK                            x       y       z     vdW  Elec       q    Type
REMARK                         _______ _______ _______ _____ _____    ______ ____
ROOT
ATOM      1  C   LIG    1        7.220   5.882   0.000  0.00  0.00    +0.000 C 
ENDROOT
TORSDOF 0
REMARK  Name = molecules/OGBMKVWORPGQRR-UMXFMPSGSA-N.pdb
REMARK                            x       y       z     vdW  Elec       q    Type
REMARK                         _______ _______ _______ _____ _____    ______ ____
ROOT
ATOM      1  O   HOH    1        9.335   8.988   0.000  0.00  0.00    -0.410 OA
ATOM      2  H   HOH    0        9.996   8.923   0.000  0.00  0.00    +0.205 HD
ATOM      3  H   HOH    0        9.593   9.584   0.000  0.00  0.00    +0.205 HD
ENDROOT
TORSDOF 0
REMARK  Name = molecules/OGBMKVWORPGQRR-UMXFMPSGSA-N.pdb
REMARK                            x       y       z     vdW  Elec       q    Type
REMARK                         _______ _______ _______ _____ _____    ______ ____
ROOT
ATOM      1  C   LIG    1        6.180  11.740   0.000  0.00  0.00    -0.009 C 
ATOM      2  C   LIG    1        6.140  10.964   0.000  0.00  0.00    +0.009 C 
ENDROOT
TORSDOF 0
REMARK  Name = molecules/OGBMKVWORPGQRR-UMXFMPSGSA-N.pdb
REMARK                            x       y       z     vdW  Elec       q    Type
REMARK                         _______ _______ _______ _____ _____    ______ ____
ROOT
ATOM      1  C   LIG    1        9.033  10.813   0.000  0.00  0.00    +0.000 C 
ENDROOT
TORSDOF 0
REMARK  Name = molecules/OGBMKVWORPGQRR-UMXFMPSGSA-N.pdb
REMARK                            x       y       z     vdW  Elec       q    Type
REMARK                         _______ _______ _______ _____ _____    ______ ____
ROOT
ATOM      1  C   LIG    1       10.460  10.349   0.000  0.00  0.00    +0.000 C 
ENDROOT
TORSDOF 0
REMARK  Name = molecules/OGBMKVWORPGQRR-UMXFMPSGSA-N.pdb
REMARK                            x       y       z     vdW  Elec       q    Type
REMARK                         _______ _______ _______ _____ _____    ______ ____
ROOT
ATOM      1  O   LIG    1        5.196  10.608   0.000  0.00  0.00    +0.000 OA
ATOM      2  O   LIG    1        5.110  11.260   0.000  0.00  0.00    +0.000 OA
ENDROOT
TORSDOF 0
REMARK  Name = molecules/OGBMKVWORPGQRR-UMXFMPSGSA-N.pdb
REMARK                            x       y       z     vdW  Elec       q    Type
REMARK                         _______ _______ _______ _____ _____    ______ ____
ROOT
ATOM      1  C   LIG    1        3.978  12.244   0.000  0.00  0.00    +0.000 C 
ENDROOT
TORSDOF 0
REMARK  Name = molecules/OGBMKVWORPGQRR-UMXFMPSGSA-N.pdb
REMARK                            x       y       z     vdW  Elec       q    Type
REMARK                         _______ _______ _______ _____ _____    ______ ____
ROOT
ATOM      1  C   LIG    1        4.905  15.097   0.000  0.00  0.00    +0.000 C 
ATOM      2  C   LIG    1        4.442  13.671   0.000  0.00  0.00    +0.000 C 
ENDROOT
TORSDOF 0
REMARK  Name = molecules/OGBMKVWORPGQRR-UMXFMPSGSA-N.pdb
REMARK                            x       y       z     vdW  Elec       q    Type
REMARK                         _______ _______ _______ _____ _____    ______ ____
ROOT
ATOM      1  C   LIG    1        5.832  17.950   0.000  0.00  0.00    -0.058 C 
ATOM      2  C   LIG    1        5.369  18.951   0.000  0.00  0.00    -0.006 C 
ATOM      3  C   LIG    1        6.296  19.377   0.000  0.00  0.00    +0.025 C 
ATOM      4  N   LIG    1        6.760  20.803   0.000  0.00  0.00    -0.157 NA
ATOM      5  N   LIG    1        6.795  18.487   0.000  0.00  0.00    +0.397 N 
ATOM      6  H   LIG    1        7.329  17.846   0.000  0.00  0.00    -0.082 HD
ATOM      7  H   LIG    1        7.768  19.091   0.000  0.00  0.00    -0.082 HD
ENDROOT
BRANCH   1   9
ATOM      8  C   LIG    1        5.369  16.524   0.000  0.00  0.00    -0.007 C 
ATOM      9  C   LIG    1        6.795  16.987   0.000  0.00  0.00    -0.011 C 
ENDBRANCH   1   9
BRANCH   1  10
ATOM     10  C   LIG    1        4.487  17.737   0.000  0.00  0.00    -0.011 C 
ATOM     11  C   LIG    1        5.369  16.524   0.000  0.00  0.00    -0.007 C 
ENDBRANCH   1  10
TORSDOF 2
REMARK  Name = molecules/OGBMKVWORPGQRR-UMXFMPSGSA-N.pdb
REMARK                            x       y       z     vdW  Elec       q    Type
REMARK                         _______ _______ _______ _____ _____    ______ ____
ROOT
ATOM      1  C   LIG    1        2.995  17.894   0.000  0.00  0.00    -0.004 C 
ATOM      2  C   LIG    1        2.385  19.264   0.000  0.00  0.00    -0.023 C 
ENDROOT
BRANCH   2   3
ATOM      3  C   LIG    1        3.267  20.478   0.000  0.00  0.00    +0.022 C 
ATOM      4  C   LIG    1        4.759  20.321   0.000  0.00  0.00    +0.004 C 
ENDBRANCH   2   3
TORSDOF 1
REMARK  Name = molecules/OGBMKVWORPGQRR-UMXFMPSGSA-N.pdb
REMARK                            x       y       z     vdW  Elec       q    Type
REMARK                         _______ _______ _______ _____ _____    ______ ____
ROOT
ATOM      1  O   HOH    1        2.720  11.427   0.000  0.00  0.00    +0.000 OA
ENDROOT
TORSDOF 0
REMARK  Name = molecules/OGBMKVWORPGQRR-UMXFMPSGSA-N.pdb
REMARK                            x       y       z     vdW  Elec       q    Type
REMARK                         _______ _______ _______ _____ _____    ______ ____
ROOT
ATOM      1  C   LIG    1        3.092  10.166   0.000  0.00  0.00    +0.000 C 
ENDROOT
TORSDOF 0
REMARK  Name = molecules/OGBMKVWORPGQRR-UMXFMPSGSA-N.pdb
REMARK                            x       y       z     vdW  Elec       q    Type
REMARK                         _______ _______ _______ _____ _____    ______ ____
ROOT
ATOM      1  C   LIG    1        5.945   9.239   0.000  0.00  0.00    +0.000 C 
ENDROOT
TORSDOF 0
REMARK  Name = molecules/OGBMKVWORPGQRR-UMXFMPSGSA-N.pdb
REMARK                            x       y       z     vdW  Elec       q    Type
REMARK                         _______ _______ _______ _____ _____    ______ ____
ROOT
ATOM      1  C   LIG    1        4.519   9.703   0.000  0.00  0.00    +0.009 C 
ATOM      2  C   LIG    1        3.474  10.042   0.000  0.00  0.00    -0.005 C 
ATOM      3  C   LIG    1        5.676   9.538   0.000  0.00  0.00    -0.005 C 
ENDROOT
TORSDOF 0
REMARK  Name = molecules/OGBMKVWORPGQRR-UMXFMPSGSA-N.pdb
REMARK                            x       y       z     vdW  Elec       q    Type
REMARK                         _______ _______ _______ _____ _____    ______ ____
ROOT
ATOM      1  C   LIG    1        0.087   8.199   0.000  0.00  0.00    +0.279 C 
ATOM      2  O   LIG    1       -0.347   7.340   0.000  0.00  0.00    -0.279 OA
ENDROOT
TORSDOF 0
REMARK  Name = molecules/OGBMKVWORPGQRR-UMXFMPSGSA-N.pdb
REMARK                            x       y       z     vdW  Elec       q    Type
REMARK                         _______ _______ _______ _____ _____    ______ ____
ROOT
ATOM      1  O   LIG    1       -0.874   4.630   0.000  0.00  0.00    -0.265 OA
ENDROOT
BRANCH   1   2
ATOM      2  C   LIG    1       -0.840   5.346   0.000  0.00  0.00    +0.168 C 
BRANCH   2   4
ATOM      3  C   LIG    1       -0.377   6.773   0.000  0.00  0.00    +0.008 C 
ATOM      4  C   LIG    1       -0.035   5.873   0.000  0.00  0.00    +0.030 C 
ENDBRANCH   2   4
ENDBRANCH   1   2
BRANCH   1   5
ATOM      5  N   LIG    1       -1.304   3.920   0.000  0.00  0.00    -0.063 NA
BRANCH   5   6
ATOM      6  C   LIG    1       -0.300   2.805   0.000  0.00  0.00    +0.230 C 
ATOM      7  N   LIG    1       -0.763   1.378   0.000  0.00  0.00    -0.108 NA
ENDBRANCH   5   6
ENDBRANCH   1   5
TORSDOF 4
REMARK  Name = molecules/OGBMKVWORPGQRR-UMXFMPSGSA-N.pdb
REMARK                            x       y       z     vdW  Elec       q    Type
REMARK                         _______ _______ _______ _____ _____    ______ ____
ROOT
ATOM      1  N   LIG    1        1.167   3.117   0.000  0.00  0.00    +0.000 NA
ENDROOT
TORSDOF 0
REMARK  Name = molecules/OGBMKVWORPGQRR-UMXFMPSGSA-N.pdb
REMARK                            x       y       z     vdW  Elec       q    Type
REMARK                         _______ _______ _______ _____ _____    ______ ____
ROOT
ATOM      1  C   LIG    1        1.901  13.130   0.000  0.00  0.00    +0.000 C 
ENDROOT
TORSDOF 0
REMARK  Name = molecules/OGBMKVWORPGQRR-UMXFMPSGSA-N.pdb
REMARK                            x       y       z     vdW  Elec       q    Type
REMARK                         _______ _______ _______ _____ _____    ______ ____
ROOT
ATOM      1  C   LIG    1       -3.806  14.985   0.000  0.00  0.00    +0.020 C 
ATOM      2  C   LIG    1       -5.232  15.448   0.000  0.00  0.00    +0.124 C 
ATOM      3  N   LIG    1       -6.659  15.912   0.000  0.00  0.00    -0.143 NA
ENDROOT
TORSDOF 0
REMARK  Name = molecules/OGBMKVWORPGQRR-UMXFMPSGSA-N.pdb
REMARK                            x       y       z     vdW  Elec       q    Type
REMARK                         _______ _______ _______ _____ _____    ______ ____
ROOT
ATOM      1  C   LIG    1       -2.379  14.521   0.000  0.00  0.00    +0.000 C 
ENDROOT
TORSDOF 0
REMARK  Name = molecules/OGBMKVWORPGQRR-UMXFMPSGSA-N.pdb
REMARK                            x       y       z     vdW  Elec       q    Type
REMARK                         _______ _______ _______ _____ _____    ______ ____
ROOT
ATOM      1  C   LIG    1        3.978  12.244   0.000  0.00  0.00    +0.000 C 
ENDROOT
TORSDOF 0
REMARK  Name = molecules/OGBMKVWORPGQRR-UMXFMPSGSA-N.pdb
REMARK                            x       y       z     vdW  Elec       q    Type
REMARK                         _______ _______ _______ _____ _____    ______ ____
ROOT
ATOM      1  C   LIG    1        4.905  15.097   0.000  0.00  0.00    +0.000 C 
ATOM      2  C   LIG    1        4.442  13.671   0.000  0.00  0.00    +0.000 C 
ENDROOT
TORSDOF 0
REMARK  Name = molecules/OGBMKVWORPGQRR-UMXFMPSGSA-N.pdb
REMARK                            x       y       z     vdW  Elec       q    Type
REMARK                         _______ _______ _______ _____ _____    ______ ____
ROOT
ATOM      1  C   LIG    1       -2.232  11.896   0.000  0.00  0.00    +0.000 C 
ENDROOT
TORSDOF 0
REMARK  Name = molecules/OGBMKVWORPGQRR-UMXFMPSGSA-N.pdb
REMARK                            x       y       z     vdW  Elec       q    Type
REMARK                         _______ _______ _______ _____ _____    ______ ____
ROOT
ATOM      1  O   HOH    1        4.155  11.379   0.000  0.00  0.00    -0.253 OA
ATOM      2  H   HOH    0        4.780  11.598   0.000  0.00  0.00    +0.253 HD
ENDROOT
TORSDOF 0
REMARK  Name = molecules/OGBMKVWORPGQRR-UMXFMPSGSA-N.pdb
REMARK                            x       y       z     vdW  Elec       q    Type
REMARK                         _______ _______ _______ _____ _____    ______ ____
ROOT
ATOM      1  C   LIG    1        6.603  12.391   0.000  0.00  0.00    +0.000 C 
ENDROOT
TORSDOF 0
REMARK  Name = molecules/OGBMKVWORPGQRR-UMXFMPSGSA-N.pdb
REMARK                            x       y       z     vdW  Elec       q    Type
REMARK                         _______ _______ _______ _____ _____    ______ ____
ROOT
ATOM      1  N   LIG    1        8.070  12.703   0.000  0.00  0.00    +0.000 NA
ENDROOT
TORSDOF 0
REMARK  Name = molecules/OGBMKVWORPGQRR-UMXFMPSGSA-N.pdb
REMARK                            x       y       z     vdW  Elec       q    Type
REMARK                         _______ _______ _______ _____ _____    ______ ____
ROOT
ATOM      1  O   HOH    1        5.743  13.620   0.000  0.00  0.00    -0.410 OA
ATOM      2  H   HOH    0        6.332  14.634   0.000  0.00  0.00    +0.205 HD
ATOM      3  H   HOH    0        5.607  12.726   0.000  0.00  0.00    +0.205 HD
ENDROOT
TORSDOF 0
REMARK  Name = molecules/OGBMKVWORPGQRR-UMXFMPSGSA-N.pdb
REMARK                            x       y       z     vdW  Elec       q    Type
REMARK                         _______ _______ _______ _____ _____    ______ ____
ROOT
ATOM      1  C   LIG    1        5.213   8.111   0.000  0.00  0.00    +0.000 C 
ENDROOT
TORSDOF 0
REMARK  Name = molecules/OGBMKVWORPGQRR-UMXFMPSGSA-N.pdb
REMARK                            x       y       z     vdW  Elec       q    Type
REMARK                         _______ _______ _______ _____ _____    ______ ____
ROOT
ATOM      1  O   LIG    1        4.749   5.185   0.000  0.00  0.00    -0.218 OA
ATOM      2  O   LIG    1        5.360   5.486   0.000  0.00  0.00    -0.038 OA
ATOM      3  H   LIG    1        4.477   5.811   0.000  0.00  0.00    +0.256 HD
ENDROOT
TORSDOF 0
REMARK  Name = molecules/OGBMKVWORPGQRR-UMXFMPSGSA-N.pdb
REMARK                            x       y       z     vdW  Elec       q    Type
REMARK                         _______ _______ _______ _____ _____    ______ ____
ROOT
ATOM      1  C   LIG    1        4.245   4.483   0.000  0.00  0.00    +0.279 C 
ATOM      2  O   LIG    1        5.037   4.491   0.000  0.00  0.00    -0.279 OA
ENDROOT
TORSDOF 0
REMARK  Name = molecules/OGBMKVWORPGQRR-UMXFMPSGSA-N.pdb
REMARK                            x       y       z     vdW  Elec       q    Type
REMARK                         _______ _______ _______ _____ _____    ______ ____
ROOT
ATOM      1  C   LIG    1        1.392   5.410   0.000  0.00  0.00    -0.000 C 
ENDROOT
TORSDOF 0
REMARK  Name = molecules/OGBMKVWORPGQRR-UMXFMPSGSA-N.pdb
REMARK                            x       y       z     vdW  Elec       q    Type
REMARK                         _______ _______ _______ _____ _____    ______ ____
ROOT
ATOM      1  C   LIG    1        2.818   4.946   0.000  0.00  0.00    +0.000 C 
ENDROOT
TORSDOF 0
REMARK  Name = molecules/OGBMKVWORPGQRR-UMXFMPSGSA-N.pdb
REMARK                            x       y       z     vdW  Elec       q    Type
REMARK                         _______ _______ _______ _____ _____    ______ ____
ROOT
ATOM      1  C   LIG    1        6.447   3.978   0.000  0.00  0.00    +0.000 C 
ENDROOT
TORSDOF 0
REMARK  Name = molecules/OGBMKVWORPGQRR-UMXFMPSGSA-N.pdb
REMARK                            x       y       z     vdW  Elec       q    Type
REMARK                         _______ _______ _______ _____ _____    ______ ____
ROOT
ATOM      1  C   LIG    1        5.056  -0.301   0.000  0.00  0.00    -0.004 C 
ATOM      2  C   LIG    1        5.520   1.125   0.000  0.00  0.00    +0.004 C 
ENDROOT
TORSDOF 0
REMARK  Name = molecules/OGBMKVWORPGQRR-UMXFMPSGSA-N.pdb
REMARK                            x       y       z     vdW  Elec       q    Type
REMARK                         _______ _______ _______ _____ _____    ______ ____
ROOT
ATOM      1  C   LIG    1        4.093   1.589   0.000  0.00  0.00    +0.000 C 
ENDROOT
TORSDOF 0
REMARK  Name = molecules/OGBMKVWORPGQRR-UMXFMPSGSA-N.pdb
REMARK                            x       y       z     vdW  Elec       q    Type
REMARK                         _______ _______ _______ _____ _____    ______ ____
ROOT
ATOM      1  C   LIG    1        9.804   5.253   0.000  0.00  0.00    +0.000 C 
ENDROOT
TORSDOF 0
REMARK  Name = molecules/OGBMKVWORPGQRR-UMXFMPSGSA-N.pdb
REMARK                            x       y       z     vdW  Elec       q    Type
REMARK                         _______ _______ _______ _____ _____    ______ ____
ROOT
ATOM      1  C   LIG    1       11.231   4.790   0.000  0.00  0.00    +0.279 C 
ATOM      2  O   LIG    1       11.003   5.546   0.000  0.00  0.00    -0.279 OA
ENDROOT
TORSDOF 0
REMARK  Name = molecules/OGBMKVWORPGQRR-UMXFMPSGSA-N.pdb
REMARK                            x       y       z     vdW  Elec       q    Type
REMARK                         _______ _______ _______ _____ _____    ______ ____
ROOT
ATOM      1  N   LIG    1       13.658   4.790   0.000  0.00  0.00    -0.350 N 
ATOM      2  H   LIG    1       14.400   4.962   0.000  0.00  0.00    +0.143 HD
ATOM      3  H   LIG    1       12.973   5.425   0.000  0.00  0.00    +0.143 HD
ENDROOT
BRANCH   1   4
ATOM      4  C   LIG    1       13.194   3.363   0.000  0.00  0.00    +0.169 C 
ATOM      5  N   LIG    1       11.694   3.363   0.000  0.00  0.00    -0.293 NA
ATOM      6  H   LIG    1       11.865   2.063   0.000  0.00  0.00    +0.187 HD
ENDBRANCH   1   4
TORSDOF 1
REMARK  Name = molecules/OGBMKVWORPGQRR-UMXFMPSGSA-N.pdb
REMARK                            x       y       z     vdW  Elec       q    Type
REMARK                         _______ _______ _______ _____ _____    ______ ____
ROOT
ATOM      1  C   LIG    1        8.378   5.717   0.000  0.00  0.00    +0.000 C 
ENDROOT
TORSDOF 0
REMARK  Name = molecules/OGBMKVWORPGQRR-UMXFMPSGSA-N.pdb
REMARK                            x       y       z     vdW  Elec       q    Type
REMARK                         _______ _______ _______ _____ _____    ______ ____
ROOT
ATOM      1  C   LIG    1        4.681   3.398   0.000  0.00  0.00    +0.000 C 
ENDROOT
TORSDOF 0
REMARK  Name = molecules/OGBMKVWORPGQRR-UMXFMPSGSA-N.pdb
REMARK                            x       y       z     vdW  Elec       q    Type
REMARK                         _______ _______ _______ _____ _____    ______ ____
ROOT
ATOM      1  C   LIG    1        3.214   3.086   0.000  0.00  0.00    +0.000 C 
ENDROOT
TORSDOF 0
REMARK  Name = molecules/OGBMKVWORPGQRR-UMXFMPSGSA-N.pdb
REMARK                            x       y       z     vdW  Elec       q    Type
REMARK                         _______ _______ _______ _____ _____    ______ ____
ROOT
ATOM      1  N   LIG    1        2.750   1.659   0.000  0.00  0.00    -0.273 NA
ATOM      2  H   LIG    1        1.705   1.716   0.000  0.00  0.00    +0.137 HD
ATOM      3  H   LIG    1        3.328   2.155   0.000  0.00  0.00    +0.137 HD
ENDROOT
TORSDOF 0
REMARK  Name = molecules/OGBMKVWORPGQRR-UMXFMPSGSA-N.pdb
REMARK                            x       y       z     vdW  Elec       q    Type
REMARK                         _______ _______ _______ _____ _____    ______ ____
ROOT
ATOM      1  O   HOH    1        2.210   4.200   0.000  0.00  0.00    -0.410 OA
ATOM      2  H   HOH    0        1.631   4.543   0.000  0.00  0.00    +0.205 HD
ATOM      3  H   HOH    0        1.470   3.912   0.000  0.00  0.00    +0.205 HD
ENDROOT
TORSDOF 0
REMARK  Name = molecules/OGBMKVWORPGQRR-UMXFMPSGSA-N.pdb
REMARK                            x       y       z     vdW  Elec       q    Type
REMARK                         _______ _______ _______ _____ _____    ______ ____
ROOT
ATOM      1  O   HOH    1        8.249   5.381   0.000  0.00  0.00    -0.253 OA
ATOM      2  H   HOH    0        8.234   4.716   0.000  0.00  0.00    +0.253 HD
ENDROOT
TORSDOF 0
REMARK  Name = molecules/OGBMKVWORPGQRR-UMXFMPSGSA-N.pdb
REMARK                            x       y       z     vdW  Elec       q    Type
REMARK                         _______ _______ _______ _____ _____    ______ ____
ROOT
ATOM      1  C   LIG    1        9.774   4.686   0.000  0.00  0.00    +0.000 C 
ENDROOT
TORSDOF 0
REMARK  Name = molecules/OGBMKVWORPGQRR-UMXFMPSGSA-N.pdb
REMARK                            x       y       z     vdW  Elec       q    Type
REMARK                         _______ _______ _______ _____ _____    ______ ____
ROOT
ATOM      1  C   LIG    1       10.398   1.751   0.000  0.00  0.00    +0.035 C 
ATOM      2  C   LIG    1       10.710   0.284   0.000  0.00  0.00    -0.043 A 
ATOM      3  C   LIG    1       12.137  -0.179   0.000  0.00  0.00    +0.004 A 
ATOM      4  C   LIG    1       12.448  -1.647   0.000  0.00  0.00    +0.000 A 
ATOM      5  C   LIG    1       11.334  -2.650   0.000  0.00  0.00    +0.000 A 
ATOM      6  C   LIG    1        9.907  -2.187   0.000  0.00  0.00    +0.000 A 
ATOM      7  C   LIG    1        9.595  -0.720   0.000  0.00  0.00    +0.004 A 
ENDROOT
TORSDOF 0
REMARK  Name = molecules/OGBMKVWORPGQRR-UMXFMPSGSA-N.pdb
REMARK                            x       y       z     vdW  Elec       q    Type
REMARK                         _______ _______ _______ _____ _____    ______ ____
ROOT
ATOM      1  C   LIG    1       10.086   3.219   0.000  0.00  0.00    +0.000 C 
ENDROOT
TORSDOF 0
REMARK  Name = molecules/OGBMKVWORPGQRR-UMXFMPSGSA-N.pdb
REMARK                            x       y       z     vdW  Elec       q    Type
REMARK                         _______ _______ _______ _____ _____    ______ ____
ROOT
ATOM      1  H   UNK    1       56.870 -16.509   0.000  0.00  0.00    +0.000 HD
ENDROOT
TORSDOF 0
REMARK  Name = molecules/OGBMKVWORPGQRR-UMXFMPSGSA-N.pdb
REMARK                            x       y       z     vdW  Elec       q    Type
REMARK                         _______ _______ _______ _____ _____    ______ ____
ROOT
ATOM      1  H   UNK    1       55.850 -10.919   0.000  0.00  0.00    +0.000 HD
ENDROOT
TORSDOF 0
REMARK  Name = molecules/OGBMKVWORPGQRR-UMXFMPSGSA-N.pdb
REMARK                            x       y       z     vdW  Elec       q    Type
REMARK                         _______ _______ _______ _____ _____    ______ ____
ROOT
ATOM      1  H   UNK    1       52.722  -4.700   0.000  0.00  0.00    +0.000 HD
ENDROOT
TORSDOF 0
REMARK  Name = molecules/OGBMKVWORPGQRR-UMXFMPSGSA-N.pdb
REMARK                            x       y       z     vdW  Elec       q    Type
REMARK                         _______ _______ _______ _____ _____    ______ ____
ROOT
ATOM      1  H   UNK    1       39.641  20.892   0.000  0.00  0.00    +0.000 HD
ENDROOT
TORSDOF 0
REMARK  Name = molecules/OGBMKVWORPGQRR-UMXFMPSGSA-N.pdb
REMARK                            x       y       z     vdW  Elec       q    Type
REMARK                         _______ _______ _______ _____ _____    ______ ____
ROOT
ATOM      1  H   UNK    1       15.784   8.619   0.000  0.00  0.00    +0.000 HD
ENDROOT
TORSDOF 0
REMARK  Name = molecules/OGBMKVWORPGQRR-UMXFMPSGSA-N.pdb
REMARK                            x       y       z     vdW  Elec       q    Type
REMARK                         _______ _______ _______ _____ _____    ______ ____
ROOT
ATOM      1  H   UNK    1        5.676   9.538   0.000  0.00  0.00    +0.000 HD
ENDROOT
TORSDOF 0
REMARK  Name = molecules/OGBMKVWORPGQRR-UMXFMPSGSA-N.pdb
REMARK                            x       y       z     vdW  Elec       q    Type
REMARK                         _______ _______ _______ _____ _____    ______ ____
ROOT
ATOM      1  H   UNK    1        7.193  13.911   0.000  0.00  0.00    +0.000 HD
ENDROOT
TORSDOF 0
REMARK  Name = molecules/OGBMKVWORPGQRR-UMXFMPSGSA-N.pdb
REMARK                            x       y       z     vdW  Elec       q    Type
REMARK                         _______ _______ _______ _____ _____    ______ ____
ROOT
ATOM      1  H   UNK    1        2.108   7.668   0.000  0.00  0.00    +0.000 HD
ENDROOT
TORSDOF 0
REMARK  Name = molecules/OGBMKVWORPGQRR-UMXFMPSGSA-N.pdb
REMARK                            x       y       z     vdW  Elec       q    Type
REMARK                         _______ _______ _______ _____ _____    ______ ____
ROOT
ATOM      1  H   UNK    1        2.358  15.482   0.000  0.00  0.00    +0.000 HD
ENDROOT
TORSDOF 0
REMARK  Name = molecules/OGBMKVWORPGQRR-UMXFMPSGSA-N.pdb
REMARK                            x       y       z     vdW  Elec       q    Type
REMARK                         _______ _______ _______ _____ _____    ______ ____
ROOT
ATOM      1  H   UNK    1        2.671   7.571   0.000  0.00  0.00    +0.000 HD
ENDROOT
TORSDOF 0
REMARK  Name = molecules/OGBMKVWORPGQRR-UMXFMPSGSA-N.pdb
REMARK                            x       y       z     vdW  Elec       q    Type
REMARK                         _______ _______ _______ _____ _____    ______ ____
ROOT
ATOM      1  H   UNK    1        2.278   7.487   0.000  0.00  0.00    +0.000 HD
ENDROOT
TORSDOF 0
REMARK  Name = molecules/OGBMKVWORPGQRR-UMXFMPSGSA-N.pdb
REMARK                            x       y       z     vdW  Elec       q    Type
REMARK                         _______ _______ _______ _____ _____    ______ ____
ROOT
ATOM      1  H   UNK    1        9.046   3.306   0.000  0.00  0.00    +0.000 HD
ENDROOT
TORSDOF 0
REMARK  Name = molecules/OGBMKVWORPGQRR-UMXFMPSGSA-N.pdb
REMARK                            x       y       z     vdW  Elec       q    Type
REMARK                         _______ _______ _______ _____ _____    ______ ____
ROOT
ATOM      1  H   UNK    1        7.985   1.547   0.000  0.00  0.00    +0.000 HD
ENDROOT
TORSDOF 0
REMARK  Name = molecules/OGBMKVWORPGQRR-UMXFMPSGSA-N.pdb
REMARK                            x       y       z     vdW  Elec       q    Type
REMARK                         _______ _______ _______ _____ _____    ______ ____
ROOT
ATOM      1  H   UNK    1       59.639 -16.248   0.000  0.00  0.00    +0.000 HD
ENDROOT
TORSDOF 0
REMARK  Name = molecules/OGBMKVWORPGQRR-UMXFMPSGSA-N.pdb
REMARK                            x       y       z     vdW  Elec       q    Type
REMARK                         _______ _______ _______ _____ _____    ______ ____
ROOT
ATOM      1  H   UNK    1       53.808 -14.776   0.000  0.00  0.00    +0.000 HD
ENDROOT
TORSDOF 0
REMARK  Name = molecules/OGBMKVWORPGQRR-UMXFMPSGSA-N.pdb
REMARK                            x       y       z     vdW  Elec       q    Type
REMARK                         _______ _______ _______ _____ _____    ______ ____
ROOT
ATOM      1  H   UNK    1       49.216 -11.918   0.000  0.00  0.00    +0.000 HD
ENDROOT
TORSDOF 0
REMARK  Name = molecules/OGBMKVWORPGQRR-UMXFMPSGSA-N.pdb
REMARK                            x       y       z     vdW  Elec       q    Type
REMARK                         _______ _______ _______ _____ _____    ______ ____
ROOT
ATOM      1  H   UNK    1       54.270  -2.520   0.000  0.00  0.00    +0.000 HD
ENDROOT
TORSDOF 0
REMARK  Name = molecules/OGBMKVWORPGQRR-UMXFMPSGSA-N.pdb
REMARK                            x       y       z     vdW  Elec       q    Type
REMARK                         _______ _______ _______ _____ _____    ______ ____
ROOT
ATOM      1  H   UNK    1       53.307  -0.629   0.000  0.00  0.00    +0.000 HD
ENDROOT
TORSDOF 0
REMARK  Name = molecules/OGBMKVWORPGQRR-UMXFMPSGSA-N.pdb
REMARK                            x       y       z     vdW  Elec       q    Type
REMARK                         _______ _______ _______ _____ _____    ______ ____
ROOT
ATOM      1  H   UNK    1       43.504  -4.753   0.000  0.00  0.00    +0.000 HD
ENDROOT
TORSDOF 0
REMARK  Name = molecules/OGBMKVWORPGQRR-UMXFMPSGSA-N.pdb
REMARK                            x       y       z     vdW  Elec       q    Type
REMARK                         _______ _______ _______ _____ _____    ______ ____
ROOT
ATOM      1  H   UNK    1       42.964  -2.212   0.000  0.00  0.00    +0.000 HD
ENDROOT
TORSDOF 0
REMARK  Name = molecules/OGBMKVWORPGQRR-UMXFMPSGSA-N.pdb
REMARK                            x       y       z     vdW  Elec       q    Type
REMARK                         _______ _______ _______ _____ _____    ______ ____
ROOT
ATOM      1  H   UNK    1       50.214  11.132   0.000  0.00  0.00    +0.000 HD
ENDROOT
TORSDOF 0
REMARK  Name = molecules/OGBMKVWORPGQRR-UMXFMPSGSA-N.pdb
REMARK                            x       y       z     vdW  Elec       q    Type
REMARK                         _______ _______ _______ _____ _____    ______ ____
ROOT
ATOM      1  H   UNK    1       39.955   8.595   0.000  0.00  0.00    +0.000 HD
ENDROOT
TORSDOF 0
REMARK  Name = molecules/OGBMKVWORPGQRR-UMXFMPSGSA-N.pdb
REMARK                            x       y       z     vdW  Elec       q    Type
REMARK                         _______ _______ _______ _____ _____    ______ ____
ROOT
ATOM      1  H   UNK    1       34.446  28.523   0.000  0.00  0.00    +0.000 HD
ENDROOT
TORSDOF 0
REMARK  Name = molecules/OGBMKVWORPGQRR-UMXFMPSGSA-N.pdb
REMARK                            x       y       z     vdW  Elec       q    Type
REMARK                         _______ _______ _______ _____ _____    ______ ____
ROOT
ATOM      1  H   UNK    1       36.917  27.720   0.000  0.00  0.00    +0.000 HD
ENDROOT
TORSDOF 0
REMARK  Name = molecules/OGBMKVWORPGQRR-UMXFMPSGSA-N.pdb
REMARK                            x       y       z     vdW  Elec       q    Type
REMARK                         _______ _______ _______ _____ _____    ______ ____
ROOT
ATOM      1  H   UNK    1       28.967  11.011   0.000  0.00  0.00    +0.000 HD
ENDROOT
TORSDOF 0
REMARK  Name = molecules/OGBMKVWORPGQRR-UMXFMPSGSA-N.pdb
REMARK                            x       y       z     vdW  Elec       q    Type
REMARK                         _______ _______ _______ _____ _____    ______ ____
ROOT
ATOM      1  H   UNK    1       26.426  10.470   0.000  0.00  0.00    +0.000 HD
ENDROOT
TORSDOF 0
REMARK  Name = molecules/OGBMKVWORPGQRR-UMXFMPSGSA-N.pdb
REMARK                            x       y       z     vdW  Elec       q    Type
REMARK                         _______ _______ _______ _____ _____    ______ ____
ROOT
ATOM      1  H   UNK    1       20.331  17.760   0.000  0.00  0.00    +0.000 HD
ENDROOT
TORSDOF 0
REMARK  Name = molecules/OGBMKVWORPGQRR-UMXFMPSGSA-N.pdb
REMARK                            x       y       z     vdW  Elec       q    Type
REMARK                         _______ _______ _______ _____ _____    ______ ____
ROOT
ATOM      1  H   UNK    1       17.367  16.568   0.000  0.00  0.00    +0.000 HD
ENDROOT
TORSDOF 0
REMARK  Name = molecules/OGBMKVWORPGQRR-UMXFMPSGSA-N.pdb
REMARK                            x       y       z     vdW  Elec       q    Type
REMARK                         _______ _______ _______ _____ _____    ______ ____
ROOT
ATOM      1  H   UNK    1       12.686  11.184   0.000  0.00  0.00    +0.000 HD
ENDROOT
TORSDOF 0
REMARK  Name = molecules/OGBMKVWORPGQRR-UMXFMPSGSA-N.pdb
REMARK                            x       y       z     vdW  Elec       q    Type
REMARK                         _______ _______ _______ _____ _____    ______ ____
ROOT
ATOM      1  H   UNK    1       15.645   4.522   0.000  0.00  0.00    +0.000 HD
ENDROOT
TORSDOF 0
REMARK  Name = molecules/OGBMKVWORPGQRR-UMXFMPSGSA-N.pdb
REMARK                            x       y       z     vdW  Elec       q    Type
REMARK                         _______ _______ _______ _____ _____    ______ ____
ROOT
ATOM      1  H   UNK    1       16.395   7.421   0.000  0.00  0.00    +0.000 HD
ENDROOT
TORSDOF 0
REMARK  Name = molecules/OGBMKVWORPGQRR-UMXFMPSGSA-N.pdb
REMARK                            x       y       z     vdW  Elec       q    Type
REMARK                         _______ _______ _______ _____ _____    ______ ____
ROOT
ATOM      1  H   UNK    1       17.670   4.064   0.000  0.00  0.00    +0.000 HD
ENDROOT
TORSDOF 0
REMARK  Name = molecules/OGBMKVWORPGQRR-UMXFMPSGSA-N.pdb
REMARK                            x       y       z     vdW  Elec       q    Type
REMARK                         _______ _______ _______ _____ _____    ______ ____
ROOT
ATOM      1  H   UNK    1       16.734   8.465   0.000  0.00  0.00    +0.000 HD
ENDROOT
TORSDOF 0
REMARK  Name = molecules/OGBMKVWORPGQRR-UMXFMPSGSA-N.pdb
REMARK                            x       y       z     vdW  Elec       q    Type
REMARK                         _______ _______ _______ _____ _____    ______ ____
ROOT
ATOM      1  H   UNK    1       20.883   7.203   0.000  0.00  0.00    +0.000 HD
ENDROOT
TORSDOF 0
REMARK  Name = molecules/OGBMKVWORPGQRR-UMXFMPSGSA-N.pdb
REMARK                            x       y       z     vdW  Elec       q    Type
REMARK                         _______ _______ _______ _____ _____    ______ ____
ROOT
ATOM      1  H   UNK    1        9.667  12.172   0.000  0.00  0.00    +0.000 HD
ENDROOT
TORSDOF 0
REMARK  Name = molecules/OGBMKVWORPGQRR-UMXFMPSGSA-N.pdb
REMARK                            x       y       z     vdW  Elec       q    Type
REMARK                         _______ _______ _______ _____ _____    ______ ____
ROOT
ATOM      1  H   UNK    1       10.924  11.776   0.000  0.00  0.00    +0.000 HD
ENDROOT
TORSDOF 0
REMARK  Name = molecules/OGBMKVWORPGQRR-UMXFMPSGSA-N.pdb
REMARK                            x       y       z     vdW  Elec       q    Type
REMARK                         _______ _______ _______ _____ _____    ______ ____
ROOT
ATOM      1  H   UNK    1        8.402  12.548   0.000  0.00  0.00    +0.000 HD
ENDROOT
TORSDOF 0
REMARK  Name = molecules/OGBMKVWORPGQRR-UMXFMPSGSA-N.pdb
REMARK                            x       y       z     vdW  Elec       q    Type
REMARK                         _______ _______ _______ _____ _____    ______ ____
ROOT
ATOM      1  H   UNK    1        3.633  15.892   0.000  0.00  0.00    +0.000 HD
ENDROOT
TORSDOF 0
REMARK  Name = molecules/OGBMKVWORPGQRR-UMXFMPSGSA-N.pdb
REMARK                            x       y       z     vdW  Elec       q    Type
REMARK                         _______ _______ _______ _____ _____    ______ ____
ROOT
ATOM      1  H   UNK    1        8.009  16.106   0.000  0.00  0.00    +0.000 HD
ENDROOT
TORSDOF 0
REMARK  Name = molecules/OGBMKVWORPGQRR-UMXFMPSGSA-N.pdb
REMARK                            x       y       z     vdW  Elec       q    Type
REMARK                         _______ _______ _______ _____ _____    ______ ____
ROOT
ATOM      1  H   UNK    1        8.107  19.214   0.000  0.00  0.00    +0.000 HD
ENDROOT
TORSDOF 0
REMARK  Name = molecules/OGBMKVWORPGQRR-UMXFMPSGSA-N.pdb
REMARK                            x       y       z     vdW  Elec       q    Type
REMARK                         _______ _______ _______ _____ _____    ______ ____
ROOT
ATOM      1  H   UNK    1        9.409   6.942   0.000  0.00  0.00    +0.000 HD
ENDROOT
TORSDOF 0
REMARK  Name = molecules/OGBMKVWORPGQRR-UMXFMPSGSA-N.pdb
REMARK                            x       y       z     vdW  Elec       q    Type
REMARK                         _______ _______ _______ _____ _____    ______ ____
ROOT
ATOM      1  H   UNK    1        8.779  11.368   0.000  0.00  0.00    +0.000 HD
ENDROOT
TORSDOF 0
REMARK  Name = molecules/OGBMKVWORPGQRR-UMXFMPSGSA-N.pdb
REMARK                            x       y       z     vdW  Elec       q    Type
REMARK                         _______ _______ _______ _____ _____    ______ ____
ROOT
ATOM      1  H   UNK    1        6.293   7.734   0.000  0.00  0.00    +0.000 HD
ENDROOT
TORSDOF 0
REMARK  Name = molecules/OGBMKVWORPGQRR-UMXFMPSGSA-N.pdb
REMARK                            x       y       z     vdW  Elec       q    Type
REMARK                         _______ _______ _______ _____ _____    ______ ____
ROOT
ATOM      1  H   UNK    1        1.514   7.736   0.000  0.00  0.00    +0.000 HD
ENDROOT
TORSDOF 0
REMARK  Name = molecules/OGBMKVWORPGQRR-UMXFMPSGSA-N.pdb
REMARK                            x       y       z     vdW  Elec       q    Type
REMARK                         _______ _______ _______ _____ _____    ______ ____
ROOT
ATOM      1  H   UNK    1       -1.339   8.663   0.000  0.00  0.00    +0.000 HD
ENDROOT
TORSDOF 0
REMARK  Name = molecules/OGBMKVWORPGQRR-UMXFMPSGSA-N.pdb
REMARK                            x       y       z     vdW  Elec       q    Type
REMARK                         _______ _______ _______ _____ _____    ______ ____
ROOT
ATOM      1  H   UNK    1       -2.267   5.810   0.000  0.00  0.00    +0.000 HD
ENDROOT
TORSDOF 0
REMARK  Name = molecules/OGBMKVWORPGQRR-UMXFMPSGSA-N.pdb
REMARK                            x       y       z     vdW  Elec       q    Type
REMARK                         _______ _______ _______ _____ _____    ______ ____
ROOT
ATOM      1  H   UNK    1       -2.771   3.608   0.000  0.00  0.00    +0.000 HD
ENDROOT
TORSDOF 0
REMARK  Name = molecules/OGBMKVWORPGQRR-UMXFMPSGSA-N.pdb
REMARK                            x       y       z     vdW  Elec       q    Type
REMARK                         _______ _______ _______ _____ _____    ______ ____
ROOT
ATOM      1  H   UNK    1        0.240   0.264   0.000  0.00  0.00    +0.000 HD
ENDROOT
TORSDOF 0
REMARK  Name = molecules/OGBMKVWORPGQRR-UMXFMPSGSA-N.pdb
REMARK                            x       y       z     vdW  Elec       q    Type
REMARK                         _______ _______ _______ _____ _____    ______ ____
ROOT
ATOM      1  H   UNK    1       -0.922   9.912   0.000  0.00  0.00    +0.000 HD
ENDROOT
TORSDOF 0
REMARK  Name = molecules/OGBMKVWORPGQRR-UMXFMPSGSA-N.pdb
REMARK                            x       y       z     vdW  Elec       q    Type
REMARK                         _______ _______ _______ _____ _____    ______ ____
ROOT
ATOM      1  H   UNK    1       -1.916  15.947   0.000  0.00  0.00    +0.000 HD
ENDROOT
TORSDOF 0
REMARK  Name = molecules/OGBMKVWORPGQRR-UMXFMPSGSA-N.pdb
REMARK                            x       y       z     vdW  Elec       q    Type
REMARK                         _______ _______ _______ _____ _____    ______ ____
ROOT
ATOM      1  H   UNK    1       -2.843  13.094   0.000  0.00  0.00    +0.000 HD
ENDROOT
TORSDOF 0
REMARK  Name = molecules/OGBMKVWORPGQRR-UMXFMPSGSA-N.pdb
REMARK                            x       y       z     vdW  Elec       q    Type
REMARK                         _______ _______ _______ _____ _____    ______ ____
ROOT
ATOM      1  H   UNK    1       -1.897  12.892   0.000  0.00  0.00    +0.000 HD
ENDROOT
TORSDOF 0
REMARK  Name = molecules/OGBMKVWORPGQRR-UMXFMPSGSA-N.pdb
REMARK                            x       y       z     vdW  Elec       q    Type
REMARK                         _______ _______ _______ _____ _____    ______ ____
ROOT
ATOM      1  H   UNK    1       -0.489  15.484   0.000  0.00  0.00    +0.000 HD
ENDROOT
TORSDOF 0
REMARK  Name = molecules/OGBMKVWORPGQRR-UMXFMPSGSA-N.pdb
REMARK                            x       y       z     vdW  Elec       q    Type
REMARK                         _______ _______ _______ _____ _____    ______ ____
ROOT
ATOM      1  H   UNK    1        0.938  15.021   0.000  0.00  0.00    +0.000 HD
ENDROOT
TORSDOF 0
REMARK  Name = molecules/OGBMKVWORPGQRR-UMXFMPSGSA-N.pdb
REMARK                            x       y       z     vdW  Elec       q    Type
REMARK                         _______ _______ _______ _____ _____    ______ ____
ROOT
ATOM      1  H   UNK    1       -6.971  17.379   0.000  0.00  0.00    +0.000 HD
ENDROOT
TORSDOF 0
REMARK  Name = molecules/OGBMKVWORPGQRR-UMXFMPSGSA-N.pdb
REMARK                            x       y       z     vdW  Elec       q    Type
REMARK                         _______ _______ _______ _____ _____    ______ ____
ROOT
ATOM      1  H   UNK    1       -7.774  14.908   0.000  0.00  0.00    +0.000 HD
ENDROOT
TORSDOF 0
REMARK  Name = molecules/OGBMKVWORPGQRR-UMXFMPSGSA-N.pdb
REMARK                            x       y       z     vdW  Elec       q    Type
REMARK                         _______ _______ _______ _____ _____    ______ ____
ROOT
ATOM      1  H   UNK    1        6.402  14.993   0.000  0.00  0.00    +0.000 HD
ENDROOT
TORSDOF 0
REMARK  Name = molecules/OGBMKVWORPGQRR-UMXFMPSGSA-N.pdb
REMARK                            x       y       z     vdW  Elec       q    Type
REMARK                         _______ _______ _______ _____ _____    ______ ____
ROOT
ATOM      1  H   UNK    1        8.227  21.115   0.000  0.00  0.00    +0.000 HD
ENDROOT
TORSDOF 0
REMARK  Name = molecules/OGBMKVWORPGQRR-UMXFMPSGSA-N.pdb
REMARK                            x       y       z     vdW  Elec       q    Type
REMARK                         _______ _______ _______ _____ _____    ______ ____
ROOT
ATOM      1  H   UNK    1        5.899  22.032   0.000  0.00  0.00    +0.000 HD
ENDROOT
TORSDOF 0
REMARK  Name = molecules/OGBMKVWORPGQRR-UMXFMPSGSA-N.pdb
REMARK                            x       y       z     vdW  Elec       q    Type
REMARK                         _______ _______ _______ _____ _____    ______ ____
ROOT
ATOM      1  H   UNK    1       -3.659  12.360   0.000  0.00  0.00    +0.000 HD
ENDROOT
TORSDOF 0
REMARK  Name = molecules/OGBMKVWORPGQRR-UMXFMPSGSA-N.pdb
REMARK                            x       y       z     vdW  Elec       q    Type
REMARK                         _______ _______ _______ _____ _____    ______ ____
ROOT
ATOM      1  H   UNK    1       -2.696  10.470   0.000  0.00  0.00    +0.000 HD
ENDROOT
TORSDOF 0
REMARK  Name = molecules/OGBMKVWORPGQRR-UMXFMPSGSA-N.pdb
REMARK                            x       y       z     vdW  Elec       q    Type
REMARK                         _______ _______ _______ _____ _____    ______ ____
ROOT
ATOM      1  H   UNK    1        1.085  12.396   0.000  0.00  0.00    +0.000 HD
ENDROOT
TORSDOF 0
REMARK  Name = molecules/OGBMKVWORPGQRR-UMXFMPSGSA-N.pdb
REMARK                            x       y       z     vdW  Elec       q    Type
REMARK                         _______ _______ _______ _____ _____    ______ ____
ROOT
ATOM      1  H   UNK    1        1.943   9.009   0.000  0.00  0.00    +0.000 HD
ENDROOT
TORSDOF 0
REMARK  Name = molecules/OGBMKVWORPGQRR-UMXFMPSGSA-N.pdb
REMARK                            x       y       z     vdW  Elec       q    Type
REMARK                         _______ _______ _______ _____ _____    ______ ____
ROOT
ATOM      1  H   UNK    1        7.412  10.169   0.000  0.00  0.00    +0.000 HD
ENDROOT
TORSDOF 0
REMARK  Name = molecules/OGBMKVWORPGQRR-UMXFMPSGSA-N.pdb
REMARK                            x       y       z     vdW  Elec       q    Type
REMARK                         _______ _______ _______ _____ _____    ______ ____
ROOT
ATOM      1  H   UNK    1        8.534  14.129   0.000  0.00  0.00    +0.000 HD
ENDROOT
TORSDOF 0
REMARK  Name = molecules/OGBMKVWORPGQRR-UMXFMPSGSA-N.pdb
REMARK                            x       y       z     vdW  Elec       q    Type
REMARK                         _______ _______ _______ _____ _____    ______ ____
ROOT
ATOM      1  H   UNK    1        9.480  12.190   0.000  0.00  0.00    +0.000 HD
ENDROOT
TORSDOF 0
REMARK  Name = molecules/OGBMKVWORPGQRR-UMXFMPSGSA-N.pdb
REMARK                            x       y       z     vdW  Elec       q    Type
REMARK                         _______ _______ _______ _____ _____    ______ ____
ROOT
ATOM      1  H   UNK    1        1.678   6.882   0.000  0.00  0.00    +0.000 HD
ENDROOT
TORSDOF 0
REMARK  Name = molecules/OGBMKVWORPGQRR-UMXFMPSGSA-N.pdb
REMARK                            x       y       z     vdW  Elec       q    Type
REMARK                         _______ _______ _______ _____ _____    ______ ____
ROOT
ATOM      1  H   UNK    1       -1.706   7.974   0.000  0.00  0.00    +0.000 HD
ENDROOT
TORSDOF 0
REMARK  Name = molecules/OGBMKVWORPGQRR-UMXFMPSGSA-N.pdb
REMARK                            x       y       z     vdW  Elec       q    Type
REMARK                         _______ _______ _______ _____ _____    ______ ____
ROOT
ATOM      1  H   UNK    1        4.593  -1.728   0.000  0.00  0.00    +0.000 HD
ENDROOT
TORSDOF 0
REMARK  Name = molecules/OGBMKVWORPGQRR-UMXFMPSGSA-N.pdb
REMARK                            x       y       z     vdW  Elec       q    Type
REMARK                         _______ _______ _______ _____ _____    ______ ____
ROOT
ATOM      1  H   UNK    1        6.483  -0.765   0.000  0.00  0.00    +0.000 HD
ENDROOT
TORSDOF 0
REMARK  Name = molecules/OGBMKVWORPGQRR-UMXFMPSGSA-N.pdb
REMARK                            x       y       z     vdW  Elec       q    Type
REMARK                         _______ _______ _______ _____ _____    ______ ____
ROOT
ATOM      1  H   UNK    1        3.560  -0.197   0.000  0.00  0.00    +0.000 HD
ENDROOT
TORSDOF 0
REMARK  Name = molecules/OGBMKVWORPGQRR-UMXFMPSGSA-N.pdb
REMARK                            x       y       z     vdW  Elec       q    Type
REMARK                         _______ _______ _______ _____ _____    ______ ____
ROOT
ATOM      1  H   UNK    1        7.410   2.088   0.000  0.00  0.00    +0.000 HD
ENDROOT
TORSDOF 0
REMARK  Name = molecules/OGBMKVWORPGQRR-UMXFMPSGSA-N.pdb
REMARK                            x       y       z     vdW  Elec       q    Type
REMARK                         _______ _______ _______ _____ _____    ______ ____
ROOT
ATOM      1  H   UNK    1        2.616   1.328   0.000  0.00  0.00    +0.000 HD
ENDROOT
TORSDOF 0
REMARK  Name = molecules/OGBMKVWORPGQRR-UMXFMPSGSA-N.pdb
REMARK                            x       y       z     vdW  Elec       q    Type
REMARK                         _______ _______ _______ _____ _____    ______ ____
ROOT
ATOM      1  H   UNK    1        4.550   4.892   0.000  0.00  0.00    +0.000 HD
ENDROOT
TORSDOF 0
REMARK  Name = molecules/OGBMKVWORPGQRR-UMXFMPSGSA-N.pdb
REMARK                            x       y       z     vdW  Elec       q    Type
REMARK                         _______ _______ _______ _____ _____    ______ ____
ROOT
ATOM      1  H   UNK    1        1.283   1.347   0.000  0.00  0.00    +0.000 HD
ENDROOT
TORSDOF 0
REMARK  Name = molecules/OGBMKVWORPGQRR-UMXFMPSGSA-N.pdb
REMARK                            x       y       z     vdW  Elec       q    Type
REMARK                         _______ _______ _______ _____ _____    ______ ____
ROOT
ATOM      1  H   UNK    1        3.454   0.335   0.000  0.00  0.00    +0.000 HD
ENDROOT
TORSDOF 0
REMARK  Name = molecules/OGBMKVWORPGQRR-UMXFMPSGSA-N.pdb
REMARK                            x       y       z     vdW  Elec       q    Type
REMARK                         _______ _______ _______ _____ _____    ______ ____
ROOT
ATOM      1  H   UNK    1       11.585   3.166   0.000  0.00  0.00    +0.000 HD
ENDROOT
TORSDOF 0
