REMARK  Name = molecules/OGDVEMNWJVYAJL-LEPYJNQMSA-N.pdb
REMARK                            x       y       z     vdW  Elec       q    Type
REMARK                         _______ _______ _______ _____ _____    ______ ____
ROOT
ATOM      1  C   LIG    1       -1.173   2.184  -1.671  0.00  0.00    +0.178 C 
ATOM      2  C   LIG    1       -0.664   2.047  -0.270  0.00  0.00    +0.217 C 
ATOM      3  C   LIG    1       -1.018   0.758   0.385  0.00  0.00    +0.048 C 
ATOM      4  C   LIG    1       -1.119   0.953   1.880  0.00  0.00    +0.031 C 
ATOM      5  C   LIG    1       -1.463  -0.305   2.606  0.00  0.00    +0.085 C 
ATOM      6  N   LIG    1       -2.538  -0.974   1.953  0.00  0.00    -0.301 NA
ATOM      7  C   LIG    1       -3.813  -0.349   2.107  0.00  0.00    +0.105 C 
ATOM      8  C   LIG    1       -2.278  -1.298   0.569  0.00  0.00    +0.068 C 
ATOM      9  C   LIG    1       -1.065  -2.144   0.496  0.00  0.00    +0.055 C 
ATOM     10  C   LIG    1        0.157  -1.442   0.097  0.00  0.00    -0.038 A 
ATOM     11  C   LIG    1        1.323  -2.094  -0.241  0.00  0.00    +0.008 A 
ATOM     12  C   LIG    1        2.440  -1.343  -0.615  0.00  0.00    +0.050 A 
ATOM     13  C   LIG    1        2.386   0.044  -0.650  0.00  0.00    +0.162 A 
ATOM     14  C   LIG    1        1.201   0.705  -0.307  0.00  0.00    +0.167 A 
ATOM     15  C   LIG    1        0.161  -0.083   0.045  0.00  0.00    +0.012 A 
ATOM     16  C   LIG    1       -2.189   0.022  -0.179  0.00  0.00    +0.043 C 
ATOM     17  C   LIG    1       -1.938  -0.177  -1.631  0.00  0.00    -0.023 C 
ATOM     18  O   LIG    1        0.778   2.022  -0.225  0.00  0.00    -0.481 OA
ATOM     19  C   LIG    1       -1.460   0.859  -2.308  0.00  0.00    +0.004 C 
ENDROOT
BRANCH   1  20
ATOM     20  O   LIG    1       -0.164   2.851  -2.405  0.00  0.00    -0.384 OA
ATOM     21  H   LIG    1       -0.557   3.330  -3.190  0.00  0.00    +0.210 HD
ENDBRANCH   1  20
BRANCH  13  22
ATOM     22  O   LIG    1        3.462   0.838  -1.012  0.00  0.00    -0.489 OA
BRANCH  22  23
ATOM     23  C   LIG    1        4.723   0.328  -1.380  0.00  0.00    +0.226 C 
ATOM     24  C   LIG    1        5.400  -0.479  -0.320  0.00  0.00    +0.048 C 
ENDBRANCH  22  23
ENDBRANCH  13  22
TORSDOF 3
