REMARK  Name = molecules/OGGXGZAMXPVRFZ-UHFFFAOYSA-N.pdb
REMARK                            x       y       z     vdW  Elec       q    Type
REMARK                         _______ _______ _______ _____ _____    ______ ____
ROOT
ATOM      1  C   LIG    1        1.712  -0.199  -0.138  0.00  0.00    +0.000 C 
ATOM      2 AS   LIG    1       -0.052   0.404   0.437  0.00  0.00    +0.000 As
ATOM      3  O   LIG    1       -0.226   0.405   2.059  0.00  0.00    +0.000 OA
ENDROOT
BRANCH   2   4
ATOM      4  O   LIG    1       -0.387   2.106  -0.196  0.00  0.00    +0.000 OA
ATOM      5  H   LIG    1       -1.137   2.529   0.285  0.00  0.00    +0.000 HD
ENDBRANCH   2   4
TORSDOF 1
REMARK  Name = molecules/OGGXGZAMXPVRFZ-UHFFFAOYSA-N.pdb
REMARK                            x       y       z     vdW  Elec       q    Type
REMARK                         _______ _______ _______ _____ _____    ______ ____
ROOT
ATOM      1  C   LIG    1       -1.377  -0.868  -0.327  0.00  0.00    +0.000 C 
ENDROOT
TORSDOF 0
