REMARK  Name = molecules/OGJPXUAPXNRGGI-UHFFFAOYSA-N.pdb
REMARK                            x       y       z     vdW  Elec       q    Type
REMARK                         _______ _______ _______ _____ _____    ______ ____
ROOT
ATOM      1  N   LIG    1        2.244  -0.934  -0.346  0.00  0.00    -0.346 N 
ATOM      2  C   LIG    1        1.264  -0.003  -0.468  0.00  0.00    +0.055 A 
ATOM      3  C   LIG    1       -0.036  -0.364  -0.272  0.00  0.00    +0.052 A 
ATOM      4  C   LIG    1       -1.123   0.521  -0.372  0.00  0.00    +0.067 A 
ATOM      5  C   LIG    1       -0.799   1.814  -0.688  0.00  0.00    +0.145 A 
ATOM      6  F   LIG    1       -1.804   2.735  -0.781  0.00  0.00    -0.204 F 
ATOM      7  C   LIG    1        0.524   2.233  -0.899  0.00  0.00    +0.054 A 
ATOM      8  C   LIG    1        1.533   1.307  -0.783  0.00  0.00    +0.049 A 
ATOM      9  C   LIG    1        2.829   1.691  -0.982  0.00  0.00    +0.203 A 
ATOM     10  C   LIG    1        3.833   0.781  -0.867  0.00  0.00    +0.122 A 
ATOM     11  O   LIG    1        3.052   2.906  -1.272  0.00  0.00    -0.286 OA
ATOM     12  C   LIG    1        3.503  -0.509  -0.551  0.00  0.00    +0.105 A 
ENDROOT
BRANCH   4  13
ATOM     13  N   LIG    1       -2.425   0.012  -0.176  0.00  0.00    -0.325 N 
ATOM     14  C   LIG    1       -2.657  -1.216   0.593  0.00  0.00    +0.120 C 
ATOM     15  C   LIG    1       -3.805  -1.093   1.540  0.00  0.00    +0.100 C 
ATOM     16  N   LIG    1       -4.894  -0.279   1.124  0.00  0.00    -0.313 NA
ATOM     17  H   LIG    1       -5.602  -0.787   0.557  0.00  0.00    +0.122 HD
ATOM     18  C   LIG    1       -4.507   0.975   0.489  0.00  0.00    +0.100 C 
ATOM     19  C   LIG    1       -3.633   0.597  -0.717  0.00  0.00    +0.120 C 
ENDBRANCH   4  13
BRANCH   1  20
ATOM     20  C   LIG    1        1.961  -2.293  -0.024  0.00  0.00    +0.118 C 
ATOM     21  C   LIG    1        1.972  -2.438   1.488  0.00  0.00    +0.027 C 
ENDBRANCH   1  20
BRANCH  10  22
ATOM     22  C   LIG    1        5.228   1.177  -1.077  0.00  0.00    +0.342 C 
ATOM     23  O   LIG    1        5.512   2.357  -1.365  0.00  0.00    -0.245 OA
BRANCH  22  24
ATOM     24  O   LIG    1        6.239   0.239  -0.957  0.00  0.00    -0.477 OA
ATOM     25  H   LIG    1        6.201  -0.585  -0.390  0.00  0.00    +0.295 HD
ENDBRANCH  22  24
ENDBRANCH  10  22
TORSDOF 4
