REMARK  Name = molecules/OGSBUKJUDHAQEA-ZBFHGGJFSA-N.pdb
REMARK                            x       y       z     vdW  Elec       q    Type
REMARK                         _______ _______ _______ _____ _____    ______ ____
ROOT
ATOM      1  C   UNK A  0       -1.720   0.001  -0.626  0.00  0.00    +0.037 C 
ENDROOT
BRANCH   1   2
ATOM      2  C   UNK A  0       -0.298  -0.158  -0.270  0.00  0.00    -0.043 A 
ATOM      3  C   UNK A  0        0.101   0.011   1.026  0.00  0.00    +0.005 A 
ATOM      4  C   UNK A  0        1.446  -0.139   1.370  0.00  0.00    +0.013 A 
ATOM      5  C   UNK A  0        2.384  -0.461   0.392  0.00  0.00    +0.037 A 
ATOM      6  C   UNK A  0        1.958  -0.625  -0.899  0.00  0.00    +0.013 A 
ATOM      7  C   UNK A  0        0.615  -0.474  -1.235  0.00  0.00    +0.005 A 
BRANCH   5   8
ATOM      8  C   UNK A  0        3.779  -0.615   0.756  0.00  0.00    +0.245 C 
ATOM      9  O   UNK A  0        4.078  -0.479   1.988  0.00  0.00    -0.270 OA
ATOM     10  N   GLU A  1        4.789  -0.903  -0.192  0.00  0.00    -0.298 N 
ATOM     11  H   GLU A  1        4.556  -1.011  -1.201  0.00  0.00    +0.150 HD
BRANCH  10  12
ATOM     12  CA  GLU A  1        6.168  -1.051   0.240  0.00  0.00    +0.182 C 
BRANCH  12  13
ATOM     13  C   GLU A  1        6.213  -2.126   1.297  0.00  0.00    +0.325 C 
ATOM     14  O   GLU A  1        5.215  -2.772   1.675  0.00  0.00    -0.249 OA
BRANCH  13  15
ATOM     15  OXT GLU A  1        7.467  -2.385   1.863  0.00  0.00    -0.479 OA
ATOM     16  HXT GLU A  1        8.153  -2.937   1.369  0.00  0.00    +0.295 HD
ENDBRANCH  13  15
ENDBRANCH  12  13
BRANCH  12  17
ATOM     17  CB  GLU A  1        6.721   0.237   0.765  0.00  0.00    +0.045 C 
BRANCH  17  18
ATOM     18  CG  GLU A  1        6.727   1.366  -0.219  0.00  0.00    +0.123 C 
BRANCH  18  19
ATOM     19  CD  GLU A  1        7.547   1.081  -1.396  0.00  0.00    +0.305 C 
ATOM     20  OE2 GLU A  1        8.200   0.028  -1.539  0.00  0.00    -0.251 OA
BRANCH  19  21
ATOM     21  OE1 GLU A  1        7.651   1.996  -2.462  0.00  0.00    -0.481 OA
ATOM     22  HE1 GLU A  1        6.998   2.788  -2.461  0.00  0.00    +0.295 HD
ENDBRANCH  19  21
ENDBRANCH  18  19
ENDBRANCH  17  18
ENDBRANCH  12  17
ENDBRANCH  10  12
ENDBRANCH   5   8
ENDBRANCH   1   2
BRANCH   1  23
ATOM     23  C   UNK A  0       -2.489  -1.050   0.161  0.00  0.00    +0.066 C 
BRANCH  23  31
ATOM     24  C   UNK A  0       -6.867   0.626   1.237  0.00  0.00    +0.149 A 
ATOM     25  N   UNK A  0       -8.179   0.632   0.964  0.00  0.00    -0.198 NA
ATOM     26  C   UNK A  0       -8.742  -0.085  -0.016  0.00  0.00    +0.216 A 
ATOM     27  N   UNK A  0       -7.949  -0.856  -0.772  0.00  0.00    -0.193 NA
ATOM     28  C   UNK A  0       -6.614  -0.923  -0.567  0.00  0.00    +0.185 A 
ATOM     29  N   UNK A  0       -5.851  -1.708  -1.347  0.00  0.00    -0.232 NA
ATOM     30  C   UNK A  0       -4.510  -1.747  -1.108  0.00  0.00    +0.136 A 
ATOM     31  C   UNK A  0       -3.937  -1.008  -0.098  0.00  0.00    +0.061 A 
ATOM     32  N   UNK A  0       -4.718  -0.230   0.668  0.00  0.00    -0.243 NA
ATOM     33  C   UNK A  0       -6.062  -0.175   0.448  0.00  0.00    +0.148 A 
BRANCH  24  34
ATOM     34  N   UNK A  0       -6.304   1.407   2.293  0.00  0.00    -0.341 N 
ATOM     35  H   UNK A  0       -6.937   1.631   3.086  0.00  0.00    +0.144 HD
ATOM     36  H   UNK A  0       -5.312   1.712   2.233  0.00  0.00    +0.144 HD
ENDBRANCH  24  34
BRANCH  26  37
ATOM     37  N   UNK A  0      -10.148  -0.024  -0.243  0.00  0.00    -0.327 N 
ATOM     38  H   UNK A  0      -10.701  -0.886  -0.302  0.00  0.00    +0.145 HD
ATOM     39  H   UNK A  0      -10.620   0.891  -0.350  0.00  0.00    +0.145 HD
ENDBRANCH  26  37
ENDBRANCH  23  31
ENDBRANCH   1  23
BRANCH   1  40
ATOM     40  C   UNK A  0       -2.209   1.389  -0.256  0.00  0.00    +0.097 C 
BRANCH  40  41
ATOM     41  C   UNK A  0       -1.463   2.390  -1.018  0.00  0.00    -0.105 C 
ATOM     42  C   UNK A  0       -0.866   3.218  -1.626  0.00  0.00    +0.004 C 
ENDBRANCH  40  41
ENDBRANCH   1  40
TORSDOF 15
