REMARK  Name = molecules/OGSPWJRAVKPPFI-UHFFFAOYSA-N.pdb
REMARK                            x       y       z     vdW  Elec       q    Type
REMARK                         _______ _______ _______ _____ _____    ______ ____
ROOT
ATOM      1  C   LIG    1       -0.308   0.398   0.464  0.00  0.00    +0.267 C 
ENDROOT
BRANCH   1   2
ATOM      2  O   LIG    1        0.525  -0.054   1.447  0.00  0.00    -0.367 OA
ATOM      3  H   LIG    1        0.220  -0.898   1.851  0.00  0.00    +0.212 HD
ENDBRANCH   1   2
BRANCH   1   4
ATOM      4  P   LIG    1       -1.419   1.712   1.072  0.00  0.00    +0.371 P 
ATOM      5  O   LIG    1       -0.905   3.067   0.599  0.00  0.00    -0.255 OA
BRANCH   4   6
ATOM      6  O   LIG    1       -1.474   1.751   2.750  0.00  0.00    -0.322 OA
ATOM      7  H   LIG    1       -0.619   1.491   3.173  0.00  0.00    +0.220 HD
ENDBRANCH   4   6
BRANCH   4   8
ATOM      8  O   LIG    1       -2.995   1.496   0.500  0.00  0.00    -0.322 OA
ATOM      9  H   LIG    1       -3.667   1.752   1.184  0.00  0.00    +0.220 HD
ENDBRANCH   4   8
ENDBRANCH   1   4
BRANCH   1  10
ATOM     10  P   LIG    1       -1.412  -0.967  -0.079  0.00  0.00    +0.371 P 
ATOM     11  O   LIG    1       -0.582  -2.173  -0.436  0.00  0.00    -0.255 OA
BRANCH  10  12
ATOM     12  O   LIG    1       -2.558  -1.294   1.093  0.00  0.00    -0.322 OA
ATOM     13  H   LIG    1       -2.532  -2.227   1.428  0.00  0.00    +0.220 HD
ENDBRANCH  10  12
BRANCH  10  14
ATOM     14  O   LIG    1       -2.211  -0.436  -1.471  0.00  0.00    -0.322 OA
ATOM     15  H   LIG    1       -3.181  -0.232  -1.284  0.00  0.00    +0.220 HD
ENDBRANCH  10  14
ENDBRANCH   1  10
BRANCH   1  16
ATOM     16  C   LIG    1        0.456   0.932  -0.706  0.00  0.00    +0.061 C 
BRANCH  16  17
ATOM     17  C   LIG    1        1.353  -0.014  -1.418  0.00  0.00    +0.019 C 
BRANCH  17  18
ATOM     18  C   LIG    1        2.441  -0.609  -0.597  0.00  0.00    +0.078 C 
BRANCH  18  19
ATOM     19  N   LIG    1        3.290  -1.502  -1.391  0.00  0.00    -0.330 NA
ATOM     20  H   LIG    1        4.255  -1.528  -0.986  0.00  0.00    +0.118 HD
ATOM     21  H   LIG    1        2.883  -2.465  -1.453  0.00  0.00    +0.118 HD
ENDBRANCH  18  19
ENDBRANCH  17  18
ENDBRANCH  16  17
ENDBRANCH   1  16
TORSDOF 11
