REMARK  Name = molecules/OGWKCGZFUXNPDA-CFWMRBGOSA-N.pdb
REMARK                            x       y       z     vdW  Elec       q    Type
REMARK                         _______ _______ _______ _____ _____    ______ ____
ROOT
ATOM      1  C   LIG    1       -3.510   1.232   1.296  0.00  0.00    +0.045 C 
ATOM      2  C   LIG    1       -3.181  -0.159   1.807  0.00  0.00    +0.232 C 
ATOM      3  C   LIG    1       -4.032  -1.138   1.069  0.00  0.00    +0.220 C 
ATOM      4  C   LIG    1       -4.008  -0.996  -0.411  0.00  0.00    +0.140 C 
ATOM      5  C   LIG    1       -3.170   0.099  -0.941  0.00  0.00    +0.037 C 
ATOM      6  C   LIG    1       -1.867  -0.528  -1.220  0.00  0.00    -0.016 A 
ATOM      7  C   LIG    1       -2.022  -1.880  -1.294  0.00  0.00    +0.044 A 
ATOM      8  C   LIG    1       -0.942  -2.719  -1.555  0.00  0.00    +0.069 A 
ATOM      9  C   LIG    1        0.313  -2.209  -1.745  0.00  0.00    +0.126 A 
ATOM     10  C   LIG    1        0.504  -0.848  -1.676  0.00  0.00    +0.017 A 
ATOM     11  C   LIG    1       -0.563  -0.044  -1.420  0.00  0.00    +0.014 A 
ATOM     12  C   LIG    1       -3.717   0.540  -2.308  0.00  0.00    +0.030 C 
ATOM     13  C   LIG    1       -3.423   2.023  -2.266  0.00  0.00    +0.086 C 
ATOM     14  N   LIG    1       -3.751   2.345  -0.890  0.00  0.00    -0.294 NA
ATOM     15  C   LIG    1       -5.164   2.407  -0.761  0.00  0.00    +0.111 C 
ATOM     16  C   LIG    1       -5.673   1.984   0.561  0.00  0.00    -0.015 C 
ATOM     17  N   LIG    1       -3.413  -2.155  -1.057  0.00  0.00    -0.266 N 
ATOM     18  C   LIG    1       -4.091  -3.354  -1.396  0.00  0.00    +0.333 C 
ATOM     19  O   LIG    1       -3.467  -4.314  -1.965  0.00  0.00    -0.279 OA
ATOM     20  C   LIG    1       -4.948   1.450   1.509  0.00  0.00    -0.018 C 
ATOM     21  C   LIG    1       -3.091   1.332  -0.121  0.00  0.00    +0.083 C 
ENDROOT
BRANCH  10  22
ATOM     22  C   LIG    1        1.818  -0.320  -1.972  0.00  0.00    +0.136 C 
ATOM     23  C   LIG    1        2.851  -0.964  -1.076  0.00  0.00    +0.042 A 
ATOM     24  C   LIG    1        2.815  -1.168   0.235  0.00  0.00    -0.016 A 
ATOM     25  C   LIG    1        1.801  -0.820   1.264  0.00  0.00    +0.053 C 
ATOM     26  C   LIG    1        2.350   0.446   1.989  0.00  0.00    +0.089 C 
ATOM     27  N   LIG    1        2.792   1.230   0.863  0.00  0.00    -0.299 NA
ATOM     28  C   LIG    1        3.797   2.195   1.084  0.00  0.00    +0.119 C 
ATOM     29  C   LIG    1        4.189   2.684  -0.320  0.00  0.00    +0.079 C 
ATOM     30  C   LIG    1        3.042   3.127  -1.148  0.00  0.00    +0.041 C 
ATOM     31  C   LIG    1        1.836   2.141  -1.101  0.00  0.00    +0.008 C 
ATOM     32  C   LIG    1        1.623   1.861   0.328  0.00  0.00    +0.088 C 
ATOM     33  C   LIG    1        4.011  -1.817   0.598  0.00  0.00    +0.003 A 
ATOM     34  C   LIG    1        4.548  -2.283   1.786  0.00  0.00    +0.010 A 
ATOM     35  C   LIG    1        5.787  -2.901   1.836  0.00  0.00    +0.001 A 
ATOM     36  C   LIG    1        6.524  -3.068   0.685  0.00  0.00    +0.002 A 
ATOM     37  C   LIG    1        6.016  -2.619  -0.493  0.00  0.00    +0.026 A 
ATOM     38  C   LIG    1        4.776  -2.003  -0.524  0.00  0.00    +0.047 A 
ATOM     39  N   LIG    1        4.043  -1.474  -1.523  0.00  0.00    -0.357 N 
ATOM     40  H   LIG    1        4.404  -1.484  -2.505  0.00  0.00    +0.166 HD
ATOM     41  C   LIG    1        2.024   1.138  -2.101  0.00  0.00    +0.034 C 
BRANCH  29  42
ATOM     42  C   LIG    1        5.191   3.791  -0.242  0.00  0.00    +0.032 C 
ATOM     43  C   LIG    1        4.693   5.058   0.360  0.00  0.00    +0.007 C 
ENDBRANCH  29  42
BRANCH  29  44
ATOM     44  O   LIG    1        4.869   1.584  -0.898  0.00  0.00    -0.387 OA
ATOM     45  H   LIG    1        5.794   1.514  -0.549  0.00  0.00    +0.210 HD
ENDBRANCH  29  44
BRANCH  22  46
ATOM     46  C   LIG    1        2.037  -0.808  -3.405  0.00  0.00    +0.323 C 
ATOM     47  O   LIG    1        1.269  -1.529  -4.030  0.00  0.00    -0.249 OA
BRANCH  46  48
ATOM     48  O   LIG    1        3.198  -0.394  -4.039  0.00  0.00    -0.467 OA
ATOM     49  C   LIG    1        3.478  -0.798  -5.371  0.00  0.00    +0.280 C 
ENDBRANCH  46  48
ENDBRANCH  22  46
ENDBRANCH  10  22
BRANCH   1  50
ATOM     50  C   LIG    1       -2.752   2.286   2.085  0.00  0.00    +0.013 C 
ATOM     51  C   LIG    1       -3.083   3.656   1.538  0.00  0.00    +0.005 C 
ENDBRANCH   1  50
BRANCH   3  52
ATOM     52  C   LIG    1       -3.645  -2.526   1.511  0.00  0.00    +0.345 C 
ATOM     53  O   LIG    1       -2.498  -2.979   1.280  0.00  0.00    -0.247 OA
BRANCH  52  54
ATOM     54  O   LIG    1       -4.539  -3.346   2.185  0.00  0.00    -0.466 OA
ATOM     55  C   LIG    1       -4.166  -4.660   2.603  0.00  0.00    +0.280 C 
ENDBRANCH  52  54
ENDBRANCH   3  52
BRANCH   3  56
ATOM     56  O   LIG    1       -5.363  -0.949   1.482  0.00  0.00    -0.373 OA
ATOM     57  H   LIG    1       -5.546  -1.487   2.301  0.00  0.00    +0.211 HD
ENDBRANCH   3  56
BRANCH   9  58
ATOM     58  O   LIG    1        1.362  -3.093  -2.000  0.00  0.00    -0.495 OA
ATOM     59  C   LIG    1        1.080  -4.473  -2.054  0.00  0.00    +0.277 C 
ENDBRANCH   9  58
BRANCH   2  60
ATOM     60  O   LIG    1       -3.632  -0.182   3.172  0.00  0.00    -0.457 OA
BRANCH  60  61
ATOM     61  C   LIG    1       -2.793  -0.438   4.221  0.00  0.00    +0.304 C 
ATOM     62  C   LIG    1       -3.354  -0.440   5.597  0.00  0.00    +0.136 C 
ATOM     63  O   LIG    1       -1.595  -0.659   4.006  0.00  0.00    -0.251 OA
ENDBRANCH  60  61
ENDBRANCH   2  60
TORSDOF 12
