REMARK  Name = molecules/OHDICGSRVLBVLC-HQJQHLMTSA-N.pdb
REMARK                            x       y       z     vdW  Elec       q    Type
REMARK                         _______ _______ _______ _____ _____    ______ ____
ROOT
ATOM      1  C   LIG    1        1.181  -0.027  -0.903  0.00  0.00    -0.014 A 
ATOM      2  C   LIG    1        1.544  -1.191  -0.269  0.00  0.00    +0.010 A 
ATOM      3  C   LIG    1        2.720  -1.287   0.429  0.00  0.00    +0.049 A 
ATOM      4  C   LIG    1        3.608  -0.226   0.537  0.00  0.00    +0.158 A 
ATOM      5  C   LIG    1        3.256   0.946  -0.096  0.00  0.00    +0.159 A 
ATOM      6  C   LIG    1        2.075   1.039  -0.795  0.00  0.00    +0.055 A 
ENDROOT
BRANCH   4   7
ATOM      7  O   LIG    1        4.807  -0.328   1.251  0.00  0.00    -0.503 OA
ATOM      8  H   LIG    1        5.081  -1.177   1.722  0.00  0.00    +0.292 HD
ENDBRANCH   4   7
BRANCH   5   9
ATOM      9  O   LIG    1        4.101   2.045  -0.029  0.00  0.00    -0.503 OA
ATOM     10  H   LIG    1        3.861   2.895  -0.479  0.00  0.00    +0.292 HD
ENDBRANCH   5   9
BRANCH   1  11
ATOM     11  C   LIG    1       -0.073   0.098  -1.654  0.00  0.00    +0.161 C 
BRANCH  11  12
ATOM     12  C   LIG    1       -1.217   0.117  -0.655  0.00  0.00    +0.084 C 
ATOM     13  C   LIG    1       -1.023   1.187   0.405  0.00  0.00    +0.027 C 
BRANCH  12  14
ATOM     14  N   LIG    1       -2.491   0.218  -1.290  0.00  0.00    -0.311 NA
ATOM     15  H   LIG    1       -2.586   1.173  -1.720  0.00  0.00    +0.122 HD
BRANCH  14  16
ATOM     16  C   LIG    1       -3.564   0.069  -0.362  0.00  0.00    +0.078 C 
ATOM     17  C   LIG    1       -3.724  -1.304   0.216  0.00  0.00    +0.020 C 
ENDBRANCH  14  16
ENDBRANCH  12  14
ENDBRANCH  11  12
BRANCH  11  18
ATOM     18  O   LIG    1       -0.213  -0.999  -2.491  0.00  0.00    -0.386 OA
ATOM     19  H   LIG    1        0.478  -1.689  -2.358  0.00  0.00    +0.210 HD
ENDBRANCH  11  18
ENDBRANCH   1  11
TORSDOF 7
