REMARK  Name = molecules/OHRURASPPZQGQM-HMLXJHLFSA-N.pdb
REMARK                            x       y       z     vdW  Elec       q    Type
REMARK                         _______ _______ _______ _____ _____    ______ ____
ROOT
ATOM      1  C   LIG    1       -1.902   2.338  -1.373  0.00  0.00    +0.217 C 
ATOM      2  C   LIG    1       -0.537   2.003  -0.882  0.00  0.00    +0.140 C 
ATOM      3  C   LIG    1        0.460   3.093  -0.958  0.00  0.00    +0.189 C 
ATOM      4  C   LIG    1        0.857   3.715   0.332  0.00  0.00    +0.041 C 
ATOM      5  C   LIG    1        0.530   3.400   1.545  0.00  0.00    +0.000 C 
ATOM      6  C   LIG    1       -0.781   3.479   2.232  0.00  0.00    +0.016 C 
ATOM      7  C   LIG    1       -0.665   2.983   3.680  0.00  0.00    +0.081 C 
ATOM      8  S   LIG    1       -1.805   1.670   4.085  0.00  0.00    -0.093 S 
ATOM      9  S   LIG    1       -0.944  -0.241   4.218  0.00  0.00    -0.091 S 
ATOM     10  C   LIG    1       -1.897  -1.501   3.285  0.00  0.00    +0.112 C 
ATOM     11  C   LIG    1       -1.418  -1.305   1.810  0.00  0.00    +0.170 C 
ATOM     12  C   LIG    1        0.020  -0.898   1.866  0.00  0.00    +0.238 C 
ATOM     13  O   LIG    1        0.319   0.260   2.257  0.00  0.00    -0.273 OA
ATOM     14  N   LIG    1        1.110  -1.733   1.509  0.00  0.00    -0.280 N 
ATOM     15  H   LIG    1        1.958  -1.818   2.174  0.00  0.00    +0.155 HD
ATOM     16  C   LIG    1        1.259  -2.528   0.344  0.00  0.00    +0.092 C 
ATOM     17  C   LIG    1        1.681  -3.802   0.556  0.00  0.00    -0.002 C 
ATOM     18  C   LIG    1        1.982  -4.334   1.903  0.00  0.00    +0.037 C 
ATOM     19  C   LIG    1        0.998  -2.118  -1.020  0.00  0.00    +0.259 C 
ATOM     20  N   LIG    1        1.391  -0.940  -1.685  0.00  0.00    -0.297 N 
ATOM     21  C   LIG    1        2.024   0.219  -1.111  0.00  0.00    +0.185 C 
ATOM     22  C   LIG    1        1.961   1.394  -2.013  0.00  0.00    +0.328 C 
ATOM     23  O   LIG    1        2.244   1.153  -3.245  0.00  0.00    -0.249 OA
ATOM     24  H   LIG    1        1.218  -0.854  -2.742  0.00  0.00    +0.150 HD
ATOM     25  O   LIG    1        0.312  -2.956  -1.715  0.00  0.00    -0.269 OA
ATOM     26  N   LIG    1       -2.247  -0.243   1.318  0.00  0.00    -0.302 N 
ATOM     27  H   LIG    1       -2.346   0.649   1.931  0.00  0.00    +0.150 HD
ATOM     28  C   LIG    1       -3.002  -0.172   0.133  0.00  0.00    +0.234 C 
ATOM     29  O   LIG    1       -4.298  -0.196   0.164  0.00  0.00    -0.274 OA
ATOM     30  C   LIG    1       -2.446  -0.061  -1.260  0.00  0.00    +0.161 C 
ATOM     31  O   LIG    1        1.639   2.679  -1.670  0.00  0.00    -0.459 OA
ATOM     32  O   LIG    1       -2.218   3.551  -1.430  0.00  0.00    -0.276 OA
ATOM     33  N   LIG    1       -2.751   1.268  -1.744  0.00  0.00    -0.304 N 
ATOM     34  H   LIG    1       -3.592   1.473  -2.365  0.00  0.00    +0.149 HD
ENDROOT
BRANCH  21  35
ATOM     35  C   LIG    1        3.474  -0.083  -0.724  0.00  0.00    +0.014 C 
ATOM     36  C   LIG    1        4.008   1.133  -0.025  0.00  0.00    +0.009 C 
ATOM     37  C   LIG    1        4.293  -0.527  -1.889  0.00  0.00    +0.009 C 
ENDBRANCH  21  35
BRANCH  30  38
ATOM     38  C   LIG    1       -3.256  -1.029  -2.105  0.00  0.00    +0.012 C 
ATOM     39  C   LIG    1       -3.055  -2.461  -1.732  0.00  0.00    +0.009 C 
ATOM     40  C   LIG    1       -2.923  -0.875  -3.578  0.00  0.00    +0.009 C 
ENDBRANCH  30  38
TORSDOF 2
