REMARK  Name = molecules/OHTXTCNTQJFRIG-UHFFFAOYSA-N.pdb
REMARK                            x       y       z     vdW  Elec       q    Type
REMARK                         _______ _______ _______ _____ _____    ______ ____
ROOT
ATOM      1 BR   LIG    1        0.018  -0.441   2.777  0.00  0.00    -0.049 Br
ATOM      2  C   LIG    1       -0.501   1.193   1.947  0.00  0.00    +0.041 A 
ATOM      3  C   LIG    1       -0.908   2.215   2.806  0.00  0.00    +0.047 A 
ATOM      4 BR   LIG    1       -0.937   1.975   4.706  0.00  0.00    -0.048 Br
ATOM      5  C   LIG    1       -1.296   3.418   2.257  0.00  0.00    +0.048 A 
ATOM      6 BR   LIG    1       -1.875   4.890   3.357  0.00  0.00    -0.048 Br
ATOM      7  C   LIG    1       -1.264   3.556   0.889  0.00  0.00    +0.047 A 
ATOM      8 BR   LIG    1       -1.798   5.223   0.087  0.00  0.00    -0.048 Br
ATOM      9  C   LIG    1       -0.857   2.534   0.025  0.00  0.00    +0.083 A 
ATOM     10  C   LIG    1       -0.755   2.451  -1.428  0.00  0.00    +0.342 C 
ATOM     11  O   LIG    1       -0.306   1.191  -1.716  0.00  0.00    -0.440 OA
ATOM     12  C   LIG    1       -0.082   0.448  -0.537  0.00  0.00    +0.191 C 
ATOM     13  O   LIG    1       -1.045   3.408  -2.226  0.00  0.00    -0.245 OA
ATOM     14  C   LIG    1       -0.471   1.338   0.580  0.00  0.00    +0.035 A 
ENDROOT
BRANCH  12  15
ATOM     15  C   LIG    1        1.347   0.114  -0.520  0.00  0.00    +0.007 A 
ATOM     16  C   LIG    1        2.189   0.716   0.379  0.00  0.00    +0.041 A 
ATOM     17  C   LIG    1        3.559   0.414   0.390  0.00  0.00    +0.158 A 
ATOM     18  C   LIG    1        4.057  -0.491  -0.506  0.00  0.00    +0.144 A 
ATOM     19  C   LIG    1        3.225  -1.104  -1.415  0.00  0.00    +0.048 A 
ATOM     20  C   LIG    1        1.860  -0.789  -1.411  0.00  0.00    +0.012 A 
BRANCH  17  21
ATOM     21  S   LIG    1        4.633   1.177   1.525  0.00  0.00    +0.113 S 
ATOM     22  O   LIG    1        3.825   2.062   2.463  0.00  0.00    -0.142 OA
ATOM     23  O   LIG    1        5.664   2.022   0.841  0.00  0.00    -0.142 OA
BRANCH  21  24
ATOM     24  O   LIG    1        5.398   0.021   2.510  0.00  0.00    -0.250 OA
ATOM     25  H   LIG    1        5.530  -0.809   1.950  0.00  0.00    +0.245 HD
ENDBRANCH  21  24
ENDBRANCH  17  21
BRANCH  18  26
ATOM     26  O   LIG    1        5.417  -0.783  -0.485  0.00  0.00    -0.505 OA
ATOM     27  H   LIG    1        5.832  -1.456  -1.141  0.00  0.00    +0.292 HD
ENDBRANCH  18  26
ENDBRANCH  12  15
BRANCH  12  28
ATOM     28  C   LIG    1       -0.950  -0.744  -0.618  0.00  0.00    +0.007 A 
ATOM     29  C   LIG    1       -0.491  -1.965  -0.206  0.00  0.00    +0.012 A 
ATOM     30  C   LIG    1       -1.306  -3.101  -0.276  0.00  0.00    +0.048 A 
ATOM     31  C   LIG    1       -2.608  -2.954  -0.779  0.00  0.00    +0.144 A 
ATOM     32  C   LIG    1       -3.051  -1.715  -1.188  0.00  0.00    +0.158 A 
ATOM     33  C   LIG    1       -2.224  -0.601  -1.111  0.00  0.00    +0.041 A 
BRANCH  32  34
ATOM     34  S   LIG    1       -4.670  -1.549  -1.809  0.00  0.00    +0.113 S 
ATOM     35  O   LIG    1       -4.947  -0.091  -2.139  0.00  0.00    -0.142 OA
ATOM     36  O   LIG    1       -4.843  -2.317  -3.097  0.00  0.00    -0.142 OA
BRANCH  34  37
ATOM     37  O   LIG    1       -5.812  -2.004  -0.664  0.00  0.00    -0.250 OA
ATOM     38  H   LIG    1       -5.435  -2.034   0.252  0.00  0.00    +0.245 HD
ENDBRANCH  34  37
ENDBRANCH  32  34
BRANCH  31  39
ATOM     39  O   LIG    1       -3.446  -4.060  -0.862  0.00  0.00    -0.505 OA
ATOM     40  H   LIG    1       -4.375  -3.917  -1.229  0.00  0.00    +0.292 HD
ENDBRANCH  31  39
ENDBRANCH  12  28
TORSDOF 8
