REMARK  Name = molecules/OIPILFWXSMYKGL-UHFFFAOYSA-N.pdb
REMARK                            x       y       z     vdW  Elec       q    Type
REMARK                         _______ _______ _______ _____ _____    ______ ____
ROOT
ATOM      1  C   LIG    1        0.565   0.508   0.918  0.00  0.00    +0.214 C 
ENDROOT
BRANCH   1   2
ATOM      2  O   LIG    1        1.936   0.791   0.747  0.00  0.00    -0.467 OA
BRANCH   2   4
ATOM      3  C   LIG    1        4.311   0.309   0.102  0.00  0.00    +0.136 C 
ATOM      4  C   LIG    1        2.866  -0.081   0.251  0.00  0.00    +0.304 C 
ATOM      5  O   LIG    1        2.522  -1.232  -0.090  0.00  0.00    -0.251 OA
ENDBRANCH   2   4
ENDBRANCH   1   2
BRANCH   1   6
ATOM      6  C   LIG    1       -0.105   0.169  -0.368  0.00  0.00    -0.035 C 
BRANCH   6   7
ATOM      7  N   LIG    1       -1.506  -0.125  -0.236  0.00  0.00    +0.377 N 
ATOM      8  C   LIG    1       -1.983  -0.021   1.126  0.00  0.00    -0.093 C 
ATOM      9  C   LIG    1       -1.764  -1.474  -0.685  0.00  0.00    -0.093 C 
ATOM     10  C   LIG    1       -2.291   0.765  -1.062  0.00  0.00    -0.093 C 
ENDBRANCH   6   7
ENDBRANCH   1   6
TORSDOF 4
