REMARK  Name = molecules/OIQJEQLSYJSNDS-LLVKDONJSA-N.pdb
REMARK                            x       y       z     vdW  Elec       q    Type
REMARK                         _______ _______ _______ _____ _____    ______ ____
ROOT
ATOM      1  C   LIG    1        1.800   0.631  -0.183  0.00  0.00    +0.062 A 
ATOM      2  N   LIG    1        1.806   1.338   0.957  0.00  0.00    -0.151 N 
ATOM      3  C   LIG    1        2.763   1.139   1.905  0.00  0.00    +0.284 A 
ATOM      4  O   LIG    1        2.784   1.793   2.983  0.00  0.00    -0.265 OA
ATOM      5  C   LIG    1        3.743   0.201   1.698  0.00  0.00    +0.076 A 
ATOM      6  C   LIG    1        3.739  -0.509   0.550  0.00  0.00    -0.043 A 
ATOM      7  C   LIG    1        4.791  -1.541   0.286  0.00  0.00    +0.044 C 
ATOM      8  C   LIG    1        2.777  -0.311  -0.405  0.00  0.00    +0.028 A 
ENDROOT
BRANCH   2   9
ATOM      9  O   LIG    1        0.888   2.313   1.277  0.00  0.00    -0.423 OA
ATOM     10  H   LIG    1        0.618   3.065   0.687  0.00  0.00    +0.326 HD
ENDBRANCH   2   9
BRANCH   1  11
ATOM     11  C   LIG    1        0.762   0.862  -1.179  0.00  0.00    +0.060 C 
BRANCH  11  13
ATOM     12  C   LIG    1       -0.346  -1.411  -1.114  0.00  0.00    +0.008 C 
ATOM     13  C   LIG    1       -0.497   0.062  -1.054  0.00  0.00    -0.008 C 
BRANCH  13  14
ATOM     14  C   LIG    1       -1.352   0.495   0.082  0.00  0.00    +0.009 C 
BRANCH  14  15
ATOM     15  C   LIG    1       -2.749   0.005   0.120  0.00  0.00    -0.037 C 
ATOM     16  C   LIG    1       -3.412   0.789   1.293  0.00  0.00    +0.010 C 
ATOM     17  C   LIG    1       -2.986  -1.423   0.424  0.00  0.00    +0.010 C 
ATOM     18  C   LIG    1       -3.538   0.403  -1.108  0.00  0.00    +0.010 C 
ENDBRANCH  14  15
ENDBRANCH  13  14
ENDBRANCH  11  13
ENDBRANCH   1  11
TORSDOF 5
