REMARK  Name = molecules/OIRAEJWYWSAQNG-GFCCVEGCSA-N.pdb
REMARK                            x       y       z     vdW  Elec       q    Type
REMARK                         _______ _______ _______ _____ _____    ______ ____
ROOT
ATOM      1  C   LIG    1        3.774  -0.517  -0.679  0.00  0.00    +0.128 C 
ATOM      2  C   LIG    1        2.324  -0.624  -0.468  0.00  0.00    -0.029 A 
ATOM      3  C   LIG    1        1.756   0.623  -0.262  0.00  0.00    -0.043 A 
ATOM      4  C   LIG    1        2.907   1.614  -0.056  0.00  0.00    +0.036 C 
ATOM      5  C   LIG    1        0.379   0.738  -0.162  0.00  0.00    +0.009 A 
ATOM      6  C   LIG    1       -0.462  -0.347  -0.252  0.00  0.00    -0.026 A 
ATOM      7  C   LIG    1        0.150  -1.603  -0.454  0.00  0.00    +0.045 A 
ATOM      8 CL   LIG    1       -1.007  -2.930  -0.647  0.00  0.00    -0.083 Cl
ATOM      9  C   LIG    1        1.496  -1.759  -0.562  0.00  0.00    +0.025 A 
ATOM     10  C   LIG    1        4.058   0.957  -0.773  0.00  0.00    +0.024 C 
ENDROOT
BRANCH   6  11
ATOM     11  C   LIG    1       -1.857  -0.296  -0.055  0.00  0.00    +0.020 C 
ATOM     12  C   LIG    1       -2.063   0.420   1.366  0.00  0.00    +0.008 C 
ATOM     13  C   LIG    1       -3.507   0.766   1.559  0.00  0.00    +0.001 C 
ATOM     14  C   LIG    1       -4.350  -0.209   0.760  0.00  0.00    +0.000 C 
ATOM     15  C   LIG    1       -4.160   0.098  -0.691  0.00  0.00    +0.001 C 
ATOM     16  C   LIG    1       -2.709   0.567  -0.968  0.00  0.00    +0.008 C 
ENDBRANCH   6  11
BRANCH   1  17
ATOM     17  C   LIG    1        4.567  -1.240   0.306  0.00  0.00    +0.312 C 
ATOM     18  O   LIG    1        5.481  -2.010  -0.092  0.00  0.00    -0.250 OA
BRANCH  17  19
ATOM     19  O   LIG    1        4.354  -1.106   1.684  0.00  0.00    -0.480 OA
ATOM     20  H   LIG    1        5.042  -0.552   2.232  0.00  0.00    +0.295 HD
ENDBRANCH  17  19
ENDBRANCH   1  17
TORSDOF 3
