REMARK  Name = molecules/OIRFJRBSRORBCM-YFKPBYRVSA-N.pdb
REMARK                            x       y       z     vdW  Elec       q    Type
REMARK                         _______ _______ _______ _____ _____    ______ ____
ROOT
ATOM      1  C   LIG    1        0.943  -0.563  -0.123  0.00  0.00    -0.019 A 
ATOM      2  C   LIG    1        1.464  -1.216   0.984  0.00  0.00    +0.019 A 
ATOM      3  I   LIG    1        0.478  -2.920   1.762  0.00  0.00    -0.043 I 
ATOM      4  C   LIG    1        2.629  -0.800   1.598  0.00  0.00    +0.031 A 
ATOM      5  C   LIG    1        3.330   0.280   1.143  0.00  0.00    +0.036 A 
ATOM      6  I   LIG    1        5.125   0.930   2.079  0.00  0.00    -0.042 I 
ATOM      7  C   LIG    1        2.833   0.945   0.043  0.00  0.00    +0.051 A 
ATOM      8  C   LIG    1        1.658   0.525  -0.575  0.00  0.00    +0.039 A 
ATOM      9  I   LIG    1        0.944   1.555  -2.266  0.00  0.00    -0.042 I 
ENDROOT
BRANCH   7  10
ATOM     10  N   LIG    1        3.562   2.067  -0.428  0.00  0.00    -0.356 N 
ATOM     11  H   LIG    1        4.508   2.271  -0.104  0.00  0.00    +0.142 HD
ATOM     12  H   LIG    1        3.147   2.738  -1.140  0.00  0.00    +0.142 HD
ENDBRANCH   7  10
BRANCH   1  13
ATOM     13  C   LIG    1       -0.307  -0.997  -0.786  0.00  0.00    +0.052 C 
BRANCH  13  14
ATOM     14  C   LIG    1       -1.511  -0.172  -0.523  0.00  0.00    +0.102 C 
BRANCH  14  15
ATOM     15  C   LIG    1       -1.829   0.088   0.918  0.00  0.00    +0.011 C 
ATOM     16  C   LIG    1       -3.072   0.944   1.033  0.00  0.00    +0.004 C 
ENDBRANCH  14  15
BRANCH  14  17
ATOM     17  C   LIG    1       -2.654  -0.758  -1.265  0.00  0.00    +0.308 C 
ATOM     18  O   LIG    1       -3.324  -0.170  -2.139  0.00  0.00    -0.251 OA
BRANCH  17  19
ATOM     19  O   LIG    1       -3.003  -2.058  -0.964  0.00  0.00    -0.480 OA
ATOM     20  H   LIG    1       -2.849  -2.534  -0.108  0.00  0.00    +0.295 HD
ENDBRANCH  17  19
ENDBRANCH  14  17
ENDBRANCH  13  14
ENDBRANCH   1  13
TORSDOF 6
