REMARK  Name = molecules/OJGDCBLYJGHCIH-UHFFFAOYSA-N.pdb
REMARK                            x       y       z     vdW  Elec       q    Type
REMARK                         _______ _______ _______ _____ _____    ______ ____
ROOT
ATOM      1  C   LIG    1        2.262   0.173   0.398  0.00  0.00    -0.011 A 
ATOM      2  C   LIG    1        2.523   1.511   0.425  0.00  0.00    +0.022 A 
ATOM      3  C   LIG    1        3.763   2.046   0.198  0.00  0.00    +0.019 A 
ATOM      4 BR   LIG    1        4.168   3.897   0.337  0.00  0.00    -0.050 Br
ATOM      5  C   LIG    1        4.833   1.202  -0.096  0.00  0.00    +0.032 A 
ATOM      6  C   LIG    1        4.550  -0.134  -0.113  0.00  0.00    +0.040 A 
ATOM      7 BR   LIG    1        5.979  -1.358  -0.556  0.00  0.00    -0.048 Br
ATOM      8  C   LIG    1        3.329  -0.709   0.134  0.00  0.00    +0.043 A 
ENDROOT
BRANCH   8   9
ATOM      9  N   LIG    1        3.081  -2.096   0.060  0.00  0.00    -0.357 N 
ATOM     10  H   LIG    1        2.776  -2.720   0.825  0.00  0.00    +0.142 HD
ATOM     11  H   LIG    1        3.232  -2.493  -0.932  0.00  0.00    +0.142 HD
ENDBRANCH   8   9
BRANCH   1  12
ATOM     12  C   LIG    1        0.983  -0.450   0.859  0.00  0.00    +0.121 C 
BRANCH  12  13
ATOM     13  N   LIG    1       -0.089  -0.348  -0.057  0.00  0.00    -0.298 NA
ATOM     14  C   LIG    1       -0.081  -1.453  -1.005  0.00  0.00    +0.105 C 
BRANCH  13  15
ATOM     15  C   LIG    1       -1.372   0.057   0.358  0.00  0.00    +0.057 C 
ATOM     16  C   LIG    1       -2.383  -1.053   0.516  0.00  0.00    +0.019 C 
ATOM     17  C   LIG    1       -3.741  -0.697   0.037  0.00  0.00    +0.002 C 
ATOM     18  C   LIG    1       -4.200   0.696   0.328  0.00  0.00    +0.000 C 
ATOM     19  C   LIG    1       -3.119   1.718   0.137  0.00  0.00    +0.002 C 
ATOM     20  C   LIG    1       -1.986   1.104  -0.588  0.00  0.00    +0.019 C 
ENDBRANCH  13  15
ENDBRANCH  12  13
ENDBRANCH   1  12
TORSDOF 4
