REMARK  Name = molecules/OJLHWPALWODJPQ-QNWVGRARSA-N.pdb
REMARK                            x       y       z     vdW  Elec       q    Type
REMARK                         _______ _______ _______ _____ _____    ______ ____
ROOT
ATOM      1  C   UNK A  1       -2.964   0.773  -1.104  0.00  0.00    +0.180 C 
ENDROOT
BRANCH   1   2
ATOM      2  N   UNK A  1       -3.413   2.008  -0.509  0.00  0.00    -0.303 N 
ATOM      3  H   UNK A  1       -2.191   2.058   0.113  0.00  0.00    +0.149 HD
ATOM      4  C   UNK A  1       -3.811   3.115   0.027  0.00  0.00    +0.214 C 
ATOM      5  O   UNK A  1       -3.196   3.880   0.842  0.00  0.00    -0.276 OA
BRANCH   4   6
ATOM      6  C   UNK A  1       -5.215   3.624  -0.322  0.00  0.00    +0.098 C 
BRANCH   6   7
ATOM      7  C   UNK A  1       -5.711   4.561   0.694  0.00  0.00    +0.039 C 
BRANCH   7   8
ATOM      8  C   UNK A  1       -4.981   5.834   0.951  0.00  0.00    +0.161 C 
BRANCH   8   9
ATOM      9  N   UNK A  1       -5.861   6.609   1.887  0.00  0.00    -0.318 NA
ATOM     10  H   UNK A  1       -5.971   5.990   2.706  0.00  0.00    +0.119 HD
ATOM     11  H   UNK A  1       -6.767   6.712   1.378  0.00  0.00    +0.119 HD
ENDBRANCH   8   9
BRANCH   8  12
ATOM     12  C   UNK A  1       -4.905   6.657  -0.282  0.00  0.00    +0.322 C 
ATOM     13  O   UNK A  1       -4.311   6.332  -1.322  0.00  0.00    -0.249 OA
BRANCH  12  14
ATOM     14  O   UNK A  1       -5.548   7.907  -0.305  0.00  0.00    -0.480 OA
ATOM     15  H   UNK A  1       -6.535   7.958  -0.613  0.00  0.00    +0.295 HD
ENDBRANCH  12  14
ENDBRANCH   8  12
ENDBRANCH   7   8
ENDBRANCH   6   7
ENDBRANCH   4   6
ENDBRANCH   1   2
BRANCH   1  16
ATOM     16  C   UNK A  1       -3.491  -0.371  -0.378  0.00  0.00    +0.236 C 
ATOM     17  O   UNK A  1       -4.176  -0.192   0.698  0.00  0.00    -0.274 OA
ATOM     18  N   UNK A  2       -3.315  -1.739  -0.786  0.00  0.00    -0.297 N 
ATOM     19  H   UNK A  2       -2.757  -1.942  -1.612  0.00  0.00    +0.150 HD
BRANCH  18  20
ATOM     20  C   UNK A  2       -3.960  -2.765   0.015  0.00  0.00    +0.213 C 
BRANCH  20  21
ATOM     21  C   UNK A  2       -3.339  -4.085   0.042  0.00  0.00    -0.017 A 
ATOM     22  C   UNK A  2       -3.314  -4.819   1.246  0.00  0.00    +0.006 A 
ATOM     23  C   UNK A  2       -2.822  -6.051   1.341  0.00  0.00    +0.000 A 
ATOM     24  C   UNK A  2       -2.283  -6.711   0.230  0.00  0.00    +0.000 A 
ATOM     25  C   UNK A  2       -2.284  -6.031  -0.970  0.00  0.00    +0.000 A 
ATOM     26  C   UNK A  2       -2.808  -4.746  -1.033  0.00  0.00    +0.006 A 
ENDBRANCH  20  21
BRANCH  20  27
ATOM     27  C   UNK A  2       -5.395  -2.917  -0.510  0.00  0.00    +0.330 C 
ATOM     28  O   UNK A  2       -5.823  -2.337  -1.511  0.00  0.00    -0.249 OA
BRANCH  27  29
ATOM     29  O   UNK A  2       -6.231  -3.756   0.209  0.00  0.00    -0.479 OA
ATOM     30  H   UNK A  2       -6.617  -4.601  -0.139  0.00  0.00    +0.295 HD
ENDBRANCH  27  29
ENDBRANCH  20  27
ENDBRANCH  18  20
ENDBRANCH   1  16
BRANCH   1  31
ATOM     31  C   UNK A  1       -1.624   0.754  -1.666  0.00  0.00    +0.197 C 
BRANCH  31  32
ATOM     32  S   UNK A  1       -0.229   0.536  -0.626  0.00  0.00    -0.027 S 
ATOM     33  O   UNK A  1       -0.140   1.485   0.497  0.00  0.00    -0.174 OA
ATOM     34  O   UNK A  1       -0.277  -0.884  -0.089  0.00  0.00    -0.174 OA
BRANCH  32  35
ATOM     35  C   UNK A  1        1.220   0.675  -1.698  0.00  0.00    +0.194 C 
BRANCH  35  36
ATOM     36  C   UNK A  1        2.490   0.586  -0.906  0.00  0.00    +0.193 C 
BRANCH  36  37
ATOM     37  O   UNK A  1        2.632  -0.613  -0.314  0.00  0.00    -0.304 OA
BRANCH  37  38
ATOM     38  P   UNK A  1        4.050  -0.867   0.569  0.00  0.00    +0.349 P 
ATOM     39  O   UNK A  1        3.635  -1.825   1.688  0.00  0.00    -0.254 OA
BRANCH  38  40
ATOM     40  N   UNK A  1        4.833   0.538   1.120  0.00  0.00    -0.217 NA
BRANCH  40  41
ATOM     41  C   UNK A  1        4.106   1.492   1.851  0.00  0.00    +0.111 C 
BRANCH  41  42
ATOM     42  C   UNK A  1        4.674   1.907   3.190  0.00  0.00    +0.124 C 
ATOM     43 CL   UNK A  1        4.815   0.614   4.360  0.00  0.00    -0.124 Cl
ENDBRANCH  41  42
ENDBRANCH  40  41
BRANCH  40  44
ATOM     44  C   UNK A  1        6.081   0.902   0.585  0.00  0.00    +0.111 C 
BRANCH  44  45
ATOM     45  C   UNK A  1        6.116   1.892  -0.520  0.00  0.00    +0.124 C 
ATOM     46 CL   UNK A  1        7.842   2.166  -0.961  0.00  0.00    -0.124 Cl
ENDBRANCH  44  45
ENDBRANCH  40  44
ENDBRANCH  38  40
BRANCH  38  47
ATOM     47  N   UNK A  1        5.161  -1.801  -0.472  0.00  0.00    -0.217 NA
BRANCH  47  48
ATOM     48  C   UNK A  1        4.438  -1.990  -1.752  0.00  0.00    +0.111 C 
BRANCH  48  49
ATOM     49  C   UNK A  1        5.357  -2.680  -2.719  0.00  0.00    +0.124 C 
ATOM     50 CL   UNK A  1        6.812  -1.664  -2.946  0.00  0.00    -0.124 Cl
ENDBRANCH  48  49
ENDBRANCH  47  48
BRANCH  47  51
ATOM     51  C   UNK A  1        5.356  -3.087   0.141  0.00  0.00    +0.111 C 
BRANCH  51  52
ATOM     52  C   UNK A  1        6.507  -3.073   1.102  0.00  0.00    +0.124 C 
ATOM     53 CL   UNK A  1        6.276  -1.953   2.423  0.00  0.00    -0.124 Cl
ENDBRANCH  51  52
ENDBRANCH  47  51
ENDBRANCH  38  47
ENDBRANCH  37  38
ENDBRANCH  36  37
ENDBRANCH  35  36
ENDBRANCH  32  35
ENDBRANCH  31  32
ENDBRANCH   1  31
TORSDOF 28
