REMARK  Name = molecules/OJLOPKGSLYJEMD-YCVNZHGXSA-N.pdb
REMARK                            x       y       z     vdW  Elec       q    Type
REMARK                         _______ _______ _______ _____ _____    ______ ____
ROOT
ATOM      1  C   LIG    1        1.229  -2.995  -0.005  0.00  0.00    +0.140 C 
ATOM      2  O   LIG    1        1.857  -3.435   0.912  0.00  0.00    -0.297 OA
ATOM      3  C   LIG    1        0.585  -1.666  -0.077  0.00  0.00    +0.065 C 
ATOM      4  C   LIG    1       -0.779  -2.152  -0.651  0.00  0.00    +0.050 C 
ATOM      5  C   LIG    1       -0.324  -2.952  -1.816  0.00  0.00    +0.129 C 
ATOM      6  C   LIG    1        0.939  -3.663  -1.290  0.00  0.00    +0.106 C 
ENDROOT
BRANCH   5   7
ATOM      7  O   LIG    1       -1.264  -3.874  -2.252  0.00  0.00    -0.391 OA
ATOM      8  H   LIG    1       -1.232  -4.027  -3.230  0.00  0.00    +0.210 HD
ENDBRANCH   5   7
BRANCH   4   9
ATOM      9  C   LIG    1       -1.690  -1.033  -0.942  0.00  0.00    -0.024 C 
ATOM     10  C   LIG    1       -2.183  -0.760  -2.132  0.00  0.00    -0.028 C 
BRANCH  10  11
ATOM     11  C   LIG    1       -3.079   0.284  -2.576  0.00  0.00    +0.061 C 
BRANCH  11  12
ATOM     12  C   LIG    1       -3.676   1.238  -1.635  0.00  0.00    +0.067 C 
ATOM     13  C   LIG    1       -2.659   2.184  -1.007  0.00  0.00    +0.041 C 
BRANCH  12  14
ATOM     14  O   LIG    1       -4.502   2.103  -2.415  0.00  0.00    -0.389 OA
ATOM     15  H   LIG    1       -5.241   1.543  -2.802  0.00  0.00    +0.210 HD
ENDBRANCH  12  14
BRANCH  12  16
ATOM     16  C   LIG    1       -4.599   0.667  -0.595  0.00  0.00    +0.035 C 
BRANCH  16  17
ATOM     17  C   LIG    1       -5.147   1.752   0.317  0.00  0.00    +0.003 C 
BRANCH  17  18
ATOM     18  C   LIG    1       -6.078   1.150   1.361  0.00  0.00    -0.003 C 
ATOM     19  C   LIG    1       -5.315   0.139   2.202  0.00  0.00    +0.004 C 
ENDBRANCH  17  18
ENDBRANCH  16  17
ENDBRANCH  12  16
ENDBRANCH  11  12
ENDBRANCH  10  11
ENDBRANCH   4   9
BRANCH   3  20
ATOM     20  C   LIG    1        0.383  -1.042   1.242  0.00  0.00    +0.012 C 
BRANCH  20  21
ATOM     21  C   LIG    1        1.507  -0.791   2.129  0.00  0.00    +0.001 C 
BRANCH  21  22
ATOM     22  C   LIG    1        2.641   0.090   1.796  0.00  0.00    +0.000 C 
BRANCH  22  23
ATOM     23  C   LIG    1        3.469  -0.327   0.645  0.00  0.00    +0.001 C 
BRANCH  23  24
ATOM     24  C   LIG    1        4.655   0.614   0.417  0.00  0.00    +0.011 C 
BRANCH  24  25
ATOM     25  C   LIG    1        5.568   0.678   1.588  0.00  0.00    +0.120 C 
BRANCH  25  26
ATOM     26  C   LIG    1        6.684   1.604   1.289  0.00  0.00    +0.307 C 
ATOM     27  O   LIG    1        7.608   1.850   2.105  0.00  0.00    -0.251 OA
BRANCH  26  28
ATOM     28  O   LIG    1        6.731   2.238   0.059  0.00  0.00    -0.468 OA
ATOM     29  C   LIG    1        7.796   3.133  -0.251  0.00  0.00    +0.280 C 
ENDBRANCH  26  28
ENDBRANCH  25  26
ENDBRANCH  24  25
ENDBRANCH  23  24
ENDBRANCH  22  23
ENDBRANCH  21  22
ENDBRANCH  20  21
ENDBRANCH   3  20
TORSDOF 16
