REMARK  Name = molecules/OJMMVQQUTAEWLP-KIDUDLJLSA-N.pdb
REMARK                            x       y       z     vdW  Elec       q    Type
REMARK                         _______ _______ _______ _____ _____    ______ ____
ROOT
ATOM      1  C   LIG    1       -1.352  -1.221  -0.699  0.00  0.00    +0.132 C 
ENDROOT
BRANCH   1   2
ATOM      2  C   LIG    1       -2.407  -0.882   0.342  0.00  0.00    +0.173 C 
ATOM      3  C   LIG    1       -3.306  -1.976   0.634  0.00  0.00    +0.176 C 
ATOM      4  C   LIG    1       -4.779  -1.615   0.662  0.00  0.00    +0.177 C 
ATOM      5  C   LIG    1       -4.844  -0.254   1.321  0.00  0.00    +0.184 C 
ATOM      6  C   LIG    1       -4.097   0.725   0.473  0.00  0.00    +0.207 C 
ATOM      7  O   LIG    1       -2.842   0.380   0.113  0.00  0.00    -0.356 OA
BRANCH   5   8
ATOM      8  O   LIG    1       -4.284  -0.318   2.577  0.00  0.00    -0.386 OA
ATOM      9  H   LIG    1       -4.984  -0.428   3.253  0.00  0.00    +0.210 HD
ENDBRANCH   5   8
BRANCH   6  10
ATOM     10  S   LIG    1       -4.042   2.305   1.363  0.00  0.00    -0.131 S 
ATOM     11  C   LIG    1       -3.522   3.654   0.268  0.00  0.00    +0.087 C 
ENDBRANCH   6  10
BRANCH   4  12
ATOM     12  O   LIG    1       -5.401  -1.650  -0.556  0.00  0.00    -0.386 OA
ATOM     13  H   LIG    1       -6.078  -2.344  -0.584  0.00  0.00    +0.210 HD
ENDBRANCH   4  12
BRANCH   3  14
ATOM     14  O   LIG    1       -3.160  -3.117  -0.140  0.00  0.00    -0.387 OA
ATOM     15  H   LIG    1       -4.018  -3.500  -0.447  0.00  0.00    +0.210 HD
ENDBRANCH   3  14
ENDBRANCH   1   2
BRANCH   1  16
ATOM     16  N   LIG    1       -0.207  -0.298  -0.481  0.00  0.00    -0.306 N 
ATOM     17  C   LIG    1        1.054  -0.823  -0.299  0.00  0.00    +0.231 C 
ATOM     18  O   LIG    1        1.199  -2.097  -0.325  0.00  0.00    -0.274 OA
ATOM     19  H   LIG    1       -0.415   0.700  -0.476  0.00  0.00    +0.149 HD
BRANCH  17  20
ATOM     20  C   LIG    1        2.300  -0.075  -0.070  0.00  0.00    +0.143 C 
ATOM     21  C   LIG    1        3.057  -0.442   1.157  0.00  0.00    +0.033 C 
ATOM     22  C   LIG    1        4.136   0.651   1.173  0.00  0.00    +0.005 C 
ATOM     23  C   LIG    1        3.550   1.747   0.276  0.00  0.00    +0.088 C 
ATOM     24  N   LIG    1        2.179   1.336   0.007  0.00  0.00    -0.294 NA
ATOM     25  C   LIG    1        1.315   1.823   1.026  0.00  0.00    +0.105 C 
BRANCH  22  26
ATOM     26  C   LIG    1        5.352   0.025   0.510  0.00  0.00    +0.004 C 
BRANCH  26  27
ATOM     27  C   LIG    1        6.513   0.990   0.451  0.00  0.00    -0.003 C 
ATOM     28  C   LIG    1        7.664   0.271  -0.222  0.00  0.00    +0.004 C 
ENDBRANCH  26  27
ENDBRANCH  22  26
ENDBRANCH  17  20
ENDBRANCH   1  16
BRANCH   1  29
ATOM     29  C   LIG    1       -1.816  -0.952  -2.120  0.00  0.00    +0.134 C 
ATOM     30  C   LIG    1       -2.588  -2.049  -2.771  0.00  0.00    +0.039 C 
BRANCH  29  31
ATOM     31  O   LIG    1       -2.284   0.319  -2.331  0.00  0.00    -0.390 OA
ATOM     32  H   LIG    1       -2.236   0.497  -3.305  0.00  0.00    +0.210 HD
ENDBRANCH  29  31
ENDBRANCH   1  29
TORSDOF 11
