REMARK  Name = molecules/OJSFTALXCYKKFQ-YLJYHZDGSA-N.pdb
REMARK                            x       y       z     vdW  Elec       q    Type
REMARK                         _______ _______ _______ _____ _____    ______ ____
ROOT
ATOM      1  C   LIG    1       -1.245  -0.585  -0.519  0.00  0.00    +0.048 C 
ATOM      2  C   LIG    1       -2.517   0.005   0.020  0.00  0.00    +0.028 C 
ATOM      3  C   LIG    1       -3.663  -0.681  -0.732  0.00  0.00    +0.024 C 
ATOM      4  C   LIG    1       -3.648  -2.123  -0.270  0.00  0.00    +0.084 C 
ATOM      5  N   LIG    1       -2.390  -2.703  -0.697  0.00  0.00    -0.305 NA
ATOM      6  C   LIG    1       -2.348  -4.122  -0.446  0.00  0.00    +0.104 C 
ATOM      7  C   LIG    1       -1.254  -2.056  -0.090  0.00  0.00    +0.091 C 
ENDROOT
BRANCH   2   8
ATOM      8  C   LIG    1       -2.599   1.452  -0.044  0.00  0.00    -0.044 A 
ATOM      9  C   LIG    1       -2.776   2.164   1.125  0.00  0.00    +0.004 A 
ATOM     10  C   LIG    1       -2.865   3.538   1.160  0.00  0.00    +0.000 A 
ATOM     11  C   LIG    1       -2.775   4.244  -0.020  0.00  0.00    +0.000 A 
ATOM     12  C   LIG    1       -2.598   3.540  -1.191  0.00  0.00    +0.000 A 
ATOM     13  C   LIG    1       -2.508   2.167  -1.239  0.00  0.00    +0.004 A 
ENDBRANCH   2   8
BRANCH   1  14
ATOM     14  C   LIG    1       -0.008   0.027   0.081  0.00  0.00    +0.234 C 
BRANCH  14  15
ATOM     15  O   LIG    1        1.108  -0.614  -0.509  0.00  0.00    -0.492 OA
BRANCH  15  16
ATOM     16  C   LIG    1        2.413  -0.275  -0.166  0.00  0.00    +0.121 A 
ATOM     17  C   LIG    1        2.602   0.713   0.772  0.00  0.00    +0.049 A 
ATOM     18  C   LIG    1        3.876   1.070   1.132  0.00  0.00    +0.049 A 
ATOM     19  C   LIG    1        5.001   0.476   0.588  0.00  0.00    +0.120 A 
ATOM     20  C   LIG    1        4.802  -0.511  -0.351  0.00  0.00    +0.049 A 
ATOM     21  C   LIG    1        3.508  -0.869  -0.710  0.00  0.00    +0.049 A 
BRANCH  19  22
ATOM     22  O   LIG    1        6.270   0.881   0.992  0.00  0.00    -0.495 OA
ATOM     23  C   LIG    1        7.451   0.332   0.491  0.00  0.00    +0.277 C 
ENDBRANCH  19  22
ENDBRANCH  15  16
ENDBRANCH  14  15
ENDBRANCH   1  14
TORSDOF 5
