REMARK  Name = molecules/OJZYRQPMEIEQFC-UAWLTFRCSA-N.pdb
REMARK                            x       y       z     vdW  Elec       q    Type
REMARK                         _______ _______ _______ _____ _____    ______ ____
ROOT
ATOM      1  C   LIG    1        2.041  -0.302  -0.331  0.00  0.00    +0.065 C 
ATOM      2  C   LIG    1        1.836  -1.205   0.813  0.00  0.00    +0.140 C 
ATOM      3  C   LIG    1        1.821  -0.311   2.009  0.00  0.00    +0.106 C 
ATOM      4  C   LIG    1        1.124   0.935   1.482  0.00  0.00    +0.129 C 
ATOM      5  O   LIG    1        1.705  -2.397   0.797  0.00  0.00    -0.297 OA
ATOM      6  C   LIG    1        0.934   0.745   0.011  0.00  0.00    +0.051 C 
ENDROOT
BRANCH   6   7
ATOM      7  C   LIG    1       -0.366   0.260  -0.430  0.00  0.00    -0.022 C 
ATOM      8  C   LIG    1       -1.427  -0.057   0.276  0.00  0.00    -0.000 C 
BRANCH   8   9
ATOM      9  C   LIG    1       -2.699  -0.548  -0.382  0.00  0.00    +0.137 C 
BRANCH   9  10
ATOM     10  O   LIG    1       -3.219  -1.480   0.510  0.00  0.00    -0.388 OA
ATOM     11  H   LIG    1       -2.647  -2.284   0.599  0.00  0.00    +0.210 HD
ENDBRANCH   9  10
BRANCH   9  12
ATOM     12  C   LIG    1       -3.620   0.610  -0.495  0.00  0.00    +0.038 C 
BRANCH  12  13
ATOM     13  C   LIG    1       -4.942   0.367  -1.121  0.00  0.00    -0.011 C 
ATOM     14  C   LIG    1       -4.749  -0.014  -2.597  0.00  0.00    +0.007 C 
BRANCH  13  15
ATOM     15  C   LIG    1       -5.816  -0.627  -0.443  0.00  0.00    +0.003 C 
BRANCH  15  16
ATOM     16  C   LIG    1       -6.178  -0.285   0.964  0.00  0.00    -0.000 C 
BRANCH  16  17
ATOM     17  C   LIG    1       -6.924   1.021   1.093  0.00  0.00    -0.003 C 
ATOM     18  C   LIG    1       -8.219   1.037   0.334  0.00  0.00    +0.004 C 
ENDBRANCH  16  17
ENDBRANCH  15  16
ENDBRANCH  13  15
ENDBRANCH  12  13
ENDBRANCH   9  12
ENDBRANCH   8   9
ENDBRANCH   6   7
BRANCH   4  19
ATOM     19  O   LIG    1        1.848   2.096   1.788  0.00  0.00    -0.391 OA
ATOM     20  H   LIG    1        1.438   2.813   1.224  0.00  0.00    +0.210 HD
ENDBRANCH   4  19
BRANCH   1  21
ATOM     21  C   LIG    1        3.305   0.459  -0.371  0.00  0.00    +0.012 C 
BRANCH  21  22
ATOM     22  C   LIG    1        4.562  -0.262  -0.700  0.00  0.00    +0.001 C 
BRANCH  22  23
ATOM     23  C   LIG    1        4.973  -1.361   0.211  0.00  0.00    +0.004 C 
BRANCH  23  24
ATOM     24  C   LIG    1        6.296  -1.924  -0.222  0.00  0.00    +0.027 C 
BRANCH  24  25
ATOM     25  C   LIG    1        7.445  -1.019  -0.063  0.00  0.00    -0.020 C 
ATOM     26  C   LIG    1        7.433   0.168   0.496  0.00  0.00    +0.087 C 
BRANCH  26  27
ATOM     27  C   LIG    1        8.666   0.937   0.565  0.00  0.00    +0.329 C 
ATOM     28  O   LIG    1        8.671   2.071   1.096  0.00  0.00    -0.246 OA
BRANCH  27  29
ATOM     29  O   LIG    1        9.872   0.474   0.061  0.00  0.00    -0.478 OA
ATOM     30  H   LIG    1       10.333   0.917  -0.729  0.00  0.00    +0.295 HD
ENDBRANCH  27  29
ENDBRANCH  26  27
ENDBRANCH  24  25
ENDBRANCH  23  24
ENDBRANCH  22  23
ENDBRANCH  21  22
ENDBRANCH   1  21
TORSDOF 16
