REMARK  Name = molecules/OKACKALPXHBEMA-DKXJUACHSA-N.pdb
REMARK                            x       y       z     vdW  Elec       q    Type
REMARK                         _______ _______ _______ _____ _____    ______ ____
ROOT
ATOM      1  C   LIG    1        0.361   0.194  -0.428  0.00  0.00    +0.064 C 
ENDROOT
BRANCH   1   2
ATOM      2  C   LIG    1       -0.073   1.590  -0.038  0.00  0.00    +0.176 C 
BRANCH   2   3
ATOM      3  O   LIG    1       -0.145   1.759   1.331  0.00  0.00    -0.347 OA
BRANCH   3   4
ATOM      4  C   LIG    1       -0.550   3.071   1.572  0.00  0.00    +0.299 C 
BRANCH   4   5
ATOM      5  C   LIG    1       -1.868   3.124   2.311  0.00  0.00    +0.241 C 
ATOM      6 CL   LIG    1       -1.651   2.308   3.872  0.00  0.00    -0.078 Cl
ATOM      7 CL   LIG    1       -2.285   4.833   2.562  0.00  0.00    -0.078 Cl
ATOM      8 CL   LIG    1       -3.092   2.336   1.305  0.00  0.00    -0.078 Cl
ENDBRANCH   4   5
BRANCH   4   9
ATOM      9  O   LIG    1        0.455   3.744   2.260  0.00  0.00    -0.364 OA
ATOM     10  H   LIG    1        0.947   3.072   2.785  0.00  0.00    +0.213 HD
ENDBRANCH   4   9
ENDBRANCH   3   4
ENDBRANCH   2   3
ENDBRANCH   1   2
BRANCH   1  11
ATOM     11  C   LIG    1       -0.712  -0.821  -0.111  0.00  0.00    +0.176 C 
BRANCH  11  12
ATOM     12  O   LIG    1       -1.033  -0.866   1.246  0.00  0.00    -0.347 OA
BRANCH  12  13
ATOM     13  C   LIG    1       -2.030  -1.771   1.521  0.00  0.00    +0.299 C 
BRANCH  13  14
ATOM     14  C   LIG    1       -1.592  -2.935   2.387  0.00  0.00    +0.241 C 
ATOM     15 CL   LIG    1       -0.987  -2.389   3.950  0.00  0.00    -0.078 Cl
ATOM     16 CL   LIG    1       -3.046  -3.954   2.694  0.00  0.00    -0.078 Cl
ATOM     17 CL   LIG    1       -0.415  -3.979   1.599  0.00  0.00    -0.078 Cl
ENDBRANCH  13  14
BRANCH  13  18
ATOM     18  O   LIG    1       -3.166  -1.217   2.081  0.00  0.00    -0.364 OA
ATOM     19  H   LIG    1       -3.571  -1.806   2.781  0.00  0.00    +0.213 HD
ENDBRANCH  13  18
ENDBRANCH  12  13
ENDBRANCH  11  12
ENDBRANCH   1  11
BRANCH   1  20
ATOM     20  C   LIG    1        0.447   0.230  -1.965  0.00  0.00    +0.176 C 
BRANCH  20  21
ATOM     21  O   LIG    1       -0.836   0.557  -2.395  0.00  0.00    -0.347 OA
BRANCH  21  22
ATOM     22  C   LIG    1       -0.935   0.632  -3.780  0.00  0.00    +0.299 C 
BRANCH  22  23
ATOM     23  C   LIG    1       -1.372   2.058  -4.101  0.00  0.00    +0.241 C 
ATOM     24 CL   LIG    1       -2.952   2.307  -3.292  0.00  0.00    -0.078 Cl
ATOM     25 CL   LIG    1       -0.246   3.238  -3.406  0.00  0.00    -0.078 Cl
ATOM     26 CL   LIG    1       -1.533   2.233  -5.856  0.00  0.00    -0.078 Cl
ENDBRANCH  22  23
BRANCH  22  27
ATOM     27  O   LIG    1       -1.948  -0.244  -4.162  0.00  0.00    -0.364 OA
ATOM     28  H   LIG    1       -1.589  -1.150  -4.293  0.00  0.00    +0.213 HD
ENDBRANCH  22  27
ENDBRANCH  21  22
ENDBRANCH  20  21
ENDBRANCH   1  20
BRANCH   1  29
ATOM     29  C   LIG    1        1.708  -0.141   0.114  0.00  0.00    +0.176 C 
BRANCH  29  30
ATOM     30  O   LIG    1        2.143  -1.412  -0.215  0.00  0.00    -0.347 OA
BRANCH  30  31
ATOM     31  C   LIG    1        3.404  -1.602   0.311  0.00  0.00    +0.299 C 
BRANCH  31  32
ATOM     32  C   LIG    1        3.493  -2.735   1.310  0.00  0.00    +0.241 C 
ATOM     33 CL   LIG    1        2.563  -2.373   2.780  0.00  0.00    -0.078 Cl
ATOM     34 CL   LIG    1        5.233  -2.839   1.763  0.00  0.00    -0.078 Cl
ATOM     35 CL   LIG    1        3.024  -4.284   0.581  0.00  0.00    -0.078 Cl
ENDBRANCH  31  32
BRANCH  31  36
ATOM     36  O   LIG    1        4.328  -1.842  -0.694  0.00  0.00    -0.364 OA
ATOM     37  H   LIG    1        4.969  -2.548  -0.428  0.00  0.00    +0.213 HD
ENDBRANCH  31  36
ENDBRANCH  30  31
ENDBRANCH  29  30
ENDBRANCH   1  29
TORSDOF 20
