REMARK  Name = molecules/OKJPEAGHQZHRQV-UHFFFAOYSA-N.pdb
REMARK                            x       y       z     vdW  Elec       q    Type
REMARK                         _______ _______ _______ _____ _____    ______ ____
ROOT
ATOM      1  C   LIG    1        0.012  -0.022   0.197  0.00  0.00    +0.177 C 
ATOM      2  I   LIG    1        1.784  -0.984  -0.488  0.00  0.00    -0.059 I 
ATOM      3  I   LIG    1       -1.735  -1.031  -0.493  0.00  0.00    -0.059 I 
ATOM      4  I   LIG    1       -0.050   1.994  -0.522  0.00  0.00    -0.059 I 
ENDROOT
TORSDOF 0
