REMARK  Name = molecules/OKPNYGAWTYOBFZ-UHFFFAOYSA-N.pdb
REMARK                            x       y       z     vdW  Elec       q    Type
REMARK                         _______ _______ _______ _____ _____    ______ ____
ROOT
ATOM      1  C   LIG    1       -1.702   0.335   0.915  0.00  0.00    +0.130 A 
ATOM      2  C   LIG    1       -3.078   0.289   1.020  0.00  0.00    +0.081 A 
ATOM      3  CA  LIG    1       -3.777  -0.270  -0.030  0.00  0.00    +0.152 A 
ATOM      4  N   LIG    1       -3.125  -0.746  -1.107  0.00  0.00    -0.236 NA
ATOM      5  C   LIG    1       -1.786  -0.716  -1.241  0.00  0.00    +0.120 A 
ATOM      6  C   LIG    1       -1.150  -1.221  -2.375  0.00  0.00    +0.193 C 
ATOM      7  C   LIG    1        0.221  -1.195  -2.521  0.00  0.00    +0.148 C 
ATOM      8  C   LIG    1        1.003  -0.660  -1.531  0.00  0.00    +0.141 C 
ATOM      9  C   LIG    1        0.315  -0.133  -0.344  0.00  0.00    +0.105 C 
ATOM     10  N   LIG    1        1.073   0.389   0.622  0.00  0.00    -0.207 NA
ATOM     11  C   LIG    1        2.405   0.413   0.479  0.00  0.00    +0.096 A 
ATOM     12  C   LIG    1        3.155   0.975   1.528  0.00  0.00    +0.029 A 
ATOM     13  C   LIG    1        4.515   1.018   1.420  0.00  0.00    +0.002 A 
ATOM     14  C   LIG    1        5.164   0.523   0.302  0.00  0.00    +0.004 A 
ATOM     15  C   LIG    1        4.415  -0.023  -0.714  0.00  0.00    +0.048 A 
ATOM     16  C   LIG    1        3.032  -0.084  -0.639  0.00  0.00    +0.151 A 
ATOM     17  O   LIG    1        2.314  -0.602  -1.603  0.00  0.00    -0.456 OA
ATOM     18  O   LIG    1       -1.823  -1.715  -3.296  0.00  0.00    -0.290 OA
ATOM     19  C   LIG    1       -1.056  -0.165  -0.209  0.00  0.00    +0.071 A 
ENDROOT
BRANCH   1  20
ATOM     20  O   LIG    1       -0.909   0.871   1.905  0.00  0.00    -0.506 OA
ATOM     21  H   LIG    1       -1.359   1.242   2.736  0.00  0.00    +0.292 HD
ENDBRANCH   1  20
BRANCH   3  22
ATOM     22  C   LIG    1       -5.253  -0.335   0.051  0.00  0.00    +0.355 C 
ATOM     23  O   LIG    1       -5.920  -0.838  -0.889  0.00  0.00    -0.243 OA
BRANCH  22  24
ATOM     24  OXT LIG    1       -5.907   0.155   1.157  0.00  0.00    -0.476 OA
ATOM     25  HXT LIG    1       -6.881   0.427   1.121  0.00  0.00    +0.295 HD
ENDBRANCH  22  24
ENDBRANCH   3  22
TORSDOF 3
