REMARK  Name = molecules/OLAHOMJCDNXHFI-UHFFFAOYSA-N.pdb
REMARK                            x       y       z     vdW  Elec       q    Type
REMARK                         _______ _______ _______ _____ _____    ______ ____
ROOT
ATOM      1  N   LIG    1       -1.037  -1.110  -0.027  0.00  0.00    -0.299 N 
ENDROOT
BRANCH   1  11
ATOM      2  C   LIG    1        1.376  -0.750   0.063  0.00  0.00    +0.053 A 
ATOM      3  C   LIG    1        2.685  -1.175   0.244  0.00  0.00    +0.092 A 
ATOM      4  C   LIG    1        2.894  -2.503   0.531  0.00  0.00    +0.089 A 
ATOM      5  N   LIG    1        4.181  -2.909   0.707  0.00  0.00    -0.251 NA
ATOM      6  C   LIG    1        5.184  -2.023   0.597  0.00  0.00    +0.139 A 
ATOM      7  C   LIG    1        4.989  -0.677   0.307  0.00  0.00    +0.093 A 
ATOM      8  C   LIG    1        1.839  -3.370   0.634  0.00  0.00    +0.032 A 
ATOM      9  C   LIG    1        0.555  -2.906   0.447  0.00  0.00    +0.025 A 
ATOM     10  N   LIG    1        3.715  -0.284   0.134  0.00  0.00    -0.243 NA
ATOM     11  C   LIG    1        0.280  -1.584   0.156  0.00  0.00    +0.036 A 
BRANCH   7  12
ATOM     12  C   LIG    1        6.114   0.229   0.196  0.00  0.00    +0.039 A 
ATOM     13  C   LIG    1        7.430  -0.100   0.372  0.00  0.00    +0.144 A 
ATOM     14  N   LIG    1        8.142   1.018   0.177  0.00  0.00    -0.179 NA
ATOM     15  N   LIG    1        7.370   2.048  -0.113  0.00  0.00    -0.274 N 
ATOM     16  C   LIG    1        7.803   3.422  -0.387  0.00  0.00    +0.172 C 
ATOM     17  C   LIG    1        6.098   1.566  -0.105  0.00  0.00    +0.118 A 
ENDBRANCH   7  12
ENDBRANCH   1  11
BRANCH   1  18
ATOM     18  C   LIG    1       -1.309   0.248  -0.290  0.00  0.00    +0.041 A 
ATOM     19  C   LIG    1       -1.593   1.169   0.697  0.00  0.00    +0.069 A 
ATOM     20  C   LIG    1       -1.856   2.490   0.402  0.00  0.00    +0.125 A 
ATOM     21  C   LIG    1       -1.842   2.931  -0.905  0.00  0.00    +0.091 A 
ATOM     22  C   LIG    1       -1.561   2.026  -1.902  0.00  0.00    +0.125 A 
ATOM     23  C   LIG    1       -1.297   0.700  -1.596  0.00  0.00    +0.069 A 
BRANCH  20  24
ATOM     24  O   LIG    1       -2.141   3.408   1.395  0.00  0.00    -0.495 OA
ATOM     25  C   LIG    1       -2.416   4.761   1.149  0.00  0.00    +0.277 C 
ENDBRANCH  20  24
BRANCH  22  26
ATOM     26  O   LIG    1       -1.534   2.422  -3.235  0.00  0.00    -0.495 OA
ATOM     27  C   LIG    1       -1.793   3.755  -3.616  0.00  0.00    +0.277 C 
ENDBRANCH  22  26
ENDBRANCH   1  18
BRANCH   1  28
ATOM     28  C   LIG    1       -2.182  -2.030   0.054  0.00  0.00    +0.126 C 
BRANCH  28  29
ATOM     29  C   LIG    1       -3.466  -1.298  -0.131  0.00  0.00    +0.100 C 
BRANCH  29  30
ATOM     30  N   LIG    1       -4.660  -2.040  -0.106  0.00  0.00    -0.312 NA
ATOM     31  H   LIG    1       -4.881  -2.536  -0.972  0.00  0.00    +0.122 HD
BRANCH  30  32
ATOM     32  C   LIG    1       -5.106  -2.615   1.094  0.00  0.00    +0.048 C 
ATOM     33  C   LIG    1       -4.276  -3.697   1.713  0.00  0.00    +0.023 C 
ATOM     34  C   LIG    1       -6.532  -3.179   0.906  0.00  0.00    +0.023 C 
ENDBRANCH  30  32
ENDBRANCH  29  30
ENDBRANCH  28  29
ENDBRANCH   1  28
TORSDOF 9
