REMARK  Name = molecules/OLAOYPRJVHUHCF-UHFFFAOYSA-N.pdb
REMARK                            x       y       z     vdW  Elec       q    Type
REMARK                         _______ _______ _______ _____ _____    ______ ____
ROOT
ATOM      1  C   LIG    1        0.455   0.350   0.076  0.00  0.00    +0.065 A 
ATOM      2  C   LIG    1        0.078   1.576   0.533  0.00  0.00    +0.042 A 
ATOM      3  C   LIG    1       -1.197   1.763   1.061  0.00  0.00    +0.088 A 
ATOM      4  C   LIG    1       -2.070   0.689   1.116  0.00  0.00    +0.051 A 
ATOM      5  I   LIG    1       -3.988   1.025   1.924  0.00  0.00    -0.041 I 
ATOM      6  C   LIG    1       -1.733  -0.566   0.669  0.00  0.00    +0.061 A 
ATOM      7  I   LIG    1        1.339   3.270   0.577  0.00  0.00    -0.042 I 
ATOM      8  C   LIG    1       -0.465  -0.707   0.154  0.00  0.00    +0.049 A 
ATOM      9  I   LIG    1        0.090  -2.613  -0.541  0.00  0.00    -0.041 I 
ENDROOT
BRANCH   6  10
ATOM     10  N   LIG    1       -2.675  -1.625   0.754  0.00  0.00    -0.284 N 
ATOM     11  H   LIG    1       -2.653  -2.191   1.653  0.00  0.00    +0.155 HD
ATOM     12  C   LIG    1       -3.597  -1.960  -0.230  0.00  0.00    +0.214 C 
ATOM     13  C   LIG    1       -4.537  -3.082  -0.045  0.00  0.00    +0.109 C 
ATOM     14  O   LIG    1       -3.648  -1.315  -1.297  0.00  0.00    -0.276 OA
ENDBRANCH   6  10
BRANCH   1  15
ATOM     15  C   LIG    1        1.768   0.087  -0.450  0.00  0.00    +0.246 C 
ATOM     16  O   LIG    1        2.122  -1.165  -0.340  0.00  0.00    -0.270 OA
ATOM     17  N   LIG    1        2.683   0.962  -1.049  0.00  0.00    -0.309 N 
ATOM     18  H   LIG    1        2.545   1.959  -1.244  0.00  0.00    +0.149 HD
BRANCH  17  19
ATOM     19  C   LIG    1        3.972   0.423  -1.490  0.00  0.00    +0.132 C 
BRANCH  19  20
ATOM     20  C   LIG    1        4.785  -0.151  -0.384  0.00  0.00    +0.174 C 
BRANCH  20  21
ATOM     21  O   LIG    1        5.980  -0.620  -0.964  0.00  0.00    -0.393 OA
ATOM     22  H   LIG    1        5.887  -0.828  -1.910  0.00  0.00    +0.209 HD
ENDBRANCH  20  21
ENDBRANCH  19  20
ENDBRANCH  17  19
ENDBRANCH   1  15
BRANCH   3  23
ATOM     23  C   LIG    1       -1.601   3.069   1.546  0.00  0.00    +0.339 C 
ATOM     24  O   LIG    1       -1.402   3.371   2.733  0.00  0.00    -0.245 OA
BRANCH  23  25
ATOM     25  O   LIG    1       -2.198   3.950   0.680  0.00  0.00    -0.477 OA
ATOM     26  H   LIG    1       -3.185   4.038   0.509  0.00  0.00    +0.295 HD
ENDBRANCH  23  25
ENDBRANCH   3  23
TORSDOF 7
