REMARK  Name = molecules/OMOMUFTZPTXCHP-UHFFFAOYSA-N.pdb
REMARK                            x       y       z     vdW  Elec       q    Type
REMARK                         _______ _______ _______ _____ _____    ______ ____
ROOT
ATOM      1  C   LIG    1       -0.047  -0.429  -0.262  0.00  0.00    +0.075 C 
ENDROOT
BRANCH   1   2
ATOM      2  C   LIG    1        0.660  -1.605  -0.831  0.00  0.00    +0.214 C 
ATOM      3  N   LIG    1        0.910  -2.785  -0.102  0.00  0.00    -0.329 N 
ATOM      4  H   LIG    1        0.240  -3.237   0.557  0.00  0.00    +0.145 HD
ATOM      5  H   LIG    1        1.834  -3.255  -0.222  0.00  0.00    +0.145 HD
ATOM      6  O   LIG    1        1.066  -1.573  -2.021  0.00  0.00    -0.276 OA
ENDBRANCH   1   2
BRANCH   1   7
ATOM      7  C   LIG    1        0.667   0.138   0.934  0.00  0.00    +0.012 C 
BRANCH   7   9
ATOM      8  C   LIG    1        2.210   1.614  -0.382  0.00  0.00    +0.004 C 
ATOM      9  C   LIG    1        2.067   0.556   0.664  0.00  0.00    -0.003 C 
ENDBRANCH   7   9
ENDBRANCH   1   7
BRANCH   1  10
ATOM     10  C   LIG    1       -1.451  -0.846   0.020  0.00  0.00    +0.012 C 
BRANCH  10  11
ATOM     11  C   LIG    1       -2.335   0.275   0.501  0.00  0.00    -0.003 C 
ATOM     12  C   LIG    1       -2.443   1.399  -0.498  0.00  0.00    +0.004 C 
ENDBRANCH  10  11
ENDBRANCH   1  10
TORSDOF 5
