REMARK  Name = molecules/ONIBWKKTOPOVIA-BYPYZUCNSA-N.pdb
REMARK                            x       y       z     vdW  Elec       q    Type
REMARK                         _______ _______ _______ _____ _____    ______ ____
ROOT
ATOM      1  CG  PRO A  1       -1.541  -0.650  -0.325  0.00  0.00    +0.017 C 
ATOM      2  CD  PRO A  1       -1.599   0.827   0.002  0.00  0.00    +0.082 C 
ATOM      3  N   PRO A  1       -0.243   1.258  -0.288  0.00  0.00    -0.304 NA
ATOM      4  CA  PRO A  1        0.539   0.240   0.386  0.00  0.00    +0.163 C 
ATOM      5  H   PRO A  1       -0.029   2.208   0.051  0.00  0.00    +0.123 HD
ATOM      6  CB  PRO A  1       -0.092  -1.032  -0.099  0.00  0.00    +0.031 C 
ENDROOT
BRANCH   4   7
ATOM      7  C   PRO A  1        1.963   0.349   0.074  0.00  0.00    +0.322 C 
ATOM      8  O   PRO A  1        2.324   1.281  -0.713  0.00  0.00    -0.249 OA
BRANCH   7   9
ATOM      9  OXT PRO A  1        2.954  -0.462   0.553  0.00  0.00    -0.480 OA
ATOM     10  HXT PRO A  1        3.244  -1.346   0.147  0.00  0.00    +0.295 HD
ENDBRANCH   7   9
ENDBRANCH   4   7
TORSDOF 2
