REMARK  Name = molecules/ONUMZHGUFYIKPM-MXNFEBESSA-N.pdb
REMARK                            x       y       z     vdW  Elec       q    Type
REMARK                         _______ _______ _______ _____ _____    ______ ____
ROOT
ATOM      1  C   LIG    1       -1.271  -3.227   0.000  0.00  0.00    +0.179 C 
ATOM      2  C   LIG    1       -0.521  -4.526   0.000  0.00  0.00    +0.076 C 
ENDROOT
BRANCH   1   3
ATOM      3  N   LIG    1       -2.420  -4.192   0.000  0.00  0.00    -0.309 N 
ATOM      4  C   LIG    1       -2.159  -5.669   0.000  0.00  0.00    +0.117 C 
ATOM      5  H   LIG    1       -3.006  -3.644   0.000  0.00  0.00    +0.149 HD
ENDBRANCH   1   3
BRANCH   1   6
ATOM      6  O   LIG    1       -1.500  -2.598   0.000  0.00  0.00    -0.450 OA
BRANCH   6   7
ATOM      7  C   LIG    1       -2.420  -2.263   0.000  0.00  0.00    +0.197 C 
ATOM      8  C   LIG    1       -3.000  -2.598   0.000  0.00  0.00    +0.041 C 
ENDBRANCH   6   7
ENDBRANCH   1   6
TORSDOF 3
REMARK  Name = molecules/ONUMZHGUFYIKPM-MXNFEBESSA-N.pdb
REMARK                            x       y       z     vdW  Elec       q    Type
REMARK                         _______ _______ _______ _____ _____    ______ ____
ROOT
ATOM      1  C   LIG    1       -0.750  -1.299   0.000  0.00  0.00    +0.207 C 
ENDROOT
BRANCH   1   2
ATOM      2  O   LIG    1       -0.750  -0.273   0.000  0.00  0.00    -0.480 OA
BRANCH   2   3
ATOM      3  C   LIG    1       -1.500   0.000   0.000  0.00  0.00    +0.112 C 
ATOM      4  C   LIG    1       -2.159  -0.786   0.000  0.00  0.00    +0.035 C 
ATOM      5  C   LIG    1       -0.750   1.299   0.000  0.00  0.00    +0.077 C 
ENDBRANCH   2   3
ENDBRANCH   1   2
BRANCH   1   6
ATOM      6  C   LIG    1        0.399  -1.237   0.000  0.00  0.00    +0.079 C 
BRANCH   6   7
ATOM      7  C   LIG    1        0.139  -2.714   0.000  0.00  0.00    +0.141 C 
BRANCH   7   8
ATOM      8  O   LIG    1        1.639  -2.714   0.000  0.00  0.00    -0.382 OA
ATOM      9  H   LIG    1        1.809  -1.750   0.000  0.00  0.00    +0.210 HD
ENDBRANCH   7   8
ENDBRANCH   6   7
ENDBRANCH   1   6
TORSDOF 5
REMARK  Name = molecules/ONUMZHGUFYIKPM-MXNFEBESSA-N.pdb
REMARK                            x       y       z     vdW  Elec       q    Type
REMARK                         _______ _______ _______ _____ _____    ______ ____
ROOT
ATOM      1  C   LIG    1        0.750  -1.299   0.000  0.00  0.00    -0.001 C 
ATOM      2  C   LIG    1        1.149   0.062   0.000  0.00  0.00    -0.008 C 
ENDROOT
BRANCH   2   3
ATOM      3  C   LIG    1        0.750   1.299   0.000  0.00  0.00    +0.017 C 
ATOM      4  C   LIG    1        1.583   2.546   0.000  0.00  0.00    -0.008 C 
ENDBRANCH   2   3
TORSDOF 1
REMARK  Name = molecules/ONUMZHGUFYIKPM-MXNFEBESSA-N.pdb
REMARK                            x       y       z     vdW  Elec       q    Type
REMARK                         _______ _______ _______ _____ _____    ______ ____
ROOT
ATOM      1  C   LIG    1       -4.410  -2.085   0.000  0.00  0.00    +0.034 C 
ATOM      2  C   LIG    1       -5.559  -3.049   0.000  0.00  0.00    +0.133 C 
ENDROOT
BRANCH   2   3
ATOM      3  O   LIG    1       -6.309  -1.750   0.000  0.00  0.00    -0.382 OA
ATOM      4  H   LIG    1       -5.559  -1.121   0.000  0.00  0.00    +0.210 HD
ENDBRANCH   2   3
BRANCH   2   5
ATOM      5  C   LIG    1       -5.298  -4.526   0.000  0.00  0.00    +0.181 C 
BRANCH   5   6
ATOM      6  O   LIG    1       -6.798  -4.526   0.000  0.00  0.00    -0.386 OA
ATOM      7  H   LIG    1       -6.968  -3.562   0.000  0.00  0.00    +0.210 HD
ENDBRANCH   5   6
ENDBRANCH   2   5
TORSDOF 3
REMARK  Name = molecules/ONUMZHGUFYIKPM-MXNFEBESSA-N.pdb
REMARK                            x       y       z     vdW  Elec       q    Type
REMARK                         _______ _______ _______ _____ _____    ______ ____
ROOT
ATOM      1  O   HOH    1       -2.740  -4.075   0.000  0.00  0.00    -0.253 OA
ATOM      2  H   HOH    0       -3.882  -3.854   0.000  0.00  0.00    +0.253 HD
ENDROOT
TORSDOF 0
REMARK  Name = molecules/ONUMZHGUFYIKPM-MXNFEBESSA-N.pdb
REMARK                            x       y       z     vdW  Elec       q    Type
REMARK                         _______ _______ _______ _____ _____    ______ ____
ROOT
ATOM      1  C   LIG    1        1.500   0.000   0.000  0.00  0.00    -0.000 C 
ENDROOT
TORSDOF 0
REMARK  Name = molecules/ONUMZHGUFYIKPM-MXNFEBESSA-N.pdb
REMARK                            x       y       z     vdW  Elec       q    Type
REMARK                         _______ _______ _______ _____ _____    ______ ____
ROOT
ATOM      1  O   HOH    1        1.583  -2.890   0.000  0.00  0.00    -0.253 OA
ATOM      2  H   HOH    0        0.860  -3.940   0.000  0.00  0.00    +0.253 HD
ENDROOT
TORSDOF 0
REMARK  Name = molecules/ONUMZHGUFYIKPM-MXNFEBESSA-N.pdb
REMARK                            x       y       z     vdW  Elec       q    Type
REMARK                         _______ _______ _______ _____ _____    ______ ____
ROOT
ATOM      1  O   LIG    1       -3.204  -0.031   0.000  0.00  0.00    -0.218 OA
ATOM      2  O   LIG    1       -3.659  -0.786   0.000  0.00  0.00    -0.038 OA
ATOM      3  H   LIG    1       -2.420   0.691   0.000  0.00  0.00    +0.256 HD
ENDROOT
TORSDOF 0
REMARK  Name = molecules/ONUMZHGUFYIKPM-MXNFEBESSA-N.pdb
REMARK                            x       y       z     vdW  Elec       q    Type
REMARK                         _______ _______ _______ _____ _____    ______ ____
ROOT
ATOM      1  C   LIG    1       -3.889  -5.040   0.000  0.00  0.00    +0.000 C 
ENDROOT
TORSDOF 0
REMARK  Name = molecules/ONUMZHGUFYIKPM-MXNFEBESSA-N.pdb
REMARK                            x       y       z     vdW  Elec       q    Type
REMARK                         _______ _______ _______ _____ _____    ______ ____
ROOT
ATOM      1  C   LIG    1        2.831  -3.724   0.000  0.00  0.00    +0.011 C 
ATOM      2  C   LIG    1        4.078  -2.890   0.000  0.00  0.00    +0.024 C 
ATOM      3  C   LIG    1        5.549  -2.598   0.000  0.00  0.00    +0.007 C 
ATOM      4  C   LIG    1        5.773  -3.724   0.000  0.00  0.00    +0.022 C 
ATOM      5  C   LIG    1        7.020  -2.890   0.000  0.00  0.00    -0.011 C 
ATOM      6  C   LIG    1        7.854  -1.643   0.000  0.00  0.00    +0.004 C 
ATOM      7  C   LIG    1        4.302  -4.016   0.000  0.00  0.00    +0.060 C 
ATOM      8 CL   LIG    1        4.302  -5.516   0.000  0.00  0.00    -0.117 Cl
ENDROOT
TORSDOF 0
REMARK  Name = molecules/ONUMZHGUFYIKPM-MXNFEBESSA-N.pdb
REMARK                            x       y       z     vdW  Elec       q    Type
REMARK                         _______ _______ _______ _____ _____    ______ ____
ROOT
ATOM      1  C   LIG    1       -3.921   7.036   0.000  0.00  0.00    +0.149 A 
ATOM      2  N   LIG    1       -3.779   8.529   0.000  0.00  0.00    -0.168 N 
ATOM      3  O   LIG    1       -2.456   8.975   0.000  0.00  0.00    -0.353 OA
ATOM      4  C   LIG    1       -2.487   7.476   0.000  0.00  0.00    +0.259 A 
ENDROOT
BRANCH   2   5
ATOM      5  C   LIG    1       -5.001   9.399   0.000  0.00  0.00    +0.127 C 
ATOM      6  C   LIG    1       -4.858  10.892   0.000  0.00  0.00    +0.141 C 
BRANCH   6   7
ATOM      7  N   LIG    1       -6.352  11.035   0.000  0.00  0.00    -0.269 NA
ATOM      8  C   LIG    1       -6.975  12.399   0.000  0.00  0.00    +0.140 C 
ENDBRANCH   6   7
ENDBRANCH   2   5
BRANCH   1   9
ATOM      9  C   LIG    1       -5.078   6.081   0.000  0.00  0.00    +0.177 C 
BRANCH   9  13
ATOM     10  C   LIG    1       -4.529   0.672   0.000  0.00  0.00    +0.011 C 
ATOM     11  C   LIG    1       -4.386   2.165   0.000  0.00  0.00    +0.024 C 
ATOM     12  C   LIG    1       -4.826   3.599   0.000  0.00  0.00    +0.010 C 
ATOM     13  C   LIG    1       -5.781   4.756   0.000  0.00  0.00    +0.020 C 
ATOM     14  C   LIG    1       -5.924   3.263   0.000  0.00  0.00    +0.025 C 
ATOM     15  C   LIG    1       -5.484   1.828   0.000  0.00  0.00    +0.060 C 
ATOM     16 CL   LIG    1       -6.804   1.117   0.000  0.00  0.00    -0.117 Cl
ENDBRANCH   9  13
BRANCH   9  17
ATOM     17  O   LIG    1       -5.518   7.515   0.000  0.00  0.00    -0.385 OA
ATOM     18  H   LIG    1       -5.037   8.039   0.000  0.00  0.00    +0.210 HD
ENDBRANCH   9  17
ENDBRANCH   1   9
BRANCH   4  19
ATOM     19  N   LIG    1       -0.994   7.333   0.000  0.00  0.00    -0.206 NA
BRANCH  19  20
ATOM     20  C   LIG    1        0.331   6.630   0.000  0.00  0.00    +0.158 C 
BRANCH  20  21
ATOM     21  C   LIG    1        1.765   7.070   0.000  0.00  0.00    +0.234 C 
ATOM     22  O   LIG    1        2.684   6.018   0.000  0.00  0.00    -0.224 OA
BRANCH  21  23
ATOM     23  C   LIG    1        3.199   7.510   0.000  0.00  0.00    +0.229 C 
ATOM     24  N   LIG    1        3.535   8.972   0.000  0.00  0.00    -0.098 NA
BRANCH  23  25
ATOM     25  O   LIG    1        4.164   6.362   0.000  0.00  0.00    -0.366 OA
ATOM     26  H   LIG    1        4.302   5.172   0.000  0.00  0.00    +0.212 HD
ENDBRANCH  23  25
ENDBRANCH  21  23
ENDBRANCH  20  21
BRANCH  20  27
ATOM     27  C   LIG    1        1.286   5.473   0.000  0.00  0.00    +0.087 C 
BRANCH  27  28
ATOM     28  N   LIG    1        1.726   4.040   0.000  0.00  0.00    -0.295 NA
ATOM     29  C   LIG    1        2.831   3.380   0.000  0.00  0.00    +0.086 C 
ATOM     30  H   LIG    1        0.523   3.607   0.000  0.00  0.00    +0.123 HD
ENDBRANCH  27  28
ENDBRANCH  20  27
ENDBRANCH  19  20
ENDBRANCH   4  19
TORSDOF 12
REMARK  Name = molecules/ONUMZHGUFYIKPM-MXNFEBESSA-N.pdb
REMARK                            x       y       z     vdW  Elec       q    Type
REMARK                         _______ _______ _______ _____ _____    ______ ____
ROOT
ATOM      1  C   LIG    1       -4.639  -6.338   0.000  0.00  0.00    -0.000 C 
ENDROOT
TORSDOF 0
REMARK  Name = molecules/ONUMZHGUFYIKPM-MXNFEBESSA-N.pdb
REMARK                            x       y       z     vdW  Elec       q    Type
REMARK                         _______ _______ _______ _____ _____    ______ ____
ROOT
ATOM      1  O   HOH    1       -5.389  -7.638   0.000  0.00  0.00    +0.000 OA
ENDROOT
TORSDOF 0
REMARK  Name = molecules/ONUMZHGUFYIKPM-MXNFEBESSA-N.pdb
REMARK                            x       y       z     vdW  Elec       q    Type
REMARK                         _______ _______ _______ _____ _____    ______ ____
ROOT
ATOM      1  O   HOH    1        2.791   4.879   0.000  0.00  0.00    -0.410 OA
ATOM      2  H   HOH    0        3.218   4.191   0.000  0.00  0.00    +0.205 HD
ATOM      3  H   HOH    0        2.539   5.785   0.000  0.00  0.00    +0.205 HD
ENDROOT
TORSDOF 0
REMARK  Name = molecules/ONUMZHGUFYIKPM-MXNFEBESSA-N.pdb
REMARK                            x       y       z     vdW  Elec       q    Type
REMARK                         _______ _______ _______ _____ _____    ______ ____
ROOT
ATOM      1  N   LIG    1        4.302   3.672   0.000  0.00  0.00    +0.000 NA
ENDROOT
TORSDOF 0
REMARK  Name = molecules/ONUMZHGUFYIKPM-MXNFEBESSA-N.pdb
REMARK                            x       y       z     vdW  Elec       q    Type
REMARK                         _______ _______ _______ _____ _____    ______ ____
ROOT
ATOM      1  C   LIG    1        5.773   3.380   0.000  0.00  0.00    +0.000 C 
ENDROOT
TORSDOF 0
REMARK  Name = molecules/ONUMZHGUFYIKPM-MXNFEBESSA-N.pdb
REMARK                            x       y       z     vdW  Elec       q    Type
REMARK                         _______ _______ _______ _____ _____    ______ ____
ROOT
ATOM      1  C   LIG    1        9.180   5.656   0.000  0.00  0.00    +0.019 C 
ATOM      2  C   LIG    1        8.414   6.980   0.000  0.00  0.00    +0.230 C 
ATOM      3  O   LIG    1        9.403   8.108   0.000  0.00  0.00    -0.284 OA
ATOM      4  O   LIG    1       10.356   7.585   0.000  0.00  0.00    -0.291 OA
ATOM      5  C   LIG    1       11.189   6.338   0.000  0.00  0.00    +0.170 C 
ATOM      6  C   LIG    1       10.526   4.993   0.000  0.00  0.00    +0.017 C 
ENDROOT
BRANCH   1   8
ATOM      7  C   LIG    1        6.436   4.725   0.000  0.00  0.00    +0.005 C 
ATOM      8  C   LIG    1        7.684   5.558   0.000  0.00  0.00    +0.030 C 
ENDBRANCH   1   8
BRANCH   5   9
ATOM      9  C   LIG    1       12.686   6.436   0.000  0.00  0.00    +0.077 C 
BRANCH   9  10
ATOM     10  C   LIG    1       13.349   7.782   0.000  0.00  0.00    +0.119 C 
BRANCH  10  11
ATOM     11  N   LIG    1       14.013   9.127   0.000  0.00  0.00    -0.232 NA
BRANCH  11  12
ATOM     12  C   LIG    1       15.509   9.225   0.000  0.00  0.00    +0.171 C 
BRANCH  12  13
ATOM     13  P   LIG    1       17.006   9.323   0.000  0.00  0.00    +0.124 P 
ATOM     14  O   LIG    1       16.908  10.820   0.000  0.00  0.00    -0.357 OA
ATOM     15  O   LIG    1       17.104   7.826   0.000  0.00  0.00    -0.357 OA
ATOM     16  O   LIG    1       18.503   9.421   0.000  0.00  0.00    -0.459 OA
ENDBRANCH  12  13
ENDBRANCH  11  12
ENDBRANCH  10  11
ENDBRANCH   9  10
ENDBRANCH   5   9
BRANCH   6  17
ATOM     17  C   LIG    1       11.359   3.746   0.000  0.00  0.00    +0.065 C 
BRANCH  17  18
ATOM     18  C   LIG    1       11.457   2.249   0.000  0.00  0.00    +0.088 C 
ATOM     19  N   LIG    1       10.794   0.904   0.000  0.00  0.00    -0.311 NA
ATOM     20  H   LIG    1        9.601   0.191   0.000  0.00  0.00    +0.186 HD
ENDBRANCH  17  18
ENDBRANCH   6  17
TORSDOF 8
REMARK  Name = molecules/ONUMZHGUFYIKPM-MXNFEBESSA-N.pdb
REMARK                            x       y       z     vdW  Elec       q    Type
REMARK                         _______ _______ _______ _____ _____    ______ ____
ROOT
ATOM      1  C   LIG    1        7.020   2.546   0.000  0.00  0.00    +0.290 C 
ATOM      2  N   LIG    1        7.854   1.299   0.000  0.00  0.00    -0.093 NA
ATOM      3  O   LIG    1        8.081   3.607   0.000  0.00  0.00    -0.198 OA
ENDROOT
TORSDOF 0
REMARK  Name = molecules/ONUMZHGUFYIKPM-MXNFEBESSA-N.pdb
REMARK                            x       y       z     vdW  Elec       q    Type
REMARK                         _______ _______ _______ _____ _____    ______ ____
ROOT
ATOM      1  O   LIG    1        9.325  -1.351   0.000  0.00  0.00    -0.224 OA
ENDROOT
BRANCH   1   2
ATOM      2  O   LIG    1       10.358  -1.191   0.000  0.00  0.00    -0.249 OA
ATOM      3  H   LIG    1       10.314  -2.478   0.000  0.00  0.00    +0.253 HD
ENDBRANCH   1   2
BRANCH   1   4
ATOM      4  C   LIG    1        9.546   0.070   0.000  0.00  0.00    +0.182 C 
ATOM      5  C   LIG    1        8.146  -0.172   0.000  0.00  0.00    +0.038 C 
ENDBRANCH   1   4
TORSDOF 2
REMARK  Name = molecules/ONUMZHGUFYIKPM-MXNFEBESSA-N.pdb
REMARK                            x       y       z     vdW  Elec       q    Type
REMARK                         _______ _______ _______ _____ _____    ______ ____
ROOT
ATOM      1  C   LIG    1        4.000 -10.675   0.000  0.00  0.00    +0.000 C 
ENDROOT
BRANCH   1   2
ATOM      2  C   LIG    1        2.590 -10.162   0.000  0.00  0.00    +0.002 C 
BRANCH   2   3
ATOM      3  C   LIG    1        1.181  -9.649   0.000  0.00  0.00    +0.023 C 
BRANCH   3   4
ATOM      4  C   LIG    1       -0.229  -9.136   0.000  0.00  0.00    +0.141 C 
BRANCH   4   6
ATOM      5  C   LIG    1       -1.899  -7.146   0.000  0.00  0.00    +0.134 C 
ATOM      6  N   LIG    1       -1.639  -8.623   0.000  0.00  0.00    -0.299 NA
ENDBRANCH   4   6
ENDBRANCH   3   4
ENDBRANCH   2   3
ENDBRANCH   1   2
BRANCH   1   7
ATOM      7  C   LIG    1        5.409 -11.188   0.000  0.00  0.00    +0.000 C 
BRANCH   7   8
ATOM      8  C   LIG    1        6.819 -11.701   0.000  0.00  0.00    -0.000 C 
BRANCH   8   9
ATOM      9  C   LIG    1        8.228 -12.214   0.000  0.00  0.00    -0.000 C 
BRANCH   9  10
ATOM     10  C   LIG    1        9.638 -12.727   0.000  0.00  0.00    -0.000 C 
BRANCH  10  11
ATOM     11  C   LIG    1       11.047 -13.241   0.000  0.00  0.00    -0.003 C 
ATOM     12  C   LIG    1       12.457 -13.754   0.000  0.00  0.00    +0.004 C 
ENDBRANCH  10  11
ENDBRANCH   9  10
ENDBRANCH   8   9
ENDBRANCH   7   8
ENDBRANCH   1   7
TORSDOF 9
REMARK  Name = molecules/ONUMZHGUFYIKPM-MXNFEBESSA-N.pdb
REMARK                            x       y       z     vdW  Elec       q    Type
REMARK                         _______ _______ _______ _____ _____    ______ ____
ROOT
ATOM      1  C   LIG    1        5.954   6.145   0.000  0.00  0.00    +0.000 C 
ENDROOT
TORSDOF 0
REMARK  Name = molecules/ONUMZHGUFYIKPM-MXNFEBESSA-N.pdb
REMARK                            x       y       z     vdW  Elec       q    Type
REMARK                         _______ _______ _______ _____ _____    ______ ____
ROOT
ATOM      1  C   LIG    1        6.943   7.273   0.000  0.00  0.00    +0.000 C 
ENDROOT
TORSDOF 0
REMARK  Name = molecules/ONUMZHGUFYIKPM-MXNFEBESSA-N.pdb
REMARK                            x       y       z     vdW  Elec       q    Type
REMARK                         _______ _______ _______ _____ _____    ______ ____
ROOT
ATOM      1  O   HOH    1       -6.365   8.776   0.000  0.00  0.00    -0.410 OA
ATOM      2  H   HOH    0       -7.222   9.813   0.000  0.00  0.00    +0.205 HD
ATOM      3  H   HOH    0       -6.980   7.851   0.000  0.00  0.00    +0.205 HD
ENDROOT
TORSDOF 0
REMARK  Name = molecules/ONUMZHGUFYIKPM-MXNFEBESSA-N.pdb
REMARK                            x       y       z     vdW  Elec       q    Type
REMARK                         _______ _______ _______ _____ _____    ______ ____
ROOT
ATOM      1  C   LIG    1       12.830   2.853   0.000  0.00  0.00    +0.000 C 
ATOM      2  C   LIG    1       12.856   3.844   0.000  0.00  0.00    +0.000 C 
ENDROOT
TORSDOF 0
REMARK  Name = molecules/ONUMZHGUFYIKPM-MXNFEBESSA-N.pdb
REMARK                            x       y       z     vdW  Elec       q    Type
REMARK                         _______ _______ _______ _____ _____    ______ ____
ROOT
ATOM      1  C   LIG    1       -4.716  12.386   0.000  0.00  0.00    +0.005 C 
ATOM      2  C   LIG    1       -4.574  13.879   0.000  0.00  0.00    -0.005 C 
ENDROOT
TORSDOF 0
REMARK  Name = molecules/ONUMZHGUFYIKPM-MXNFEBESSA-N.pdb
REMARK                            x       y       z     vdW  Elec       q    Type
REMARK                         _______ _______ _______ _____ _____    ______ ____
ROOT
ATOM      1  O   LIG    1       12.993   4.344   0.000  0.00  0.00    -0.279 OA
ATOM      2  C   LIG    1       13.519   5.189   0.000  0.00  0.00    +0.279 C 
ENDROOT
TORSDOF 0
REMARK  Name = molecules/ONUMZHGUFYIKPM-MXNFEBESSA-N.pdb
REMARK                            x       y       z     vdW  Elec       q    Type
REMARK                         _______ _______ _______ _____ _____    ______ ____
ROOT
ATOM      1  O   HOH    1       13.923   1.825   0.000  0.00  0.00    -0.253 OA
ATOM      2  H   HOH    0       13.835   2.708   0.000  0.00  0.00    +0.253 HD
ENDROOT
TORSDOF 0
REMARK  Name = molecules/ONUMZHGUFYIKPM-MXNFEBESSA-N.pdb
REMARK                            x       y       z     vdW  Elec       q    Type
REMARK                         _______ _______ _______ _____ _____    ______ ____
ROOT
ATOM      1  C   LIG    1       -4.431  15.372   0.000  0.00  0.00    +0.000 C 
ENDROOT
TORSDOF 0
REMARK  Name = molecules/ONUMZHGUFYIKPM-MXNFEBESSA-N.pdb
REMARK                            x       y       z     vdW  Elec       q    Type
REMARK                         _______ _______ _______ _____ _____    ______ ____
ROOT
ATOM      1  C   LIG    1       -3.080  13.736   0.000  0.00  0.00    +0.000 C 
ENDROOT
TORSDOF 0
REMARK  Name = molecules/ONUMZHGUFYIKPM-MXNFEBESSA-N.pdb
REMARK                            x       y       z     vdW  Elec       q    Type
REMARK                         _______ _______ _______ _____ _____    ______ ____
ROOT
ATOM      1  O   HOH    1       15.016   5.287   0.000  0.00  0.00    -0.253 OA
ATOM      2  H   HOH    0       14.472   4.598   0.000  0.00  0.00    +0.253 HD
ENDROOT
TORSDOF 0
REMARK  Name = molecules/ONUMZHGUFYIKPM-MXNFEBESSA-N.pdb
REMARK                            x       y       z     vdW  Elec       q    Type
REMARK                         _______ _______ _______ _____ _____    ______ ____
ROOT
ATOM      1  H   UNK    1       -7.809  -1.750   0.000  0.00  0.00    +0.000 HD
ENDROOT
TORSDOF 0
REMARK  Name = molecules/ONUMZHGUFYIKPM-MXNFEBESSA-N.pdb
REMARK                            x       y       z     vdW  Elec       q    Type
REMARK                         _______ _______ _______ _____ _____    ______ ____
ROOT
ATOM      1  H   UNK    1       -3.441  -7.241   0.000  0.00  0.00    +0.000 HD
ENDROOT
TORSDOF 0
REMARK  Name = molecules/ONUMZHGUFYIKPM-MXNFEBESSA-N.pdb
REMARK                            x       y       z     vdW  Elec       q    Type
REMARK                         _______ _______ _______ _____ _____    ______ ____
ROOT
ATOM      1  H   UNK    1       -7.548  -5.825   0.000  0.00  0.00    +0.000 HD
ENDROOT
TORSDOF 0
REMARK  Name = molecules/ONUMZHGUFYIKPM-MXNFEBESSA-N.pdb
REMARK                            x       y       z     vdW  Elec       q    Type
REMARK                         _______ _______ _______ _____ _____    ______ ____
ROOT
ATOM      1  H   UNK    1       -4.639  -8.937   0.000  0.00  0.00    +0.000 HD
ENDROOT
TORSDOF 0
REMARK  Name = molecules/ONUMZHGUFYIKPM-MXNFEBESSA-N.pdb
REMARK                            x       y       z     vdW  Elec       q    Type
REMARK                         _______ _______ _______ _____ _____    ______ ____
ROOT
ATOM      1  H   UNK    1        0.229  -5.825   0.000  0.00  0.00    +0.000 HD
ENDROOT
TORSDOF 0
REMARK  Name = molecules/ONUMZHGUFYIKPM-MXNFEBESSA-N.pdb
REMARK                            x       y       z     vdW  Elec       q    Type
REMARK                         _______ _______ _______ _____ _____    ______ ____
ROOT
ATOM      1  H   UNK    1       -1.600  -5.569   0.000  0.00  0.00    +0.000 HD
ENDROOT
TORSDOF 0
REMARK  Name = molecules/ONUMZHGUFYIKPM-MXNFEBESSA-N.pdb
REMARK                            x       y       z     vdW  Elec       q    Type
REMARK                         _______ _______ _______ _____ _____    ______ ____
ROOT
ATOM      1  H   UNK    1        2.681  -3.793   0.000  0.00  0.00    +0.000 HD
ENDROOT
TORSDOF 0
REMARK  Name = molecules/ONUMZHGUFYIKPM-MXNFEBESSA-N.pdb
REMARK                            x       y       z     vdW  Elec       q    Type
REMARK                         _______ _______ _______ _____ _____    ______ ____
ROOT
ATOM      1  H   UNK    1       -0.563   8.770   0.000  0.00  0.00    +0.000 HD
ENDROOT
TORSDOF 0
REMARK  Name = molecules/ONUMZHGUFYIKPM-MXNFEBESSA-N.pdb
REMARK                            x       y       z     vdW  Elec       q    Type
REMARK                         _______ _______ _______ _____ _____    ______ ____
ROOT
ATOM      1  H   UNK    1        4.458   6.256   0.000  0.00  0.00    +0.000 HD
ENDROOT
TORSDOF 0
REMARK  Name = molecules/ONUMZHGUFYIKPM-MXNFEBESSA-N.pdb
REMARK                            x       y       z     vdW  Elec       q    Type
REMARK                         _______ _______ _______ _____ _____    ______ ____
ROOT
ATOM      1  H   UNK    1        9.239   1.873   0.000  0.00  0.00    +0.000 HD
ENDROOT
TORSDOF 0
REMARK  Name = molecules/ONUMZHGUFYIKPM-MXNFEBESSA-N.pdb
REMARK                            x       y       z     vdW  Elec       q    Type
REMARK                         _______ _______ _______ _____ _____    ______ ____
ROOT
ATOM      1  H   UNK    1       -2.501   9.314   0.000  0.00  0.00    +0.000 HD
ENDROOT
TORSDOF 0
REMARK  Name = molecules/ONUMZHGUFYIKPM-MXNFEBESSA-N.pdb
REMARK                            x       y       z     vdW  Elec       q    Type
REMARK                         _______ _______ _______ _____ _____    ______ ____
ROOT
ATOM      1  H   UNK    1       -2.788  -9.587   0.000  0.00  0.00    +0.000 HD
ENDROOT
TORSDOF 0
REMARK  Name = molecules/ONUMZHGUFYIKPM-MXNFEBESSA-N.pdb
REMARK                            x       y       z     vdW  Elec       q    Type
REMARK                         _______ _______ _______ _____ _____    ______ ____
ROOT
ATOM      1  H   UNK    1        6.461   8.694   0.000  0.00  0.00    +0.000 HD
ENDROOT
TORSDOF 0
REMARK  Name = molecules/ONUMZHGUFYIKPM-MXNFEBESSA-N.pdb
REMARK                            x       y       z     vdW  Elec       q    Type
REMARK                         _______ _______ _______ _____ _____    ______ ____
ROOT
ATOM      1  H   UNK    1        4.969   9.411   0.000  0.00  0.00    +0.000 HD
ENDROOT
TORSDOF 0
REMARK  Name = molecules/ONUMZHGUFYIKPM-MXNFEBESSA-N.pdb
REMARK                            x       y       z     vdW  Elec       q    Type
REMARK                         _______ _______ _______ _____ _____    ______ ____
ROOT
ATOM      1  H   UNK    1        2.437   9.994   0.000  0.00  0.00    +0.000 HD
ENDROOT
TORSDOF 0
REMARK  Name = molecules/ONUMZHGUFYIKPM-MXNFEBESSA-N.pdb
REMARK                            x       y       z     vdW  Elec       q    Type
REMARK                         _______ _______ _______ _____ _____    ______ ____
ROOT
ATOM      1  H   UNK    1       11.921  -0.085   0.000  0.00  0.00    +0.000 HD
ENDROOT
TORSDOF 0
REMARK  Name = molecules/ONUMZHGUFYIKPM-MXNFEBESSA-N.pdb
REMARK                            x       y       z     vdW  Elec       q    Type
REMARK                         _______ _______ _______ _____ _____    ______ ____
ROOT
ATOM      1  H   UNK    1        8.921   9.529   0.000  0.00  0.00    +0.000 HD
ENDROOT
TORSDOF 0
REMARK  Name = molecules/ONUMZHGUFYIKPM-MXNFEBESSA-N.pdb
REMARK                            x       y       z     vdW  Elec       q    Type
REMARK                         _______ _______ _______ _____ _____    ______ ____
ROOT
ATOM      1  H   UNK    1       -3.251  12.062   0.000  0.00  0.00    +0.000 HD
ENDROOT
TORSDOF 0
REMARK  Name = molecules/ONUMZHGUFYIKPM-MXNFEBESSA-N.pdb
REMARK                            x       y       z     vdW  Elec       q    Type
REMARK                         _______ _______ _______ _____ _____    ______ ____
ROOT
ATOM      1  H   UNK    1       11.019   8.931   0.000  0.00  0.00    +0.000 HD
ENDROOT
TORSDOF 0
REMARK  Name = molecules/ONUMZHGUFYIKPM-MXNFEBESSA-N.pdb
REMARK                            x       y       z     vdW  Elec       q    Type
REMARK                         _______ _______ _______ _____ _____    ______ ____
ROOT
ATOM      1  H   UNK    1       -6.067  14.021   0.000  0.00  0.00    +0.000 HD
ENDROOT
TORSDOF 0
REMARK  Name = molecules/ONUMZHGUFYIKPM-MXNFEBESSA-N.pdb
REMARK                            x       y       z     vdW  Elec       q    Type
REMARK                         _______ _______ _______ _____ _____    ______ ____
ROOT
ATOM      1  H   UNK    1       -7.598  13.764   0.000  0.00  0.00    +0.000 HD
ENDROOT
TORSDOF 0
REMARK  Name = molecules/ONUMZHGUFYIKPM-MXNFEBESSA-N.pdb
REMARK                            x       y       z     vdW  Elec       q    Type
REMARK                         _______ _______ _______ _____ _____    ______ ____
ROOT
ATOM      1  H   UNK    1       15.849   4.040   0.000  0.00  0.00    +0.000 HD
ENDROOT
TORSDOF 0
REMARK  Name = molecules/ONUMZHGUFYIKPM-MXNFEBESSA-N.pdb
REMARK                            x       y       z     vdW  Elec       q    Type
REMARK                         _______ _______ _______ _____ _____    ______ ____
ROOT
ATOM      1  H   UNK    1       13.179  10.374   0.000  0.00  0.00    +0.000 HD
ENDROOT
TORSDOF 0
REMARK  Name = molecules/ONUMZHGUFYIKPM-MXNFEBESSA-N.pdb
REMARK                            x       y       z     vdW  Elec       q    Type
REMARK                         _______ _______ _______ _____ _____    ______ ____
ROOT
ATOM      1  H   UNK    1       18.450   7.163   0.000  0.00  0.00    +0.000 HD
ENDROOT
TORSDOF 0
REMARK  Name = molecules/ONUMZHGUFYIKPM-MXNFEBESSA-N.pdb
REMARK                            x       y       z     vdW  Elec       q    Type
REMARK                         _______ _______ _______ _____ _____    ______ ____
ROOT
ATOM      1  H   UNK    1       18.155  11.653   0.000  0.00  0.00    +0.000 HD
ENDROOT
TORSDOF 0
