REMARK  Name = molecules/OOGJQPCLVADCPB-HXUWFJFHSA-N.pdb
REMARK                            x       y       z     vdW  Elec       q    Type
REMARK                         _______ _______ _______ _____ _____    ______ ____
ROOT
ATOM      1  C   LIG    1        0.881  -0.057  -0.243  0.00  0.00    +0.054 C 
ENDROOT
BRANCH   1   2
ATOM      2  C   LIG    1        2.197  -0.662  -0.460  0.00  0.00    +0.002 A 
ATOM      3  C   LIG    1        2.659  -1.695   0.368  0.00  0.00    +0.011 A 
ATOM      4  C   LIG    1        3.881  -2.298   0.213  0.00  0.00    -0.050 A 
ATOM      5  C   LIG    1        4.319  -3.403   1.139  0.00  0.00    +0.044 C 
ATOM      6  C   LIG    1        4.712  -1.879  -0.807  0.00  0.00    +0.007 A 
ATOM      7  C   LIG    1        4.300  -0.874  -1.637  0.00  0.00    +0.046 A 
ATOM      8  C   LIG    1        3.049  -0.276  -1.458  0.00  0.00    +0.121 A 
BRANCH   8   9
ATOM      9  O   LIG    1        2.691   0.734  -2.329  0.00  0.00    -0.506 OA
ATOM     10  H   LIG    1        3.328   1.004  -3.055  0.00  0.00    +0.292 HD
ENDBRANCH   8   9
ENDBRANCH   1   2
BRANCH   1  11
ATOM     11  C   LIG    1        0.992   1.336   0.288  0.00  0.00    -0.040 A 
ATOM     12  C   LIG    1        1.186   1.458   1.648  0.00  0.00    +0.004 A 
ATOM     13  C   LIG    1        1.316   2.660   2.303  0.00  0.00    +0.000 A 
ATOM     14  C   LIG    1        1.244   3.798   1.532  0.00  0.00    +0.000 A 
ATOM     15  C   LIG    1        1.052   3.706   0.176  0.00  0.00    +0.000 A 
ATOM     16  C   LIG    1        0.924   2.469  -0.459  0.00  0.00    +0.004 A 
ENDBRANCH   1  11
BRANCH   1  17
ATOM     17  C   LIG    1       -0.040  -0.174  -1.420  0.00  0.00    +0.028 C 
BRANCH  17  18
ATOM     18  C   LIG    1       -1.387   0.398  -1.208  0.00  0.00    +0.086 C 
BRANCH  18  19
ATOM     19  N   LIG    1       -2.173  -0.168  -0.180  0.00  0.00    -0.297 NA
BRANCH  19  20
ATOM     20  C   LIG    1       -2.981   0.653   0.608  0.00  0.00    +0.051 C 
ATOM     21  C   LIG    1       -2.216   1.648   1.455  0.00  0.00    +0.024 C 
ATOM     22  C   LIG    1       -4.083   1.417  -0.067  0.00  0.00    +0.024 C 
ENDBRANCH  19  20
BRANCH  19  23
ATOM     23  C   LIG    1       -2.604  -1.502  -0.415  0.00  0.00    +0.051 C 
ATOM     24  C   LIG    1       -3.154  -2.185   0.821  0.00  0.00    +0.024 C 
ATOM     25  C   LIG    1       -3.508  -1.691  -1.606  0.00  0.00    +0.024 C 
ENDBRANCH  19  23
ENDBRANCH  18  19
ENDBRANCH  17  18
ENDBRANCH   1  17
TORSDOF 8
