REMARK  Name = molecules/OOGNFQMTGRZRAB-XMSQKQJNSA-N.pdb
REMARK                            x       y       z     vdW  Elec       q    Type
REMARK                         _______ _______ _______ _____ _____    ______ ____
ROOT
ATOM      1  N   LIG    1       -3.225  -0.306  -0.053  0.00  0.00    -0.217 N 
ATOM      2  N   LIG    1       -2.964  -0.075   1.222  0.00  0.00    -0.284 N 
ATOM      3  C   LIG    1       -3.728  -0.447   2.403  0.00  0.00    +0.171 C 
ATOM      4  C   LIG    1       -1.751   0.490   1.343  0.00  0.00    +0.043 A 
ATOM      5  C   LIG    1       -1.100   0.913   2.669  0.00  0.00    +0.065 C 
ATOM      6  C   LIG    1       -1.172   0.630   0.074  0.00  0.00    +0.053 A 
ATOM      7  C   LIG    1       -2.147   0.109  -0.772  0.00  0.00    +0.276 A 
ATOM      8  O   LIG    1       -2.042   0.036  -2.049  0.00  0.00    -0.265 OA
ENDROOT
BRANCH   1  11
ATOM      9  C   LIG    1       -6.949  -0.720  -0.353  0.00  0.00    +0.002 A 
ATOM     10  C   LIG    1       -5.662  -0.479   0.163  0.00  0.00    +0.028 A 
ATOM     11  C   LIG    1       -4.511  -0.692  -0.597  0.00  0.00    +0.067 A 
ATOM     12  C   LIG    1       -4.665  -1.146  -1.859  0.00  0.00    +0.028 A 
ATOM     13  C   LIG    1       -5.983  -1.401  -2.408  0.00  0.00    +0.002 A 
ATOM     14  C   LIG    1       -7.067  -1.169  -1.601  0.00  0.00    +0.000 A 
ENDBRANCH   1  11
BRANCH   6  15
ATOM     15  C   LIG    1        0.014   1.394  -0.171  0.00  0.00    +0.127 C 
BRANCH  15  16
ATOM     16  N   LIG    1        1.178   0.710  -0.719  0.00  0.00    -0.290 NA
ATOM     17  C   LIG    1        2.233   1.119   0.265  0.00  0.00    +0.087 C 
ATOM     18  C   LIG    1        3.092   0.098   0.809  0.00  0.00    +0.165 C 
ATOM     19  O   LIG    1        2.393  -1.110   1.040  0.00  0.00    -0.369 OA
ATOM     20  C   LIG    1        2.073  -1.558  -0.233  0.00  0.00    +0.176 C 
ATOM     21  C   LIG    1        2.841   2.397  -0.192  0.00  0.00    +0.027 C 
ATOM     22  C   LIG    1        1.055  -0.684  -0.853  0.00  0.00    +0.113 C 
BRANCH  18  23
ATOM     23  C   LIG    1        4.388  -0.058   0.162  0.00  0.00    -0.017 A 
ATOM     24  C   LIG    1        5.453  -0.490   0.912  0.00  0.00    +0.006 A 
ATOM     25  C   LIG    1        6.729  -0.666   0.409  0.00  0.00    +0.000 A 
ATOM     26  C   LIG    1        6.911  -0.379  -0.926  0.00  0.00    +0.000 A 
ATOM     27  C   LIG    1        5.876   0.046  -1.704  0.00  0.00    +0.000 A 
ATOM     28  C   LIG    1        4.632   0.205  -1.175  0.00  0.00    +0.006 A 
ENDBRANCH  18  23
ENDBRANCH  15  16
ENDBRANCH   6  15
TORSDOF 4
