REMARK  Name = molecules/OOLLAFOLCSJHRE-ZHAKMVSLSA-N.pdb
REMARK                            x       y       z     vdW  Elec       q    Type
REMARK                         _______ _______ _______ _____ _____    ______ ____
ROOT
ATOM      1  C   LIG    1       -1.893  -0.602   1.600  0.00  0.00    +0.016 C 
ATOM      2  C   LIG    1       -2.028  -0.598   0.088  0.00  0.00    +0.019 C 
ATOM      3  C   LIG    1       -3.226  -1.369  -0.367  0.00  0.00    +0.176 C 
ATOM      4  C   LIG    1       -4.197  -0.339  -1.021  0.00  0.00    +0.057 C 
ATOM      5  C   LIG    1       -3.794   0.920  -0.229  0.00  0.00    +0.009 C 
ATOM      6  C   LIG    1       -2.348   0.804  -0.435  0.00  0.00    +0.006 C 
ATOM      7  C   LIG    1       -1.413   1.731   0.211  0.00  0.00    +0.020 C 
ATOM      8  C   LIG    1       -1.904   3.097   0.282  0.00  0.00    +0.013 C 
ATOM      9  C   LIG    1       -1.451   4.096  -0.716  0.00  0.00    +0.036 C 
ATOM     10  C   LIG    1       -0.007   3.925  -0.906  0.00  0.00    -0.041 C 
ATOM     11  C   LIG    1        0.793   4.961  -0.927  0.00  0.00    +0.050 C 
ATOM     12  C   LIG    1        2.219   4.732  -1.147  0.00  0.00    +0.157 C 
ATOM     13  O   LIG    1        2.981   5.744  -1.222  0.00  0.00    -0.293 OA
ATOM     14  C   LIG    1        2.730   3.373  -1.274  0.00  0.00    +0.083 C 
ATOM     15  C   LIG    1        1.712   2.385  -1.878  0.00  0.00    +0.043 C 
ATOM     16  C   LIG    1        0.462   2.535  -1.091  0.00  0.00    -0.044 C 
ATOM     17  C   LIG    1       -0.147   1.506  -0.603  0.00  0.00    -0.055 C 
ATOM     18  C   LIG    1        0.275   0.137  -0.809  0.00  0.00    +0.046 C 
ATOM     19  C   LIG    1       -0.714  -0.953  -0.479  0.00  0.00    +0.023 C 
ENDROOT
BRANCH  18  20
ATOM     20  C   LIG    1        1.547  -0.263  -0.133  0.00  0.00    -0.040 A 
ATOM     21  C   LIG    1        1.845   0.277   1.073  0.00  0.00    +0.006 A 
ATOM     22  C   LIG    1        2.990  -0.074   1.743  0.00  0.00    +0.023 A 
ATOM     23  C   LIG    1        3.866  -0.990   1.200  0.00  0.00    +0.029 A 
ATOM     24  C   LIG    1        3.552  -1.539  -0.038  0.00  0.00    +0.023 A 
ATOM     25  C   LIG    1        2.405  -1.169  -0.679  0.00  0.00    +0.006 A 
BRANCH  23  26
ATOM     26  N   LIG    1        5.065  -1.385   1.859  0.00  0.00    -0.336 N 
ATOM     27  C   LIG    1        5.418  -0.838   3.149  0.00  0.00    +0.129 C 
ATOM     28  C   LIG    1        5.949  -2.344   1.239  0.00  0.00    +0.129 C 
ENDBRANCH  23  26
ENDBRANCH  18  20
BRANCH   3  29
ATOM     29  C   LIG    1       -4.052  -1.888   0.753  0.00  0.00    +0.174 C 
ATOM     30  O   LIG    1       -4.332  -1.187   1.690  0.00  0.00    -0.293 OA
ATOM     31  C   LIG    1       -4.553  -3.267   0.746  0.00  0.00    +0.090 C 
ENDBRANCH   3  29
BRANCH   3  32
ATOM     32  O   LIG    1       -3.009  -2.418  -1.253  0.00  0.00    -0.450 OA
BRANCH  32  33
ATOM     33  C   LIG    1       -2.292  -3.554  -1.009  0.00  0.00    +0.305 C 
ATOM     34  O   LIG    1       -1.751  -3.765   0.096  0.00  0.00    -0.251 OA
ATOM     35  C   LIG    1       -2.099  -4.631  -2.044  0.00  0.00    +0.136 C 
ENDBRANCH  32  33
ENDBRANCH   3  32
TORSDOF 5
