REMARK  Name = molecules/OOUGLTULBSNHNF-UHFFFAOYSA-N.pdb
REMARK                            x       y       z     vdW  Elec       q    Type
REMARK                         _______ _______ _______ _____ _____    ______ ____
ROOT
ATOM      1  C   LIG    1       -1.719  -0.605   0.184  0.00  0.00    +0.262 A 
ATOM      2  O   LIG    1       -1.134  -1.623   0.738  0.00  0.00    -0.332 OA
ATOM      3  N   LIG    1        0.153  -1.498   0.687  0.00  0.00    -0.056 NA
ATOM      4  C   LIG    1        0.454  -0.336   0.066  0.00  0.00    +0.202 A 
ATOM      5  N   LIG    1       -0.737   0.207  -0.240  0.00  0.00    -0.187 NA
ENDROOT
BRANCH   1  12
ATOM      6  F   LIG    1       -3.630  -2.416   1.134  0.00  0.00    -0.205 F 
ATOM      7  C   LIG    1       -4.082  -1.274   0.514  0.00  0.00    +0.136 A 
ATOM      8  C   LIG    1       -5.442  -1.057   0.381  0.00  0.00    +0.039 A 
ATOM      9  C   LIG    1       -5.912   0.082  -0.237  0.00  0.00    +0.003 A 
ATOM     10  C   LIG    1       -4.972   0.976  -0.706  0.00  0.00    +0.001 A 
ATOM     11  C   LIG    1       -3.616   0.766  -0.576  0.00  0.00    +0.016 A 
ATOM     12  C   LIG    1       -3.153  -0.373   0.042  0.00  0.00    +0.075 A 
ENDBRANCH   1  12
BRANCH   4  13
ATOM     13  C   LIG    1        1.789   0.187  -0.198  0.00  0.00    +0.023 A 
ATOM     14  C   LIG    1        2.887  -0.534   0.203  0.00  0.00    +0.026 A 
ATOM     15  C   LIG    1        4.141  -0.025  -0.055  0.00  0.00    +0.060 A 
ATOM     16  C   LIG    1        4.275   1.180  -0.701  0.00  0.00    +0.015 A 
ATOM     17  C   LIG    1        3.178   1.907  -1.106  0.00  0.00    +0.001 A 
ATOM     18  C   LIG    1        1.928   1.393  -0.845  0.00  0.00    +0.012 A 
BRANCH  15  19
ATOM     19  C   LIG    1        5.335  -0.776   0.363  0.00  0.00    +0.337 C 
ATOM     20  O   LIG    1        5.183  -1.876   0.953  0.00  0.00    -0.245 OA
BRANCH  19  21
ATOM     21  O   LIG    1        6.566  -0.226   0.083  0.00  0.00    -0.477 OA
ATOM     22  H   LIG    1        7.341  -0.860  -0.060  0.00  0.00    +0.295 HD
ENDBRANCH  19  21
ENDBRANCH  15  19
ENDBRANCH   4  13
TORSDOF 4
