REMARK  Name = molecules/OOVJCSPCMCAXEX-UHFFFAOYSA-N.pdb
REMARK                            x       y       z     vdW  Elec       q    Type
REMARK                         _______ _______ _______ _____ _____    ______ ____
ROOT
ATOM      1  C   LIG    1       -1.569  -0.403   0.121  0.00  0.00    +0.408 C 
ATOM      2  N   LIG    1       -2.894  -0.029  -0.224  0.00  0.00    -0.223 N 
ATOM      3  C   LIG    1       -3.751   0.571   0.763  0.00  0.00    +0.036 C 
ATOM      4  C   LIG    1       -3.257   0.776   2.055  0.00  0.00    +0.069 C 
ATOM      5  C   LIG    1       -4.027   1.354   3.074  0.00  0.00    -0.020 C 
ATOM      6  C   LIG    1       -5.314   1.745   2.836  0.00  0.00    -0.021 C 
ATOM      7  C   LIG    1       -5.794   1.542   1.568  0.00  0.00    +0.061 C 
ATOM      8  C   LIG    1       -5.032   0.975   0.576  0.00  0.00    +0.016 C 
ATOM      9  S   LIG    1       -5.798   0.772  -1.040  0.00  0.00    -0.093 S 
ATOM     10  C   LIG    1       -4.569   0.030  -2.056  0.00  0.00    +0.021 C 
ATOM     11  C   LIG    1       -4.913  -0.229  -3.348  0.00  0.00    +0.013 C 
ATOM     12  C   LIG    1       -4.049  -0.806  -4.251  0.00  0.00    +0.001 C 
ATOM     13  C   LIG    1       -2.797  -1.126  -3.813  0.00  0.00    -0.002 C 
ATOM     14  C   LIG    1       -2.442  -0.864  -2.497  0.00  0.00    +0.007 C 
ATOM     15  C   LIG    1       -3.319  -0.278  -1.581  0.00  0.00    +0.125 C 
ATOM     16  O   LIG    1       -0.741  -0.939  -0.687  0.00  0.00    -0.226 OA
ENDROOT
BRANCH   1  17
ATOM     17  O   LIG    1       -0.968  -0.249   1.370  0.00  0.00    -0.448 OA
BRANCH  17  18
ATOM     18  C   LIG    1        0.327  -0.609   1.713  0.00  0.00    +0.262 C 
BRANCH  18  19
ATOM     19  C   LIG    1        1.412   0.078   0.942  0.00  0.00    +0.201 C 
BRANCH  19  20
ATOM     20  O   LIG    1        2.670  -0.379   1.391  0.00  0.00    -0.375 OA
BRANCH  20  21
ATOM     21  C   LIG    1        3.618   0.296   0.638  0.00  0.00    +0.175 C 
BRANCH  21  22
ATOM     22  C   LIG    1        4.999  -0.114   1.033  0.00  0.00    +0.112 C 
BRANCH  22  24
ATOM     23  C   LIG    1        7.330   0.238   0.581  0.00  0.00    +0.104 C 
ATOM     24  N   LIG    1        5.988   0.591   0.245  0.00  0.00    -0.306 NA
ATOM     25  C   LIG    1        5.790   0.474  -1.165  0.00  0.00    +0.104 C 
ENDBRANCH  22  24
ENDBRANCH  21  22
ENDBRANCH  20  21
ENDBRANCH  19  20
ENDBRANCH  18  19
ENDBRANCH  17  18
ENDBRANCH   1  17
TORSDOF 7
