REMARK  Name = molecules/OPJOMVMFYOUDPK-UHFFFAOYSA-N.pdb
REMARK                            x       y       z     vdW  Elec       q    Type
REMARK                         _______ _______ _______ _____ _____    ______ ____
ROOT
ATOM      1  C   LIG    1        0.098   0.157  -0.553  0.00  0.00    -0.042 A 
ATOM      2  C   LIG    1        0.505   1.345  -0.015  0.00  0.00    +0.007 A 
ATOM      3  C   LIG    1        1.836   1.584   0.202  0.00  0.00    +0.050 A 
ATOM      4  C   LIG    1        2.769   0.609  -0.127  0.00  0.00    +0.166 A 
ATOM      5  O   LIG    1        4.148   0.597  -0.009  0.00  0.00    -0.453 OA
ATOM      6  C   LIG    1        4.629  -0.693  -0.301  0.00  0.00    +0.466 C 
ATOM      7  O   LIG    1        3.521  -1.331  -0.882  0.00  0.00    -0.453 OA
ATOM      8  C   LIG    1        2.382  -0.595  -0.670  0.00  0.00    +0.166 A 
ATOM      9  C   LIG    1        1.029  -0.795  -0.873  0.00  0.00    +0.053 A 
ENDROOT
BRANCH   1  10
ATOM     10  C   LIG    1       -1.340  -0.066  -0.775  0.00  0.00    +0.050 C 
BRANCH  10  11
ATOM     11  C   LIG    1       -2.014  -0.697   0.430  0.00  0.00    +0.085 C 
BRANCH  11  12
ATOM     12  N   LIG    1       -3.407  -0.868   0.116  0.00  0.00    -0.319 NA
ATOM     13  C   LIG    1       -4.033   0.436   0.019  0.00  0.00    +0.101 C 
ATOM     14  H   LIG    1       -3.604  -1.481  -0.686  0.00  0.00    +0.122 HD
ENDBRANCH  11  12
ENDBRANCH  10  11
ENDBRANCH   1  10
TORSDOF 3
