REMARK  Name = molecules/OPTZOXDYEFIPJZ-UHFFFAOYSA-N.pdb
REMARK                            x       y       z     vdW  Elec       q    Type
REMARK                         _______ _______ _______ _____ _____    ______ ____
ROOT
ATOM      1  C   LIG    1        1.067   0.119  -0.317  0.00  0.00    +0.078 A 
ATOM      2  C   LIG    1       -0.346   0.232  -0.329  0.00  0.00    +0.142 A 
ATOM      3  C   LIG    1       -0.878   1.484  -0.503  0.00  0.00    +0.050 A 
ATOM      4  C   LIG    1       -0.080   2.616  -0.663  0.00  0.00    +0.036 A 
ATOM      5  C   LIG    1        1.276   2.508  -0.651  0.00  0.00    +0.128 A 
ATOM      6  C   LIG    1        1.837   1.250  -0.477  0.00  0.00    +0.059 A 
ENDROOT
BRANCH   1   7
ATOM      7  N   LIG    1        1.573  -1.179  -0.138  0.00  0.00    -0.283 N 
ATOM      8  H   LIG    1        0.918  -1.985  -0.023  0.00  0.00    +0.155 HD
ATOM      9  C   LIG    1        2.940  -1.475  -0.101  0.00  0.00    +0.214 C 
ATOM     10  C   LIG    1        3.327  -2.938   0.103  0.00  0.00    +0.109 C 
ATOM     11  O   LIG    1        3.910  -0.706  -0.211  0.00  0.00    -0.276 OA
ENDBRANCH   1   7
BRANCH   5  12
ATOM     12  N   LIG    1        2.145   3.632  -0.811  0.00  0.00    +0.056 N 
ATOM     13  O   LIG    1        3.377   3.518  -0.798  0.00  0.00    -0.126 OA
ATOM     14  O   LIG    1        1.586   4.884  -0.984  0.00  0.00    -0.126 OA
ENDBRANCH   5  12
BRANCH   2  15
ATOM     15  O   LIG    1       -1.067  -0.838  -0.179  0.00  0.00    -0.490 OA
BRANCH  15  16
ATOM     16  C   LIG    1       -2.222  -1.475  -0.081  0.00  0.00    +0.229 C 
BRANCH  16  17
ATOM     17  C   LIG    1       -3.170  -1.178   1.043  0.00  0.00    +0.038 C 
ATOM     18  C   LIG    1       -3.678   0.216   1.128  0.00  0.00    +0.007 C 
ENDBRANCH  16  17
ENDBRANCH  15  16
ENDBRANCH   2  15
TORSDOF 5
