REMARK  Name = molecules/OQDPVLVUJFGPGQ-UHFFFAOYSA-N.pdb
REMARK                            x       y       z     vdW  Elec       q    Type
REMARK                         _______ _______ _______ _____ _____    ______ ____
ROOT
ATOM      1  N   LIG    1       -0.225   0.367   1.202  0.00  0.00    -0.295 NA
ATOM      2  C   LIG    1        0.953   0.030   1.991  0.00  0.00    +0.103 C 
ATOM      3  C   LIG    1        1.900  -0.790   1.141  0.00  0.00    +0.123 C 
ATOM      4  N   LIG    1        2.426   0.121   0.147  0.00  0.00    -0.297 N 
ATOM      5  C   LIG    1        1.484   1.042  -0.450  0.00  0.00    +0.123 C 
ATOM      6  C   LIG    1        0.085   0.473  -0.211  0.00  0.00    +0.103 C 
ENDROOT
BRANCH   4   7
ATOM      7  C   LIG    1        3.779   0.162  -0.265  0.00  0.00    +0.218 A 
ATOM      8  N   LIG    1        4.721  -0.664   0.243  0.00  0.00    -0.223 NA
ATOM      9  C   LIG    1        6.008  -0.634  -0.141  0.00  0.00    +0.116 A 
ATOM     10  C   LIG    1        6.411   0.262  -1.087  0.00  0.00    +0.039 A 
ATOM     11  C   LIG    1        5.467   1.115  -1.620  0.00  0.00    +0.116 A 
ATOM     12  N   LIG    1        4.197   1.036  -1.195  0.00  0.00    -0.223 NA
ENDBRANCH   4   7
BRANCH   1  13
ATOM     13  C   LIG    1       -1.150  -0.741   1.414  0.00  0.00    +0.119 C 
BRANCH  13  14
ATOM     14  C   LIG    1       -2.434  -0.584   0.722  0.00  0.00    -0.030 A 
ATOM     15  C   LIG    1       -3.022   0.612   0.421  0.00  0.00    +0.054 A 
ATOM     16  C   LIG    1       -4.229   0.702  -0.236  0.00  0.00    +0.167 A 
ATOM     17  C   LIG    1       -4.853  -0.467  -0.595  0.00  0.00    +0.166 A 
ATOM     18  C   LIG    1       -4.296  -1.701  -0.310  0.00  0.00    +0.050 A 
ATOM     19  O   LIG    1       -6.057  -0.210  -1.246  0.00  0.00    -0.453 OA
ATOM     20  C   LIG    1       -6.244   1.186  -1.237  0.00  0.00    +0.466 C 
ATOM     21  O   LIG    1       -5.059   1.721  -0.672  0.00  0.00    -0.453 OA
ATOM     22  C   LIG    1       -3.086  -1.752   0.348  0.00  0.00    +0.009 A 
ENDBRANCH  13  14
ENDBRANCH   1  13
TORSDOF 3
