REMARK  Name = molecules/OQJBSDFFQWMKBQ-GFCCVEGCSA-N.pdb
REMARK                            x       y       z     vdW  Elec       q    Type
REMARK                         _______ _______ _______ _____ _____    ______ ____
ROOT
ATOM      1  N   LIG    1       -0.654   0.194   0.630  0.00  0.00    -0.296 N 
ATOM      2  C   LIG    1       -1.445  -0.973   0.472  0.00  0.00    +0.206 C 
ATOM      3  N   LIG    1       -0.970  -2.097   1.086  0.00  0.00    -0.256 NA
ATOM      4  C   LIG    1       -1.626  -3.266   1.043  0.00  0.00    +0.108 C 
ATOM      5  C   LIG    1       -2.834  -3.390   0.365  0.00  0.00    +0.020 C 
ATOM      6  C   LIG    1       -3.327  -2.269  -0.259  0.00  0.00    +0.016 C 
ATOM      7  C   LIG    1       -2.618  -1.107  -0.183  0.00  0.00    +0.040 C 
ATOM      8  S   LIG    1       -3.304   0.304  -1.025  0.00  0.00    -0.088 S 
ATOM      9  C   LIG    1       -2.197   1.648  -0.662  0.00  0.00    +0.034 A 
ATOM     10  C   LIG    1       -2.553   2.882  -1.147  0.00  0.00    +0.017 A 
ATOM     11  C   LIG    1       -1.748   3.952  -0.901  0.00  0.00    +0.001 A 
ATOM     12  C   LIG    1       -0.604   3.794  -0.179  0.00  0.00    +0.002 A 
ATOM     13  C   LIG    1       -0.282   2.538   0.291  0.00  0.00    +0.024 A 
ATOM     14  C   LIG    1       -1.070   1.431   0.062  0.00  0.00    +0.046 A 
ENDROOT
BRANCH   1  15
ATOM     15  C   LIG    1        0.597   0.074   1.346  0.00  0.00    +0.126 C 
BRANCH  15  16
ATOM     16  C   LIG    1        1.841   0.045   0.558  0.00  0.00    +0.070 C 
ATOM     17  C   LIG    1        2.992  -0.124   1.581  0.00  0.00    +0.026 C 
BRANCH  16  18
ATOM     18  N   LIG    1        2.026  -0.997  -0.390  0.00  0.00    -0.304 NA
ATOM     19  C   LIG    1        3.373  -0.882  -0.922  0.00  0.00    +0.104 C 
ATOM     20  C   LIG    1        1.118  -1.033  -1.506  0.00  0.00    +0.104 C 
ENDBRANCH  16  18
ENDBRANCH  15  16
ENDBRANCH   1  15
TORSDOF 3
