REMARK  Name = molecules/ORFOPKXBNMVMKC-DWVKKRMSSA-O.pdb
REMARK                            x       y       z     vdW  Elec       q    Type
REMARK                         _______ _______ _______ _____ _____    ______ ____
ROOT
ATOM      1  N   LIG    1       -0.528  -0.324   0.885  0.00  0.00    -0.296 N 
ATOM      2  C   LIG    1       -1.928  -0.195   0.900  0.00  0.00    +0.268 C 
ATOM      3  O   LIG    1       -2.571  -1.119   1.588  0.00  0.00    -0.268 OA
ATOM      4  H   LIG    1        0.115   0.265   0.379  0.00  0.00    +0.150 HD
ENDROOT
BRANCH   1   9
ATOM      5  CA  LIG    1        3.423  -1.466   1.049  0.00  0.00    +0.124 C 
ATOM      6  N   LIG    1        2.071  -1.510   1.544  0.00  0.00    -0.249 N 
ATOM      7  C   LIG    1        1.164  -1.074   2.546  0.00  0.00    +0.244 C 
ATOM      8  O   LIG    1        1.234  -0.589   3.701  0.00  0.00    -0.273 OA
ATOM      9  CA  LIG    1        0.068  -1.439   1.639  0.00  0.00    +0.191 C 
ATOM     10  C   LIG    1        1.052  -2.278   0.862  0.00  0.00    +0.169 C 
ATOM     11  S   LIG    1        1.182  -1.934  -0.901  0.00  0.00    -0.131 S 
ATOM     12  C   LIG    1        2.499  -0.712  -1.085  0.00  0.00    +0.105 C 
ATOM     13  C   LIG    1        3.676  -1.129  -0.205  0.00  0.00    -0.014 C 
BRANCH   5  14
ATOM     14  C   LIG    1        4.474  -1.830   2.014  0.00  0.00    +0.351 C 
ATOM     15  O   LIG    1        5.699  -1.871   1.784  0.00  0.00    -0.244 OA
BRANCH  14  16
ATOM     16  OXT LIG    1        4.152  -2.174   3.338  0.00  0.00    -0.476 OA
ATOM     17  HXT LIG    1        4.679  -1.790   4.119  0.00  0.00    +0.295 HD
ENDBRANCH  14  16
ENDBRANCH   5  14
BRANCH  13  18
ATOM     18  C   LIG    1        5.026  -1.089  -0.776  0.00  0.00    +0.143 C 
BRANCH  18  19
ATOM     19  N   LIG    1        5.445   0.217  -1.220  0.00  0.00    -0.309 N 
ATOM     20  C   LIG    1        6.054   1.056  -0.367  0.00  0.00    +0.071 C 
ATOM     21  C   LIG    1        6.489   2.311  -0.735  0.00  0.00    -0.003 C 
ATOM     22  C   LIG    1        6.290   2.718  -2.033  0.00  0.00    +0.047 C 
ATOM     23  C   LIG    1        5.667   1.855  -2.900  0.00  0.00    -0.003 C 
ATOM     24  C   LIG    1        5.246   0.598  -2.482  0.00  0.00    +0.071 C 
ENDBRANCH  18  19
ENDBRANCH  13  18
ENDBRANCH   1   9
BRANCH   2  25
ATOM     25  C   LIG    1       -2.730   0.794   0.280  0.00  0.00    +0.190 C 
ATOM     26  N   LIG    1       -4.042   0.629   0.404  0.00  0.00    -0.077 NA
BRANCH  25  27
ATOM     27  C   LIG    1       -2.284   1.973  -0.510  0.00  0.00    +0.107 A 
ATOM     28  C   LIG    1       -1.022   2.471  -0.506  0.00  0.00    +0.078 A 
ATOM     29  S   LIG    1       -1.152   3.752  -1.679  0.00  0.00    -0.060 S 
ATOM     30  C   LIG    1       -2.794   3.557  -2.079  0.00  0.00    +0.156 A 
ATOM     31  N   LIG    1       -3.141   2.555  -1.318  0.00  0.00    -0.223 NA
BRANCH  30  32
ATOM     32  N   LIG    1       -3.605   4.303  -3.018  0.00  0.00    -0.338 N 
ATOM     33  H   LIG    1       -3.976   5.210  -2.709  0.00  0.00    +0.144 HD
ATOM     34  H   LIG    1       -3.761   3.879  -3.941  0.00  0.00    +0.144 HD
ENDBRANCH  30  32
ENDBRANCH  25  27
BRANCH  26  35
ATOM     35  O   LIG    1       -4.561  -0.423   1.084  0.00  0.00    -0.376 OA
BRANCH  35  36
ATOM     36  C   LIG    1       -5.801  -1.027   0.771  0.00  0.00    +0.228 C 
ATOM     37  C   LIG    1       -6.921  -0.001   0.955  0.00  0.00    +0.070 C 
ATOM     38  C   LIG    1       -5.875  -1.472  -0.679  0.00  0.00    +0.070 C 
BRANCH  36  39
ATOM     39  C   LIG    1       -6.052  -2.136   1.710  0.00  0.00    +0.351 C 
ATOM     40  O   LIG    1       -5.226  -2.414   2.615  0.00  0.00    -0.246 OA
BRANCH  39  41
ATOM     41  O   LIG    1       -7.203  -2.902   1.621  0.00  0.00    -0.478 OA
ATOM     42  H   LIG    1       -7.117  -3.917   1.604  0.00  0.00    +0.295 HD
ENDBRANCH  39  41
ENDBRANCH  36  39
ENDBRANCH  35  36
ENDBRANCH  26  35
ENDBRANCH   2  25
TORSDOF 12
