REMARK  Name = molecules/ORHVFDBDWJTZIN-FGZHOGPDSA-N.pdb
REMARK                            x       y       z     vdW  Elec       q    Type
REMARK                         _______ _______ _______ _____ _____    ______ ____
ROOT
ATOM      1  C   LIG    1        1.079  -2.890  -0.939  0.00  0.00    +0.026 C 
ENDROOT
BRANCH   1   2
ATOM      2  C   LIG    1        1.699  -1.548  -0.649  0.00  0.00    -0.043 A 
ATOM      3  C   LIG    1        2.482  -1.366   0.471  0.00  0.00    +0.007 A 
ATOM      4  C   LIG    1        3.066  -0.121   0.742  0.00  0.00    +0.047 A 
ATOM      5  C   LIG    1        2.868   0.948  -0.108  0.00  0.00    +0.135 A 
ATOM      6  C   LIG    1        2.090   0.779  -1.228  0.00  0.00    -0.008 A 
ATOM      7  C   LIG    1        1.898   1.940  -2.116  0.00  0.00    +0.047 C 
ATOM      8  C   LIG    1        1.521  -0.462  -1.479  0.00  0.00    +0.011 A 
BRANCH   5   9
ATOM      9  O   LIG    1        3.450   2.176   0.167  0.00  0.00    -0.426 OA
BRANCH   9  10
ATOM     10  C   LIG    1        2.850   3.149   0.958  0.00  0.00    +0.312 C 
ATOM     11  O   LIG    1        1.721   2.847   1.423  0.00  0.00    -0.250 OA
BRANCH  10  12
ATOM     12  C   LIG    1        3.450   4.449   1.257  0.00  0.00    +0.118 C 
ATOM     13  C   LIG    1        2.511   5.223   2.155  0.00  0.00    +0.015 C 
ENDBRANCH  10  12
ENDBRANCH   9  10
ENDBRANCH   5   9
ENDBRANCH   1   2
BRANCH   1  14
ATOM     14  C   LIG    1        2.107  -3.926  -1.179  0.00  0.00    +0.005 C 
ATOM     15  C   LIG    1        1.592  -5.246  -1.683  0.00  0.00    +0.004 C 
ENDBRANCH   1  14
BRANCH   1  16
ATOM     16  C   LIG    1        0.045  -3.160   0.071  0.00  0.00    +0.026 C 
BRANCH  16  17
ATOM     17  C   LIG    1       -0.865  -1.965   0.216  0.00  0.00    -0.043 A 
ATOM     18  C   LIG    1       -1.067  -1.326   1.415  0.00  0.00    +0.007 A 
ATOM     19  C   LIG    1       -1.904  -0.231   1.543  0.00  0.00    +0.047 A 
ATOM     20  C   LIG    1       -2.549   0.214   0.410  0.00  0.00    +0.135 A 
ATOM     21  C   LIG    1       -2.380  -0.392  -0.815  0.00  0.00    -0.008 A 
ATOM     22  C   LIG    1       -3.078   0.095  -2.041  0.00  0.00    +0.047 C 
ATOM     23  C   LIG    1       -1.521  -1.498  -0.896  0.00  0.00    +0.011 A 
BRANCH  20  24
ATOM     24  O   LIG    1       -3.409   1.315   0.468  0.00  0.00    -0.426 OA
BRANCH  24  25
ATOM     25  C   LIG    1       -2.977   2.612   0.303  0.00  0.00    +0.312 C 
ATOM     26  O   LIG    1       -1.753   2.805   0.092  0.00  0.00    -0.250 OA
BRANCH  25  27
ATOM     27  C   LIG    1       -3.877   3.789   0.361  0.00  0.00    +0.118 C 
ATOM     28  C   LIG    1       -3.788   4.489   1.692  0.00  0.00    +0.015 C 
ENDBRANCH  25  27
ENDBRANCH  24  25
ENDBRANCH  20  24
ENDBRANCH  16  17
BRANCH  16  29
ATOM     29  C   LIG    1       -0.842  -4.340  -0.125  0.00  0.00    +0.005 C 
ATOM     30  C   LIG    1       -1.820  -4.319   1.078  0.00  0.00    +0.004 C 
ENDBRANCH  16  29
ENDBRANCH   1  16
TORSDOF 11
