REMARK  Name = molecules/ORLGLBZRQYOWNA-UHFFFAOYSA-N.pdb
REMARK                            x       y       z     vdW  Elec       q    Type
REMARK                         _______ _______ _______ _____ _____    ______ ____
ROOT
ATOM      1  C   LIG    1       -2.254  -0.640   0.000  0.00  0.00    +0.044 C 
ATOM      2  C   LIG    1       -0.915   0.007  -0.009  0.00  0.00    -0.046 A 
ATOM      3  C   LIG    1        0.240  -0.745   0.025  0.00  0.00    +0.046 A 
ATOM      4  C   LIG    1        1.505  -0.201   0.019  0.00  0.00    +0.116 A 
ATOM      5  N   LIG    1        1.577   1.150  -0.023  0.00  0.00    -0.241 NA
ATOM      6  C   LIG    1        0.470   1.910  -0.057  0.00  0.00    +0.113 A 
ATOM      7  C   LIG    1       -0.811   1.383  -0.051  0.00  0.00    +0.023 A 
ENDROOT
BRANCH   4   8
ATOM      8  N   LIG    1        2.679  -1.011   0.054  0.00  0.00    -0.343 N 
ATOM      9  H   LIG    1        3.586  -0.677   0.394  0.00  0.00    +0.144 HD
ATOM     10  H   LIG    1        2.610  -1.996  -0.284  0.00  0.00    +0.144 HD
ENDBRANCH   4   8
TORSDOF 1
