REMARK  Name = molecules/OROGSEYTTFOCAN-DNJOTXNNSA-N.pdb
REMARK                            x       y       z     vdW  Elec       q    Type
REMARK                         _______ _______ _______ _____ _____    ______ ____
ROOT
ATOM      1  C   LIG    1        0.558   2.726  -0.637  0.00  0.00    +0.178 C 
ATOM      2  C   LIG    1        0.330   2.048   0.661  0.00  0.00    +0.217 C 
ATOM      3  O   LIG    1        1.582   1.461   1.097  0.00  0.00    -0.481 OA
ATOM      4  C   LIG    1        1.730   0.254   0.414  0.00  0.00    +0.167 A 
ATOM      5  C   LIG    1        0.486  -0.176   0.074  0.00  0.00    +0.012 A 
ATOM      6  C   LIG    1        0.177  -1.300  -0.599  0.00  0.00    -0.038 A 
ATOM      7  C   LIG    1       -1.224  -1.634  -0.909  0.00  0.00    +0.055 C 
ATOM      8  C   LIG    1       -2.183  -0.592  -0.411  0.00  0.00    +0.068 C 
ATOM      9  N   LIG    1       -2.629  -0.994   0.900  0.00  0.00    -0.301 NA
ATOM     10  C   LIG    1       -2.458   0.019   1.904  0.00  0.00    +0.085 C 
ATOM     11  C   LIG    1       -1.003   0.429   1.958  0.00  0.00    +0.031 C 
ATOM     12  C   LIG    1       -3.917  -1.611   0.908  0.00  0.00    +0.105 C 
ATOM     13  C   LIG    1       -1.618   0.817  -0.405  0.00  0.00    +0.043 C 
ATOM     14  C   LIG    1       -1.053   1.159  -1.720  0.00  0.00    -0.023 C 
ATOM     15  C   LIG    1        1.240  -2.108  -0.986  0.00  0.00    +0.008 A 
ATOM     16  C   LIG    1        2.534  -1.736  -0.675  0.00  0.00    +0.050 A 
ATOM     17  C   LIG    1        2.793  -0.551   0.028  0.00  0.00    +0.162 A 
ATOM     18  C   LIG    1       -0.495   0.802   0.585  0.00  0.00    +0.048 C 
ATOM     19  C   LIG    1       -0.061   2.033  -1.797  0.00  0.00    +0.004 C 
ENDROOT
BRANCH   1  20
ATOM     20  O   LIG    1        1.931   2.872  -0.889  0.00  0.00    -0.384 OA
ATOM     21  H   LIG    1        2.160   3.739  -1.277  0.00  0.00    +0.210 HD
ENDBRANCH   1  20
BRANCH  17  22
ATOM     22  O   LIG    1        4.069  -0.163   0.347  0.00  0.00    -0.491 OA
ATOM     23  C   LIG    1        5.231  -0.866   0.027  0.00  0.00    +0.277 C 
ENDBRANCH  17  22
TORSDOF 2
