REMARK  Name = molecules/ORTQZVOHEJQUHG-UHFFFAOYSA-L.pdb
REMARK                            x       y       z     vdW  Elec       q    Type
REMARK                         _______ _______ _______ _____ _____    ______ ____
ROOT
ATOM      1 CU   LIG    1       -0.374   0.629   0.000  0.00  0.00    +0.000 Cu
ATOM      2 CL   LIG    1        1.935  -0.214   0.000  0.00  0.00    +0.000 Cl
ATOM      3 CL   LIG    1       -1.562  -0.415   0.000  0.00  0.00    +0.000 Cl
ENDROOT
TORSDOF 0
