REMARK  Name = molecules/ORXLOAFNULMXBG-INIZCTEOSA-N.pdb
REMARK                            x       y       z     vdW  Elec       q    Type
REMARK                         _______ _______ _______ _____ _____    ______ ____
ROOT
ATOM      1  C   LIG    1        1.944   0.194  -0.048  0.00  0.00    +0.317 C 
ATOM      2  O   LIG    1        1.881   0.266   1.202  0.00  0.00    -0.250 OA
ENDROOT
BRANCH   1   3
ATOM      3  C   LIG    1        3.191   0.455  -0.745  0.00  0.00    +0.153 C 
BRANCH   3   4
ATOM      4  C   LIG    1        4.367  -0.235  -0.189  0.00  0.00    -0.032 A 
ATOM      5  C   LIG    1        4.330  -1.176   0.801  0.00  0.00    +0.004 A 
ATOM      6  C   LIG    1        5.476  -1.788   1.242  0.00  0.00    +0.000 A 
ATOM      7  C   LIG    1        6.721  -1.472   0.696  0.00  0.00    +0.000 A 
ATOM      8  C   LIG    1        6.757  -0.536  -0.287  0.00  0.00    +0.000 A 
ATOM      9  C   LIG    1        5.595   0.071  -0.720  0.00  0.00    +0.004 A 
ENDBRANCH   3   4
BRANCH   3  10
ATOM     10  C   LIG    1        3.400   1.994  -0.651  0.00  0.00    +0.175 C 
BRANCH  10  11
ATOM     11  O   LIG    1        2.287   2.552  -1.278  0.00  0.00    -0.394 OA
ATOM     12  H   LIG    1        2.048   2.106  -2.115  0.00  0.00    +0.209 HD
ENDBRANCH  10  11
ENDBRANCH   3  10
ENDBRANCH   1   3
BRANCH   1  13
ATOM     13  O   LIG    1        0.820  -0.133  -0.743  0.00  0.00    -0.464 OA
BRANCH  13  14
ATOM     14  C   LIG    1       -0.471  -0.392  -0.217  0.00  0.00    +0.239 C 
BRANCH  14  15
ATOM     15  C   LIG    1       -1.253   0.740   0.263  0.00  0.00    +0.012 C 
ATOM     16  C   LIG    1       -0.534   1.735   1.167  0.00  0.00    +0.015 C 
ATOM     17  C   LIG    1       -1.633   1.653  -0.971  0.00  0.00    +0.015 C 
BRANCH  15  18
ATOM     18  C   LIG    1       -2.563   0.412   0.871  0.00  0.00    +0.094 C 
BRANCH  18  19
ATOM     19  N   LIG    1       -3.515  -0.282   0.082  0.00  0.00    -0.302 NA
BRANCH  19  20
ATOM     20  C   LIG    1       -4.856   0.147   0.497  0.00  0.00    +0.081 C 
ATOM     21  C   LIG    1       -6.004  -0.592  -0.037  0.00  0.00    +0.020 C 
ENDBRANCH  19  20
BRANCH  19  22
ATOM     22  C   LIG    1       -3.402  -1.665  -0.118  0.00  0.00    +0.081 C 
ATOM     23  C   LIG    1       -4.104  -2.154  -1.383  0.00  0.00    +0.020 C 
ENDBRANCH  19  22
ENDBRANCH  18  19
ENDBRANCH  15  18
ENDBRANCH  14  15
ENDBRANCH  13  14
ENDBRANCH   1  13
TORSDOF 11
