REMARK  Name = molecules/OSCTXCOERRNGLW-UHFFFAOYSA-N.pdb
REMARK                            x       y       z     vdW  Elec       q    Type
REMARK                         _______ _______ _______ _____ _____    ______ ____
ROOT
ATOM      1  C   LIG    1       -1.004   1.597  -0.695  0.00  0.00    +0.013 C 
ATOM      2  C   LIG    1        0.217   1.687  -1.000  0.00  0.00    +0.068 C 
ENDROOT
BRANCH   1   3
ATOM      3  C   LIG    1       -1.957   0.636  -0.247  0.00  0.00    -0.025 A 
ATOM      4  C   LIG    1       -3.085   1.073   0.480  0.00  0.00    +0.008 A 
ATOM      5  C   LIG    1       -4.013   0.220   1.023  0.00  0.00    +0.001 A 
ATOM      6  C   LIG    1       -3.864  -1.132   0.867  0.00  0.00    +0.000 A 
ATOM      7  C   LIG    1       -2.780  -1.599   0.164  0.00  0.00    +0.001 A 
ATOM      8  C   LIG    1       -1.849  -0.721  -0.380  0.00  0.00    +0.008 A 
ENDBRANCH   1   3
BRANCH   2   9
ATOM      9  C   LIG    1        1.345   0.846  -1.051  0.00  0.00    +0.237 C 
ATOM     10  N   LIG    1        1.605  -0.472  -0.705  0.00  0.00    -0.310 N 
ATOM     11  H   LIG    1        0.905  -1.076  -0.254  0.00  0.00    +0.149 HD
ATOM     12  O   LIG    1        2.424   1.469  -1.563  0.00  0.00    -0.271 OA
BRANCH  10  13
ATOM     13  C   LIG    1        2.916  -1.092  -0.901  0.00  0.00    +0.132 C 
BRANCH  13  14
ATOM     14  C   LIG    1        3.947  -0.404  -0.088  0.00  0.00    +0.174 C 
BRANCH  14  15
ATOM     15  O   LIG    1        3.572  -0.499   1.277  0.00  0.00    -0.393 OA
ATOM     16  H   LIG    1        3.993   0.268   1.742  0.00  0.00    +0.209 HD
ENDBRANCH  14  15
ENDBRANCH  13  14
ENDBRANCH  10  13
ENDBRANCH   2   9
TORSDOF 5
