REMARK  Name = molecules/OSVMTWJCGUFAOD-KZQROQTASA-N.pdb
REMARK                            x       y       z     vdW  Elec       q    Type
REMARK                         _______ _______ _______ _____ _____    ______ ____
ROOT
ATOM      1  C   LIG    1        2.077  -1.287  -1.036  0.00  0.00    +0.016 C 
ATOM      2  C   LIG    1        1.677   0.008  -0.345  0.00  0.00    -0.004 C 
ATOM      3  C   LIG    1        2.177  -0.060   1.033  0.00  0.00    -0.019 C 
ATOM      4  C   LIG    1        1.328  -0.153   2.237  0.00  0.00    +0.035 C 
ATOM      5  C   LIG    1       -0.079   0.312   1.999  0.00  0.00    +0.008 C 
ATOM      6  C   LIG    1       -0.622  -0.170   0.672  0.00  0.00    -0.003 C 
ATOM      7  C   LIG    1       -1.947   0.468   0.463  0.00  0.00    +0.006 C 
ATOM      8  C   LIG    1       -2.997   0.198   1.466  0.00  0.00    +0.012 C 
ATOM      9  C   LIG    1       -4.259   0.685   0.737  0.00  0.00    +0.075 C 
ATOM     10  C   LIG    1       -3.919   0.640  -0.706  0.00  0.00    +0.139 C 
ATOM     11  O   LIG    1       -4.607   1.074  -1.595  0.00  0.00    -0.297 OA
ATOM     12  C   LIG    1       -2.624  -0.015  -0.828  0.00  0.00    +0.029 C 
ATOM     13  C   LIG    1       -2.838  -1.506  -0.818  0.00  0.00    +0.019 C 
ATOM     14  C   LIG    1       -1.762   0.421  -1.954  0.00  0.00    +0.015 C 
ATOM     15  C   LIG    1       -0.386  -0.198  -1.755  0.00  0.00    +0.005 C 
ATOM     16  C   LIG    1        3.488  -0.035   1.211  0.00  0.00    +0.159 C 
ATOM     17  C   LIG    1        4.413   0.056   0.087  0.00  0.00    +0.197 C 
ATOM     18  O   LIG    1        5.570  -0.403   0.131  0.00  0.00    -0.289 OA
ATOM     19  C   LIG    1        3.937   0.726  -1.149  0.00  0.00    +0.084 C 
ATOM     20  C   LIG    1        0.248   0.334  -0.485  0.00  0.00    +0.003 C 
ATOM     21  C   LIG    1        2.480   1.112  -1.048  0.00  0.00    +0.019 C 
ENDROOT
BRANCH  16  22
ATOM     22  O   LIG    1        4.018  -0.098   2.516  0.00  0.00    -0.503 OA
ATOM     23  H   LIG    1        3.548  -0.670   3.207  0.00  0.00    +0.292 HD
ENDBRANCH  16  22
TORSDOF 1
