REMARK  Name = molecules/OSWPMRLSEDHDFF-UHFFFAOYSA-N.pdb
REMARK                            x       y       z     vdW  Elec       q    Type
REMARK                         _______ _______ _______ _____ _____    ______ ____
ROOT
ATOM      1  C   LIG    1       -1.176  -1.385  -0.390  0.00  0.00    +0.018 A 
ATOM      2  C   LIG    1       -0.274  -0.368  -0.156  0.00  0.00    +0.100 A 
ATOM      3  C   LIG    1       -0.671   0.936   0.037  0.00  0.00    +0.131 A 
ATOM      4  C   LIG    1       -2.037   1.230  -0.006  0.00  0.00    +0.046 A 
ATOM      5  C   LIG    1       -2.939   0.205  -0.241  0.00  0.00    +0.004 A 
ATOM      6  C   LIG    1       -2.527  -1.110  -0.435  0.00  0.00    +0.001 A 
ENDROOT
BRANCH   3   7
ATOM      7  O   LIG    1        0.280   1.919   0.269  0.00  0.00    -0.506 OA
ATOM      8  H   LIG    1        0.045   2.878   0.415  0.00  0.00    +0.292 HD
ENDBRANCH   3   7
BRANCH   2   9
ATOM      9  C   LIG    1        1.147  -0.688  -0.113  0.00  0.00    +0.342 C 
ATOM     10  O   LIG    1        1.548  -1.850  -0.283  0.00  0.00    -0.245 OA
BRANCH   9  11
ATOM     11  O   LIG    1        2.110   0.288   0.117  0.00  0.00    -0.464 OA
ATOM     12  C   LIG    1        3.495  -0.056   0.153  0.00  0.00    +0.280 C 
ENDBRANCH   9  11
ENDBRANCH   2   9
TORSDOF 3
