REMARK  Name = molecules/OTVAEFIXJLOWRX-NXEZZACHSA-N.pdb
REMARK                            x       y       z     vdW  Elec       q    Type
REMARK                         _______ _______ _______ _____ _____    ______ ____
ROOT
ATOM      1  C   LIG    1        0.942  -0.934   0.452  0.00  0.00    +0.167 C 
ENDROOT
BRANCH   1   2
ATOM      2  C   LIG    1       -0.472  -0.553   0.283  0.00  0.00    -0.017 A 
ATOM      3  C   LIG    1       -1.449  -1.412   0.710  0.00  0.00    +0.008 A 
ATOM      4  C   LIG    1       -2.801  -1.079   0.589  0.00  0.00    +0.027 A 
ATOM      5  C   LIG    1       -3.170   0.126   0.034  0.00  0.00    +0.088 A 
ATOM      6  C   LIG    1       -2.173   0.974  -0.389  0.00  0.00    +0.027 A 
ATOM      7  C   LIG    1       -0.817   0.641  -0.268  0.00  0.00    +0.008 A 
BRANCH   5   8
ATOM      8  S   LIG    1       -4.861   0.562  -0.126  0.00  0.00    -0.006 S 
ATOM      9  O   LIG    1       -5.619  -0.063   1.002  0.00  0.00    -0.170 OA
ATOM     10  O   LIG    1       -4.925   2.075  -0.049  0.00  0.00    -0.170 OA
ATOM     11  C   LIG    1       -5.515   0.021  -1.680  0.00  0.00    +0.200 C 
ENDBRANCH   5   8
ENDBRANCH   1   2
BRANCH   1  12
ATOM     12  O   LIG    1        1.134  -1.988  -0.471  0.00  0.00    -0.385 OA
ATOM     13  H   LIG    1        0.888  -1.611  -1.371  0.00  0.00    +0.210 HD
ENDBRANCH   1  12
BRANCH   1  14
ATOM     14  CA  LIG    1        1.934   0.154   0.291  0.00  0.00    +0.131 C 
BRANCH  14  15
ATOM     15  N   LIG    1        3.304  -0.332   0.403  0.00  0.00    -0.305 N 
ATOM     16  H   LIG    1        3.590  -0.807   1.257  0.00  0.00    +0.149 HD
ATOM     17  C   LIG    1        4.198  -0.134  -0.669  0.00  0.00    +0.246 C 
ATOM     18  O   LIG    1        3.842   0.461  -1.743  0.00  0.00    -0.273 OA
BRANCH  17  19
ATOM     19  C   LIG    1        5.606  -0.605  -0.620  0.00  0.00    +0.256 C 
ATOM     20 CL   LIG    1        6.470   0.159   0.733  0.00  0.00    -0.094 Cl
ATOM     21 CL   LIG    1        5.555  -2.387  -0.409  0.00  0.00    -0.094 Cl
ENDBRANCH  17  19
ENDBRANCH  14  15
BRANCH  14  22
ATOM     22  C   LIG    1        1.810   1.219   1.369  0.00  0.00    +0.181 C 
BRANCH  22  23
ATOM     23  O   LIG    1        2.704   2.264   1.169  0.00  0.00    -0.393 OA
ATOM     24  H   LIG    1        2.240   3.065   0.819  0.00  0.00    +0.209 HD
ENDBRANCH  22  23
ENDBRANCH  14  22
ENDBRANCH   1  14
TORSDOF 8
