REMARK  Name = molecules/OUBCNLGXQFSTLU-UHFFFAOYSA-N.pdb
REMARK                            x       y       z     vdW  Elec       q    Type
REMARK                         _______ _______ _______ _____ _____    ______ ____
ROOT
ATOM      1  C   LIG    1        1.032  -0.160  -0.265  0.00  0.00    +0.049 A 
ATOM      2  C   LIG    1        1.562   0.829   0.592  0.00  0.00    +0.014 A 
ATOM      3  C   LIG    1        2.885   0.890   0.923  0.00  0.00    +0.013 A 
ATOM      4  C   LIG    1        3.790  -0.047   0.409  0.00  0.00    +0.057 A 
ATOM      5  C   LIG    1        3.291  -1.008  -0.405  0.00  0.00    +0.045 A 
ATOM      6  C   LIG    1        1.930  -1.064  -0.736  0.00  0.00    +0.137 A 
ENDROOT
BRANCH   4   7
ATOM      7  C   LIG    1        5.251   0.069   0.696  0.00  0.00    +0.417 C 
ATOM      8  F   LIG    1        5.549   0.965   1.669  0.00  0.00    -0.166 F 
ATOM      9  F   LIG    1        5.713  -1.236   1.021  0.00  0.00    -0.166 F 
ATOM     10  F   LIG    1        5.950   0.418  -0.464  0.00  0.00    -0.166 F 
ENDBRANCH   4   7
BRANCH   6  11
ATOM     11  N   LIG    1        1.560  -2.211  -1.480  0.00  0.00    +0.057 N 
ATOM     12  O   LIG    1        2.277  -3.266  -1.260  0.00  0.00    -0.126 OA
ATOM     13  O   LIG    1        0.617  -2.349  -2.368  0.00  0.00    -0.126 OA
ENDBRANCH   6  11
BRANCH   1  14
ATOM     14  C   LIG    1       -0.325  -0.043  -0.729  0.00  0.00    +0.183 C 
ATOM     15  O   LIG    1       -0.675  -0.614  -1.810  0.00  0.00    -0.291 OA
BRANCH  14  16
ATOM     16  C   LIG    1       -1.440   0.671  -0.079  0.00  0.00    +0.192 C 
ATOM     17  C   LIG    1       -2.087  -0.276   0.946  0.00  0.00    +0.151 C 
ATOM     18  O   LIG    1       -1.479  -0.762   1.872  0.00  0.00    -0.296 OA
ATOM     19  C   LIG    1       -3.513  -0.577   0.733  0.00  0.00    +0.076 C 
ATOM     20  C   LIG    1       -4.379   0.633   0.495  0.00  0.00    +0.015 C 
ATOM     21  C   LIG    1       -3.797   1.488  -0.620  0.00  0.00    +0.076 C 
ATOM     22  C   LIG    1       -2.532   0.880  -1.059  0.00  0.00    +0.151 C 
ATOM     23  O   LIG    1       -2.398   0.565  -2.195  0.00  0.00    -0.296 OA
ENDBRANCH  14  16
ENDBRANCH   1  14
TORSDOF 4
