REMARK  Name = molecules/OUDSBRTVNLOZBN-UHFFFAOYSA-N.pdb
REMARK                            x       y       z     vdW  Elec       q    Type
REMARK                         _______ _______ _______ _____ _____    ______ ____
ROOT
ATOM      1  N   LIG    1        0.701   1.116   0.128  0.00  0.00    -0.168 N 
ATOM      2  H   LIG    1        0.604   0.910   1.139  0.00  0.00    +0.178 HD
ATOM      3  C   LIG    1       -0.390   0.714  -0.717  0.00  0.00    +0.333 C 
ATOM      4  N   LIG    1       -1.530   0.046  -0.136  0.00  0.00    -0.231 N 
ATOM      5  H   LIG    1       -2.139   0.104  -1.345  0.00  0.00    +0.171 HD
ATOM      6  O   LIG    1       -0.337   0.938  -1.934  0.00  0.00    -0.250 OA
ENDROOT
BRANCH   4   7
ATOM      7  N   LIG    1       -2.514  -0.528   0.359  0.00  0.00    -0.226 NA
ATOM      8  C   LIG    1       -3.230  -0.040   1.492  0.00  0.00    +0.105 C 
ATOM      9  C   LIG    1       -4.234   1.017   1.025  0.00  0.00    +0.017 C 
ATOM     10  C   LIG    1       -5.470   0.307   0.573  0.00  0.00    +0.001 C 
ATOM     11  C   LIG    1       -5.142  -0.580  -0.606  0.00  0.00    +0.001 C 
ATOM     12  C   LIG    1       -4.495  -1.829  -0.062  0.00  0.00    +0.017 C 
ATOM     13  C   LIG    1       -3.010  -1.798  -0.126  0.00  0.00    +0.105 C 
ENDBRANCH   4   7
BRANCH   1  14
ATOM     14  S   LIG    1        2.052   1.897  -0.585  0.00  0.00    +0.076 S 
ATOM     15  O   LIG    1        2.157   3.292  -0.075  0.00  0.00    -0.150 OA
ATOM     16  O   LIG    1        1.873   1.897  -2.091  0.00  0.00    -0.150 OA
BRANCH  14  17
ATOM     17  C   LIG    1        3.532   1.073  -0.237  0.00  0.00    +0.109 A 
ATOM     18  C   LIG    1        4.371   1.418   0.791  0.00  0.00    +0.029 A 
ATOM     19  C   LIG    1        5.542   0.769   1.076  0.00  0.00    +0.005 A 
ATOM     20  C   LIG    1        5.970  -0.325   0.314  0.00  0.00    -0.050 A 
ATOM     21  C   LIG    1        7.229  -1.021   0.623  0.00  0.00    +0.044 C 
ATOM     22  C   LIG    1        5.124  -0.664  -0.716  0.00  0.00    +0.005 A 
ATOM     23  C   LIG    1        3.960  -0.022  -1.004  0.00  0.00    +0.029 A 
ENDBRANCH  14  17
ENDBRANCH   1  14
TORSDOF 3
