REMARK  Name = molecules/OUJTZYPIHDYQMC-LJQANCHMSA-N.pdb
REMARK                            x       y       z     vdW  Elec       q    Type
REMARK                         _______ _______ _______ _____ _____    ______ ____
ROOT
ATOM      1  C   LIG    1       -1.133   0.156  -0.482  0.00  0.00    +0.166 C 
ENDROOT
BRANCH   1   2
ATOM      2  C   LIG    1       -2.112  -0.757   0.170  0.00  0.00    -0.007 A 
ATOM      3  C   LIG    1       -3.261  -0.332   0.814  0.00  0.00    +0.007 A 
ATOM      4  C   LIG    1       -4.160  -1.179   1.429  0.00  0.00    +0.000 A 
ATOM      5  C   LIG    1       -3.933  -2.525   1.420  0.00  0.00    +0.000 A 
ATOM      6  C   LIG    1       -2.804  -2.981   0.790  0.00  0.00    +0.000 A 
ATOM      7  C   LIG    1       -1.907  -2.136   0.177  0.00  0.00    +0.007 A 
ENDBRANCH   1   2
BRANCH   1   8
ATOM      8  C   LIG    1       -1.869   1.487  -0.565  0.00  0.00    -0.007 A 
ATOM      9  C   LIG    1       -1.449   2.649  -0.048  0.00  0.00    +0.007 A 
ATOM     10  C   LIG    1       -2.250   3.786  -0.244  0.00  0.00    +0.000 A 
ATOM     11  C   LIG    1       -3.425   3.683  -0.951  0.00  0.00    +0.000 A 
ATOM     12  C   LIG    1       -3.866   2.491  -1.488  0.00  0.00    +0.000 A 
ATOM     13  C   LIG    1       -3.071   1.385  -1.288  0.00  0.00    +0.007 A 
ENDBRANCH   1   8
BRANCH   1  14
ATOM     14  O   LIG    1       -0.841  -0.038  -1.758  0.00  0.00    -0.363 OA
ATOM     15  C   LIG    1       -0.191  -0.922  -2.421  0.00  0.00    +0.195 C 
ENDBRANCH   1  14
BRANCH   1  16
ATOM     16  C   LIG    1       -0.002   0.322   0.482  0.00  0.00    +0.325 C 
BRANCH  16  17
ATOM     17  C   LIG    1       -0.516   0.223   1.874  0.00  0.00    +0.350 C 
ATOM     18  O   LIG    1       -1.311   1.057   2.335  0.00  0.00    -0.247 OA
BRANCH  17  19
ATOM     19  O   LIG    1       -0.157  -0.795   2.766  0.00  0.00    -0.478 OA
ATOM     20  H   LIG    1       -0.639  -1.684   2.791  0.00  0.00    +0.295 HD
ENDBRANCH  17  19
ENDBRANCH  16  17
BRANCH  16  21
ATOM     21  O   LIG    1        0.892  -0.821   0.416  0.00  0.00    -0.444 OA
BRANCH  21  22
ATOM     22  C   LIG    1        2.255  -0.674   0.285  0.00  0.00    +0.319 A 
ATOM     23  N   LIG    1        3.064  -1.724   0.226  0.00  0.00    -0.200 NA
ATOM     24  C   LIG    1        4.410  -1.602   0.096  0.00  0.00    +0.045 A 
ATOM     25  C   LIG    1        5.274  -2.809   0.034  0.00  0.00    +0.066 C 
ATOM     26  C   LIG    1        4.960  -0.340   0.022  0.00  0.00    +0.046 A 
ATOM     27  C   LIG    1        4.120   0.754   0.084  0.00  0.00    +0.045 A 
ATOM     28  C   LIG    1        4.680   2.128   0.008  0.00  0.00    +0.066 C 
ATOM     29  N   LIG    1        2.774   0.559   0.215  0.00  0.00    -0.200 NA
ENDBRANCH  21  22
ENDBRANCH  16  21
ENDBRANCH   1  16
TORSDOF 8
