REMARK  Name = molecules/OURRXQUGYQRVML-AREMUKBSSA-N.pdb
REMARK                            x       y       z     vdW  Elec       q    Type
REMARK                         _______ _______ _______ _____ _____    ______ ____
ROOT
ATOM      1  C   LIG    1        1.816   2.098   0.222  0.00  0.00    +0.119 C 
ENDROOT
BRANCH   1   2
ATOM      2  C   LIG    1        0.755   1.044   0.209  0.00  0.00    -0.034 A 
ATOM      3  C   LIG    1       -0.581   1.431   0.388  0.00  0.00    +0.005 A 
ATOM      4  C   LIG    1       -1.588   0.496   0.397  0.00  0.00    +0.007 A 
ATOM      5  C   LIG    1       -1.354  -0.853   0.234  0.00  0.00    -0.010 A 
ATOM      6  C   LIG    1       -0.035  -1.211   0.060  0.00  0.00    +0.007 A 
ATOM      7  C   LIG    1        0.993  -0.295   0.046  0.00  0.00    +0.005 A 
BRANCH   5   8
ATOM      8  C   LIG    1       -2.397  -1.898   0.233  0.00  0.00    +0.268 C 
BRANCH   8   9
ATOM      9  O   LIG    1       -3.708  -1.431   0.221  0.00  0.00    -0.456 OA
BRANCH   9  10
ATOM     10  C   LIG    1       -4.300  -0.656  -0.732  0.00  0.00    +0.340 C 
ATOM     11  O   LIG    1       -3.605  -0.312  -1.723  0.00  0.00    -0.245 OA
BRANCH  10  12
ATOM     12  C   LIG    1       -5.686  -0.194  -0.691  0.00  0.00    +0.062 A 
ATOM     13  C   LIG    1       -6.556  -0.521   0.327  0.00  0.00    -0.036 A 
ATOM     14  C   LIG    1       -6.047  -1.393   1.424  0.00  0.00    +0.044 C 
ATOM     15  C   LIG    1       -7.878  -0.066   0.344  0.00  0.00    +0.007 A 
ATOM     16  C   LIG    1       -8.368   0.734  -0.663  0.00  0.00    -0.050 A 
ATOM     17  C   LIG    1       -9.767   1.233  -0.675  0.00  0.00    +0.044 C 
ATOM     18  C   LIG    1       -7.498   1.064  -1.686  0.00  0.00    +0.004 A 
ATOM     19  C   LIG    1       -6.192   0.614  -1.701  0.00  0.00    +0.015 A 
ENDBRANCH  10  12
ENDBRANCH   9  10
ENDBRANCH   8   9
ENDBRANCH   5   8
ENDBRANCH   1   2
BRANCH   1  22
ATOM     20  N   LIG    1        3.947   0.770   0.245  0.00  0.00    -0.285 N 
ATOM     21  H   LIG    1        3.615   0.380   1.182  0.00  0.00    +0.155 HD
ATOM     22  C   LIG    1        3.091   1.698  -0.361  0.00  0.00    +0.226 C 
ATOM     23  O   LIG    1        3.411   2.228  -1.454  0.00  0.00    -0.275 OA
BRANCH  20  30
ATOM     24  C   LIG    1        7.670  -0.772  -0.971  0.00  0.00    +0.000 A 
ATOM     25  C   LIG    1        7.030  -1.271   0.131  0.00  0.00    -0.013 A 
ATOM     26  C   LIG    1        7.631  -2.299   0.846  0.00  0.00    +0.028 A 
ATOM     27  C   LIG    1        8.854  -2.813   0.456  0.00  0.00    +0.111 A 
ATOM     28  N   LIG    1        9.453  -2.307  -0.620  0.00  0.00    -0.263 NA
ATOM     29  C   LIG    1        5.821  -0.737   0.490  0.00  0.00    +0.032 A 
ATOM     30  C   LIG    1        5.190   0.299  -0.205  0.00  0.00    +0.034 A 
ATOM     31  C   LIG    1        5.852   0.776  -1.299  0.00  0.00    +0.024 A 
ATOM     32  C   LIG    1        8.899  -1.301  -1.347  0.00  0.00    +0.119 A 
ATOM     33  C   LIG    1        7.092   0.240  -1.683  0.00  0.00    +0.012 A 
ENDBRANCH  20  30
ENDBRANCH   1  22
BRANCH   1  34
ATOM     34  C   LIG    1        2.059   2.419   1.714  0.00  0.00    +0.095 C 
BRANCH  34  35
ATOM     35  N   LIG    1        3.018   3.489   1.785  0.00  0.00    -0.329 NA
ATOM     36  H   LIG    1        2.536   4.408   1.633  0.00  0.00    +0.118 HD
ATOM     37  H   LIG    1        3.752   3.393   1.053  0.00  0.00    +0.118 HD
ENDBRANCH  34  35
ENDBRANCH   1  34
TORSDOF 9
