REMARK  Name = molecules/OVJJILSKYWXGBM-GFCCVEGCSA-N.pdb
REMARK                            x       y       z     vdW  Elec       q    Type
REMARK                         _______ _______ _______ _____ _____    ______ ____
ROOT
ATOM      1  C   LIG    1        1.734  -1.446  -0.553  0.00  0.00    +0.191 C 
ENDROOT
BRANCH   1   2
ATOM      2  C   LIG    1        3.027  -0.810  -0.254  0.00  0.00    -0.020 A 
ATOM      3  C   LIG    1        3.988  -1.573   0.387  0.00  0.00    +0.006 A 
ATOM      4  C   LIG    1        5.230  -1.074   0.711  0.00  0.00    +0.000 A 
ATOM      5  C   LIG    1        5.565   0.229   0.402  0.00  0.00    +0.000 A 
ATOM      6  C   LIG    1        4.621   0.998  -0.234  0.00  0.00    +0.000 A 
ATOM      7  C   LIG    1        3.371   0.487  -0.557  0.00  0.00    +0.006 A 
ENDBRANCH   1   2
BRANCH   1   8
ATOM      8  N   LIG    1        1.341  -2.160   0.664  0.00  0.00    -0.315 NA
ATOM      9  H   LIG    1        1.615  -1.546   1.463  0.00  0.00    +0.119 HD
ATOM     10  H   LIG    1        0.351  -2.434   0.666  0.00  0.00    +0.119 HD
ENDBRANCH   1   8
BRANCH   1  11
ATOM     11  C   LIG    1        0.670  -0.514  -0.944  0.00  0.00    +0.329 C 
ATOM     12  O   LIG    1        0.705   0.216  -1.961  0.00  0.00    -0.249 OA
BRANCH  11  13
ATOM     13  O   LIG    1       -0.460  -0.414  -0.155  0.00  0.00    -0.463 OA
BRANCH  13  14
ATOM     14  C   LIG    1       -1.522   0.483  -0.501  0.00  0.00    +0.232 C 
BRANCH  14  15
ATOM     15  C   LIG    1       -2.576   0.321   0.580  0.00  0.00    +0.044 C 
BRANCH  15  16
ATOM     16  C   LIG    1       -3.765   1.215   0.341  0.00  0.00    -0.014 C 
ATOM     17  C   LIG    1       -4.787   0.929   1.414  0.00  0.00    +0.007 C 
ATOM     18  C   LIG    1       -4.423   0.892  -0.998  0.00  0.00    +0.007 C 
ENDBRANCH  15  16
ENDBRANCH  14  15
ENDBRANCH  13  14
ENDBRANCH  11  13
ENDBRANCH   1  11
TORSDOF 7
