REMARK  Name = molecules/OVRNDRQMDRJTHS-FMDGEEDCSA-N.pdb
REMARK                            x       y       z     vdW  Elec       q    Type
REMARK                         _______ _______ _______ _____ _____    ______ ____
ROOT
ATOM      1  C   LIG    1        2.118  -0.381  -0.071  0.00  0.00    +0.178 C 
ATOM      2  O   LIG    1        1.295  -1.036   0.826  0.00  0.00    -0.341 OA
ATOM      3  C   LIG    1        0.064  -1.378   0.277  0.00  0.00    +0.270 C 
ATOM      4  C   LIG    1       -0.668  -0.074  -0.047  0.00  0.00    +0.160 C 
ATOM      5  C   LIG    1        0.155   0.607  -1.108  0.00  0.00    +0.171 C 
ATOM      6  C   LIG    1        1.476   0.951  -0.420  0.00  0.00    +0.176 C 
ENDROOT
BRANCH   4   7
ATOM      7  N   LIG    1       -2.030  -0.277  -0.398  0.00  0.00    -0.305 N 
ATOM      8  C   LIG    1       -3.107   0.264   0.393  0.00  0.00    +0.210 C 
ATOM      9  O   LIG    1       -2.841   0.936   1.426  0.00  0.00    -0.276 OA
ATOM     10  C   LIG    1       -4.518   0.062   0.041  0.00  0.00    +0.109 C 
ATOM     11  H   LIG    1       -2.297  -0.824  -1.241  0.00  0.00    +0.149 HD
ENDBRANCH   4   7
BRANCH   3  12
ATOM     12  O   LIG    1       -0.645  -2.152   1.164  0.00  0.00    -0.365 OA
ATOM     13  H   LIG    1       -0.010  -2.540   1.813  0.00  0.00    +0.213 HD
ENDBRANCH   3  12
BRANCH   5  14
ATOM     14  O   LIG    1       -0.408   1.777  -1.571  0.00  0.00    -0.387 OA
ATOM     15  H   LIG    1       -1.039   2.197  -0.940  0.00  0.00    +0.210 HD
ENDBRANCH   5  14
BRANCH   6  16
ATOM     16  O   LIG    1        2.272   1.751  -1.198  0.00  0.00    -0.387 OA
ATOM     17  H   LIG    1        1.689   2.447  -1.607  0.00  0.00    +0.210 HD
ENDBRANCH   6  16
BRANCH   1  18
ATOM     18  C   LIG    1        3.419  -0.064   0.632  0.00  0.00    +0.190 C 
BRANCH  18  19
ATOM     19  O   LIG    1        4.004  -1.253   1.050  0.00  0.00    -0.392 OA
ATOM     20  H   LIG    1        4.830  -1.116   1.557  0.00  0.00    +0.210 HD
ENDBRANCH  18  19
ENDBRANCH   1  18
TORSDOF 6
