REMARK  Name = molecules/OVTCHWSLKGENKP-UHFFFAOYSA-N.pdb
REMARK                            x       y       z     vdW  Elec       q    Type
REMARK                         _______ _______ _______ _____ _____    ______ ____
ROOT
ATOM      1  C   LIG    1        1.541  -0.787   0.423  0.00  0.00    +0.124 A 
ATOM      2  C   LIG    1        2.868  -0.724   0.117  0.00  0.00    +0.059 A 
ATOM      3  C   LIG    1        3.356   0.141  -0.822  0.00  0.00    +0.119 A 
ATOM      4  C   LIG    1        2.488   0.977  -1.481  0.00  0.00    +0.030 A 
ATOM      5  C   LIG    1        1.125   0.923  -1.177  0.00  0.00    +0.009 A 
ATOM      6  C   LIG    1        0.642   0.058  -0.240  0.00  0.00    +0.001 A 
ENDROOT
BRANCH   1   7
ATOM      7  S   LIG    1        0.919  -1.894   1.635  0.00  0.00    +0.110 S 
ATOM      8  O   LIG    1        0.293  -1.094   2.725  0.00  0.00    -0.142 OA
ATOM      9  O   LIG    1       -0.055  -2.881   1.065  0.00  0.00    -0.142 OA
BRANCH   7  10
ATOM     10  O   LIG    1        2.221  -2.778   2.229  0.00  0.00    -0.250 OA
ATOM     11  H   LIG    1        1.910  -3.682   2.526  0.00  0.00    +0.245 HD
ENDBRANCH   7  10
ENDBRANCH   1   7
BRANCH   3  12
ATOM     12  S   LIG    1        5.056   0.223  -1.215  0.00  0.00    +0.110 S 
ATOM     13  O   LIG    1        5.707  -1.120  -1.153  0.00  0.00    -0.142 OA
ATOM     14  O   LIG    1        5.192   0.701  -2.651  0.00  0.00    -0.142 OA
BRANCH  12  15
ATOM     15  O   LIG    1        5.873   1.330  -0.257  0.00  0.00    -0.250 OA
ATOM     16  H   LIG    1        5.186   1.857   0.228  0.00  0.00    +0.245 HD
ENDBRANCH  12  15
ENDBRANCH   3  12
BRANCH   6  17
ATOM     17  C   LIG    1       -0.760  -0.042   0.105  0.00  0.00    +0.144 C 
BRANCH  17  18
ATOM     18  N   LIG    1       -1.700   0.623  -0.371  0.00  0.00    -0.139 NA
ATOM     19  O   LIG    1       -1.495   1.587  -1.344  0.00  0.00    -0.118 OA
BRANCH  18  20
ATOM     20  C   LIG    1       -3.090   0.442   0.052  0.00  0.00    +0.042 C 
ATOM     21  C   LIG    1       -3.160  -0.584   1.132  0.00  0.00    +0.030 C 
ATOM     22  C   LIG    1       -3.561   1.804   0.523  0.00  0.00    +0.030 C 
ATOM     23  C   LIG    1       -3.847   0.020  -1.199  0.00  0.00    +0.030 C 
ENDBRANCH  18  20
ENDBRANCH  17  18
ENDBRANCH   6  17
TORSDOF 7
