REMARK  Name = molecules/OWMZNFCDEHGFEP-NFBCVYDUSA-N.pdb
REMARK                            x       y       z     vdW  Elec       q    Type
REMARK                         _______ _______ _______ _____ _____    ______ ____
ROOT
ATOM      1  C   LIG    1      -12.147 -22.834   0.000  0.00  0.00    +0.063 A 
ATOM      2  C   LIG    1      -11.537 -24.204   0.000  0.00  0.00    +0.135 A 
ATOM      3  N   LIG    1      -12.652 -25.208   0.000  0.00  0.00    -0.242 NA
ATOM      4  C   LIG    1      -13.951 -24.458   0.000  0.00  0.00    +0.221 A 
ATOM      5  N   LIG    1      -13.639 -22.990   0.000  0.00  0.00    -0.239 NA
ENDROOT
BRANCH   1   6
ATOM      6  C   LIG    1      -11.397 -21.535   0.000  0.00  0.00    +0.080 C 
BRANCH   6   8
ATOM      7  N   LIG    1      -11.946 -19.486   0.000  0.00  0.00    -0.138 NA
ATOM      8  C   LIG    1      -10.647 -20.236   0.000  0.00  0.00    +0.119 C 
ENDBRANCH   6   8
ENDBRANCH   1   6
TORSDOF 2
REMARK  Name = molecules/OWMZNFCDEHGFEP-NFBCVYDUSA-N.pdb
REMARK                            x       y       z     vdW  Elec       q    Type
REMARK                         _______ _______ _______ _____ _____    ______ ____
ROOT
ATOM      1  C   LIG    1       -3.750 -18.387   0.000  0.00  0.00    +0.217 C 
ENDROOT
BRANCH   1   2
ATOM      2  C   LIG    1       -4.500 -19.686   0.000  0.00  0.00    +0.063 C 
ATOM      3  C   LIG    1       -5.250 -20.986   0.000  0.00  0.00    +0.224 C 
ATOM      4  O   LIG    1       -4.500 -22.285   0.000  0.00  0.00    -0.284 OA
ENDBRANCH   1   2
BRANCH   1   6
ATOM      5  C   LIG    1       -6.348 -18.387   0.000  0.00  0.00    +0.082 C 
ATOM      6  N   LIG    1       -5.049 -17.637   0.000  0.00  0.00    -0.268 NA
BRANCH   5   8
ATOM      7  N   LIG    1       -8.397 -18.936   0.000  0.00  0.00    -0.130 NA
ATOM      8  CA  LIG    1       -7.647 -17.637   0.000  0.00  0.00    +0.177 C 
BRANCH   8   9
ATOM      9  C   LIG    1       -8.946 -16.887   0.000  0.00  0.00    +0.216 C 
ATOM     10  O   LIG    1      -10.245 -16.137   0.000  0.00  0.00    -0.226 OA
ENDBRANCH   8   9
ENDBRANCH   5   8
ENDBRANCH   1   6
BRANCH   1  11
ATOM     11  C   LIG    1       -3.000 -17.088   0.000  0.00  0.00    +0.212 C 
ATOM     12  N   LIG    1       -1.500 -17.088   0.000  0.00  0.00    -0.251 NA
BRANCH  11  13
ATOM     13  O   LIG    1       -3.750 -15.789   0.000  0.00  0.00    -0.494 OA
ATOM     14  H   LIG    1       -5.049 -16.137   0.000  0.00  0.00    +0.293 HD
ENDBRANCH  11  13
BRANCH  12  15
ATOM     15  C   LIG    1       -0.750 -15.789   0.000  0.00  0.00    +0.174 C 
BRANCH  15  16
ATOM     16  C   LIG    1        0.000 -14.490   0.000  0.00  0.00    +0.124 C 
ATOM     17  N   LIG    1        1.500 -14.490   0.000  0.00  0.00    -0.130 NA
ENDBRANCH  15  16
ENDBRANCH  12  15
ENDBRANCH   1  11
TORSDOF 8
REMARK  Name = molecules/OWMZNFCDEHGFEP-NFBCVYDUSA-N.pdb
REMARK                            x       y       z     vdW  Elec       q    Type
REMARK                         _______ _______ _______ _____ _____    ______ ____
ROOT
ATOM      1  N   LIG    1        4.848 -13.191   0.000  0.00  0.00    -0.166 NA
ATOM      2  C   LIG    1        4.152 -12.093   0.000  0.00  0.00    +0.166 C 
ENDROOT
TORSDOF 0
REMARK  Name = molecules/OWMZNFCDEHGFEP-NFBCVYDUSA-N.pdb
REMARK                            x       y       z     vdW  Elec       q    Type
REMARK                         _______ _______ _______ _____ _____    ______ ____
ROOT
ATOM      1  N   LIG    1        6.147 -11.343   0.000  0.00  0.00    +0.000 NA
ENDROOT
TORSDOF 0
REMARK  Name = molecules/OWMZNFCDEHGFEP-NFBCVYDUSA-N.pdb
REMARK                            x       y       z     vdW  Elec       q    Type
REMARK                         _______ _______ _______ _____ _____    ______ ____
ROOT
ATOM      1  N   LIG    1        5.598  -7.794   0.000  0.00  0.00    -0.291 N 
ATOM      2  C   LIG    1        4.902  -8.196   0.000  0.00  0.00    +0.117 C 
ATOM      3  H   LIG    1        5.203  -6.911   0.000  0.00  0.00    +0.157 HD
ENDROOT
BRANCH   1   4
ATOM      4  C   LIG    1        6.201  -7.446   0.000  0.00  0.00    +0.010 C 
ATOM      5  C   LIG    1        6.897  -7.044   0.000  0.00  0.00    +0.007 C 
ENDBRANCH   1   4
TORSDOF 1
REMARK  Name = molecules/OWMZNFCDEHGFEP-NFBCVYDUSA-N.pdb
REMARK                            x       y       z     vdW  Elec       q    Type
REMARK                         _______ _______ _______ _____ _____    ______ ____
ROOT
ATOM      1  N   LIG    1        9.147  -8.343   0.000  0.00  0.00    -0.163 NA
ATOM      2  H   LIG    1        9.841  -8.525   0.000  0.00  0.00    +0.163 HD
ENDROOT
TORSDOF 0
REMARK  Name = molecules/OWMZNFCDEHGFEP-NFBCVYDUSA-N.pdb
REMARK                            x       y       z     vdW  Elec       q    Type
REMARK                         _______ _______ _______ _____ _____    ______ ____
ROOT
ATOM      1  N   LIG    1        8.598 -11.892   0.000  0.00  0.00    -0.304 NA
ATOM      2  C   LIG    1        9.495 -11.544   0.000  0.00  0.00    +0.096 C 
ATOM      3  C   LIG    1        8.196 -10.794   0.000  0.00  0.00    +0.085 C 
ATOM      4  H   LIG    1        7.667 -11.911   0.000  0.00  0.00    +0.123 HD
ENDROOT
TORSDOF 0
REMARK  Name = molecules/OWMZNFCDEHGFEP-NFBCVYDUSA-N.pdb
REMARK                            x       y       z     vdW  Elec       q    Type
REMARK                         _______ _______ _______ _____ _____    ______ ____
ROOT
ATOM      1  N   LIG    1        7.299 -10.044   0.000  0.00  0.00    -0.163 NA
ATOM      2  H   LIG    1        7.863  -9.652   0.000  0.00  0.00    +0.163 HD
ENDROOT
TORSDOF 0
REMARK  Name = molecules/OWMZNFCDEHGFEP-NFBCVYDUSA-N.pdb
REMARK                            x       y       z     vdW  Elec       q    Type
REMARK                         _______ _______ _______ _____ _____    ______ ____
ROOT
ATOM      1  N   LIG    1        3.951  -8.745   0.000  0.00  0.00    -0.163 NA
ATOM      2  H   LIG    1        4.701  -8.544   0.000  0.00  0.00    +0.163 HD
ENDROOT
TORSDOF 0
REMARK  Name = molecules/OWMZNFCDEHGFEP-NFBCVYDUSA-N.pdb
REMARK                            x       y       z     vdW  Elec       q    Type
REMARK                         _______ _______ _______ _____ _____    ______ ____
ROOT
ATOM      1  N   LIG    1        0.402  -8.196   0.000  0.00  0.00    -0.158 NA
ATOM      2  C   LIG    1        1.353  -8.745   0.000  0.00  0.00    +0.050 C 
ATOM      3  C   LIG    1        2.304  -9.696   0.000  0.00  0.00    +0.054 C 
ATOM      4  C   LIG    1        1.902  -8.196   0.000  0.00  0.00    +0.054 C 
ENDROOT
TORSDOF 0
REMARK  Name = molecules/OWMZNFCDEHGFEP-NFBCVYDUSA-N.pdb
REMARK                            x       y       z     vdW  Elec       q    Type
REMARK                         _______ _______ _______ _____ _____    ______ ____
ROOT
ATOM      1  N   LIG    1        0.951  -4.647   0.000  0.00  0.00    -0.137 NA
ATOM      2  C   LIG    1        2.250  -3.897   0.000  0.00  0.00    +0.122 C 
ATOM      3  C   LIG    1        3.402  -3.000   0.000  0.00  0.00    +0.016 C 
ENDROOT
TORSDOF 0
REMARK  Name = molecules/OWMZNFCDEHGFEP-NFBCVYDUSA-N.pdb
REMARK                            x       y       z     vdW  Elec       q    Type
REMARK                         _______ _______ _______ _____ _____    ______ ____
ROOT
ATOM      1  N   LIG    1        4.500  -5.196   0.000  0.00  0.00    -0.163 NA
ATOM      2  H   LIG    1        3.942  -4.809   0.000  0.00  0.00    +0.163 HD
ENDROOT
TORSDOF 0
REMARK  Name = molecules/OWMZNFCDEHGFEP-NFBCVYDUSA-N.pdb
REMARK                            x       y       z     vdW  Elec       q    Type
REMARK                         _______ _______ _______ _____ _____    ______ ____
ROOT
ATOM      1  N   LIG    1        7.848  -6.495   0.000  0.00  0.00    -0.163 NA
ATOM      2  H   LIG    1        7.098  -6.696   0.000  0.00  0.00    +0.163 HD
ENDROOT
TORSDOF 0
REMARK  Name = molecules/OWMZNFCDEHGFEP-NFBCVYDUSA-N.pdb
REMARK                            x       y       z     vdW  Elec       q    Type
REMARK                         _______ _______ _______ _____ _____    ______ ____
ROOT
ATOM      1  N   LIG    1       11.745  -5.745   0.000  0.00  0.00    +0.000 NA
ENDROOT
TORSDOF 0
REMARK  Name = molecules/OWMZNFCDEHGFEP-NFBCVYDUSA-N.pdb
REMARK                            x       y       z     vdW  Elec       q    Type
REMARK                         _______ _______ _______ _____ _____    ______ ____
ROOT
ATOM      1  N   LIG    1       13.044  -2.397   0.000  0.00  0.00    -0.163 NA
ATOM      2  H   LIG    1       12.879  -3.114   0.000  0.00  0.00    +0.163 HD
ENDROOT
TORSDOF 0
REMARK  Name = molecules/OWMZNFCDEHGFEP-NFBCVYDUSA-N.pdb
REMARK                            x       y       z     vdW  Elec       q    Type
REMARK                         _______ _______ _______ _____ _____    ______ ____
ROOT
ATOM      1  C   LIG    1       10.647  -2.049   0.000  0.00  0.00    +0.272 C 
ENDROOT
BRANCH   1   2
ATOM      2  N   LIG    1       10.995  -3.348   0.000  0.00  0.00    -0.214 NA
ATOM      3  H   LIG    1       11.644  -4.494   0.000  0.00  0.00    +0.144 HD
ENDBRANCH   1   2
BRANCH   1   4
ATOM      4  O   LIG    1        9.348  -2.799   0.000  0.00  0.00    -0.170 OA
ATOM      5  O   LIG    1        9.586  -3.767   0.000  0.00  0.00    -0.033 OA
ENDBRANCH   1   4
TORSDOF 2
REMARK  Name = molecules/OWMZNFCDEHGFEP-NFBCVYDUSA-N.pdb
REMARK                            x       y       z     vdW  Elec       q    Type
REMARK                         _______ _______ _______ _____ _____    ______ ____
ROOT
ATOM      1  N   LIG    1        9.696  -1.500   0.000  0.00  0.00    +0.038 NA
ATOM      2  O   LIG    1       10.051  -0.682   0.000  0.00  0.00    -0.278 OA
ATOM      3  H   LIG    1       10.811  -0.496   0.000  0.00  0.00    +0.240 HD
ENDROOT
TORSDOF 0
REMARK  Name = molecules/OWMZNFCDEHGFEP-NFBCVYDUSA-N.pdb
REMARK                            x       y       z     vdW  Elec       q    Type
REMARK                         _______ _______ _______ _____ _____    ______ ____
ROOT
ATOM      1  N   LIG    1        6.348  -0.201   0.000  0.00  0.00    +0.000 NA
ENDROOT
TORSDOF 0
REMARK  Name = molecules/OWMZNFCDEHGFEP-NFBCVYDUSA-N.pdb
REMARK                            x       y       z     vdW  Elec       q    Type
REMARK                         _______ _______ _______ _____ _____    ______ ____
ROOT
ATOM      1  N   LIG    1        7.299  -2.250   0.000  0.00  0.00    -0.136 NA
ATOM      2  C   LIG    1        7.647  -0.951   0.000  0.00  0.00    +0.136 C 
ENDROOT
TORSDOF 0
REMARK  Name = molecules/OWMZNFCDEHGFEP-NFBCVYDUSA-N.pdb
REMARK                            x       y       z     vdW  Elec       q    Type
REMARK                         _______ _______ _______ _____ _____    ______ ____
ROOT
ATOM      1  N   LIG    1        5.451  -3.549   0.000  0.00  0.00    +0.138 NA
ATOM      2  O   LIG    1        6.186  -4.290   0.000  0.00  0.00    -0.059 OA
ATOM      3  O   LIG    1        5.397  -4.446   0.000  0.00  0.00    -0.059 OA
ENDROOT
BRANCH   1   4
ATOM      4  O   LIG    1        4.633  -3.194   0.000  0.00  0.00    -0.261 OA
ATOM      5  H   LIG    1        4.701  -2.250   0.000  0.00  0.00    +0.242 HD
ENDBRANCH   1   4
TORSDOF 1
REMARK  Name = molecules/OWMZNFCDEHGFEP-NFBCVYDUSA-N.pdb
REMARK                            x       y       z     vdW  Elec       q    Type
REMARK                         _______ _______ _______ _____ _____    ______ ____
ROOT
ATOM      1  N   LIG    1        4.152  -6.897   0.000  0.00  0.00    -0.163 NA
ATOM      2  H   LIG    1        4.099  -7.742   0.000  0.00  0.00    +0.163 HD
ENDROOT
TORSDOF 0
REMARK  Name = molecules/OWMZNFCDEHGFEP-NFBCVYDUSA-N.pdb
REMARK                            x       y       z     vdW  Elec       q    Type
REMARK                         _______ _______ _______ _____ _____    ______ ____
ROOT
ATOM      1  N   LIG    1        7.500  -8.196   0.000  0.00  0.00    -0.105 NA
ATOM      2  C   LIG    1        6.549  -8.745   0.000  0.00  0.00    +0.271 C 
ATOM      3  C   LIG    1        5.598  -9.294   0.000  0.00  0.00    +0.049 C 
ENDROOT
BRANCH   2   4
ATOM      4  O   LIG    1        6.897  -9.642   0.000  0.00  0.00    -0.180 OA
ATOM      5  O   LIG    1        7.519  -9.350   0.000  0.00  0.00    -0.034 OA
ENDBRANCH   2   4
TORSDOF 1
REMARK  Name = molecules/OWMZNFCDEHGFEP-NFBCVYDUSA-N.pdb
REMARK                            x       y       z     vdW  Elec       q    Type
REMARK                         _______ _______ _______ _____ _____    ______ ____
ROOT
ATOM      1  N   LIG    1       11.397  -7.446   0.000  0.00  0.00    -0.309 NA
ATOM      2  C   LIG    1       11.946  -7.995   0.000  0.00  0.00    +0.096 C 
ATOM      3  C   LIG    1       11.196  -6.696   0.000  0.00  0.00    +0.091 C 
ATOM      4  H   LIG    1       10.610  -7.511   0.000  0.00  0.00    +0.122 HD
ENDROOT
TORSDOF 0
REMARK  Name = molecules/OWMZNFCDEHGFEP-NFBCVYDUSA-N.pdb
REMARK                            x       y       z     vdW  Elec       q    Type
REMARK                         _______ _______ _______ _____ _____    ______ ____
ROOT
ATOM      1  N   LIG    1       12.696  -4.098   0.000  0.00  0.00    +0.000 NA
ENDROOT
TORSDOF 0
REMARK  Name = molecules/OWMZNFCDEHGFEP-NFBCVYDUSA-N.pdb
REMARK                            x       y       z     vdW  Elec       q    Type
REMARK                         _______ _______ _______ _____ _____    ______ ____
ROOT
ATOM      1  N   LIG    1       10.647  -5.049   0.000  0.00  0.00    +0.110 NA
ATOM      2  O   LIG    1       11.310  -4.828   0.000  0.00  0.00    -0.375 OA
ENDROOT
BRANCH   2   3
ATOM      3  C   LIG    1       11.946  -5.397   0.000  0.00  0.00    +0.221 C 
ATOM      4  C   LIG    1       12.495  -5.946   0.000  0.00  0.00    +0.043 C 
ENDBRANCH   2   3
TORSDOF 1
REMARK  Name = molecules/OWMZNFCDEHGFEP-NFBCVYDUSA-N.pdb
REMARK                            x       y       z     vdW  Elec       q    Type
REMARK                         _______ _______ _______ _____ _____    ______ ____
ROOT
ATOM      1  C   LIG    1       -9.897 -18.936   0.000  0.00  0.00    +0.000 C 
ENDROOT
TORSDOF 0
REMARK  Name = molecules/OWMZNFCDEHGFEP-NFBCVYDUSA-N.pdb
REMARK                            x       y       z     vdW  Elec       q    Type
REMARK                         _______ _______ _______ _____ _____    ______ ____
ROOT
ATOM      1  O   HOH    1      -10.647 -17.637   0.000  0.00  0.00    -0.410 OA
ATOM      2  H   HOH    0      -11.946 -17.986   0.000  0.00  0.00    +0.205 HD
ATOM      3  H   HOH    0       -9.988 -17.966   0.000  0.00  0.00    +0.205 HD
ENDROOT
TORSDOF 0
REMARK  Name = molecules/OWMZNFCDEHGFEP-NFBCVYDUSA-N.pdb
REMARK                            x       y       z     vdW  Elec       q    Type
REMARK                         _______ _______ _______ _____ _____    ______ ____
ROOT
ATOM      1  O   LIG    1       -6.348 -19.887   0.000  0.00  0.00    -0.253 OA
ATOM      2  H   LIG    1       -5.942 -19.273   0.000  0.00  0.00    +0.253 HD
ENDROOT
BRANCH   1   3
ATOM      3  O   LIG    1       -6.750 -20.986   0.000  0.00  0.00    -0.253 OA
ATOM      4  H   LIG    1       -7.647 -20.236   0.000  0.00  0.00    +0.253 HD
ENDBRANCH   1   3
TORSDOF 1
REMARK  Name = molecules/OWMZNFCDEHGFEP-NFBCVYDUSA-N.pdb
REMARK                            x       y       z     vdW  Elec       q    Type
REMARK                         _______ _______ _______ _____ _____    ______ ____
ROOT
ATOM      1  O   HOH    1       -1.042 -13.411   0.000  0.00  0.00    -0.410 OA
ATOM      2  H   HOH    0       -1.390 -12.770   0.000  0.00  0.00    +0.205 HD
ATOM      3  H   HOH    0       -0.091 -13.520   0.000  0.00  0.00    +0.205 HD
ENDROOT
TORSDOF 0
REMARK  Name = molecules/OWMZNFCDEHGFEP-NFBCVYDUSA-N.pdb
REMARK                            x       y       z     vdW  Elec       q    Type
REMARK                         _______ _______ _______ _____ _____    ______ ____
ROOT
ATOM      1  C   LIG    1        3.549 -13.941   0.000  0.00  0.00    +0.009 C 
ATOM      2  C   LIG    1        4.902 -13.392   0.000  0.00  0.00    -0.009 C 
ENDROOT
TORSDOF 0
REMARK  Name = molecules/OWMZNFCDEHGFEP-NFBCVYDUSA-N.pdb
REMARK                            x       y       z     vdW  Elec       q    Type
REMARK                         _______ _______ _______ _____ _____    ______ ____
ROOT
ATOM      1  O   LIG    1        1.701 -11.142   0.000  0.00  0.00    -0.246 OA
ATOM      2  C   LIG    1        1.005 -10.446   0.000  0.00  0.00    +0.204 C 
ATOM      3  N   LIG    1        1.005 -11.946   0.000  0.00  0.00    +0.042 NA
ENDROOT
TORSDOF 0
REMARK  Name = molecules/OWMZNFCDEHGFEP-NFBCVYDUSA-N.pdb
REMARK                            x       y       z     vdW  Elec       q    Type
REMARK                         _______ _______ _______ _____ _____    ______ ____
ROOT
ATOM      1  C   LIG    1        2.250 -13.191   0.000  0.00  0.00    +0.000 C 
ENDROOT
TORSDOF 0
REMARK  Name = molecules/OWMZNFCDEHGFEP-NFBCVYDUSA-N.pdb
REMARK                            x       y       z     vdW  Elec       q    Type
REMARK                         _______ _______ _______ _____ _____    ______ ____
ROOT
ATOM      1  C   LIG    1       -0.348 -11.691   0.000  0.00  0.00    -0.000 C 
ENDROOT
TORSDOF 0
REMARK  Name = molecules/OWMZNFCDEHGFEP-NFBCVYDUSA-N.pdb
REMARK                            x       y       z     vdW  Elec       q    Type
REMARK                         _______ _______ _______ _____ _____    ______ ____
ROOT
ATOM      1  C   LIG    1        0.951 -12.441   0.000  0.00  0.00    +0.000 C 
ENDROOT
TORSDOF 0
REMARK  Name = molecules/OWMZNFCDEHGFEP-NFBCVYDUSA-N.pdb
REMARK                            x       y       z     vdW  Elec       q    Type
REMARK                         _______ _______ _______ _____ _____    ______ ____
ROOT
ATOM      1  O   HOH    1        3.549 -15.441   0.000  0.00  0.00    -0.253 OA
ATOM      2  H   HOH    0        2.561 -15.159   0.000  0.00  0.00    +0.253 HD
ENDROOT
TORSDOF 0
REMARK  Name = molecules/OWMZNFCDEHGFEP-NFBCVYDUSA-N.pdb
REMARK                            x       y       z     vdW  Elec       q    Type
REMARK                         _______ _______ _______ _____ _____    ______ ____
ROOT
ATOM      1  C   LIG    1        6.897 -12.642   0.000  0.00  0.00    +0.000 C 
ENDROOT
TORSDOF 0
REMARK  Name = molecules/OWMZNFCDEHGFEP-NFBCVYDUSA-N.pdb
REMARK                            x       y       z     vdW  Elec       q    Type
REMARK                         _______ _______ _______ _____ _____    ______ ____
ROOT
ATOM      1  C   LIG    1        5.397 -15.240   0.000  0.00  0.00    +0.000 C 
ENDROOT
TORSDOF 0
REMARK  Name = molecules/OWMZNFCDEHGFEP-NFBCVYDUSA-N.pdb
REMARK                            x       y       z     vdW  Elec       q    Type
REMARK                         _______ _______ _______ _____ _____    ______ ____
ROOT
ATOM      1  C   LIG    1        4.647 -19.137   0.000  0.00  0.00    +0.019 C 
ENDROOT
BRANCH   1   3
ATOM      2  C   LIG    1        4.647 -16.539   0.000  0.00  0.00    -0.004 C 
ATOM      3  C   LIG    1        5.397 -17.838   0.000  0.00  0.00    +0.012 C 
ENDBRANCH   1   3
BRANCH   1   4
ATOM      4  C   LIG    1        3.147 -19.137   0.000  0.00  0.00    -0.023 C 
ATOM      5  C   LIG    1        2.397 -17.838   0.000  0.00  0.00    -0.004 C 
ENDBRANCH   1   4
TORSDOF 2
REMARK  Name = molecules/OWMZNFCDEHGFEP-NFBCVYDUSA-N.pdb
REMARK                            x       y       z     vdW  Elec       q    Type
REMARK                         _______ _______ _______ _____ _____    ______ ____
ROOT
ATOM      1  C   LIG    1        3.147 -16.539   0.000  0.00  0.00    +0.000 C 
ENDROOT
TORSDOF 0
REMARK  Name = molecules/OWMZNFCDEHGFEP-NFBCVYDUSA-N.pdb
REMARK                            x       y       z     vdW  Elec       q    Type
REMARK                         _______ _______ _______ _____ _____    ______ ____
ROOT
ATOM      1  C   LIG    1        6.147 -13.941   0.000  0.00  0.00    +0.136 C 
ATOM      2  N   LIG    1        5.652 -14.691   0.000  0.00  0.00    -0.136 NA
ENDROOT
TORSDOF 0
REMARK  Name = molecules/OWMZNFCDEHGFEP-NFBCVYDUSA-N.pdb
REMARK                            x       y       z     vdW  Elec       q    Type
REMARK                         _______ _______ _______ _____ _____    ______ ____
ROOT
ATOM      1  O   LIG    1        8.386 -12.825   0.000  0.00  0.00    -0.299 OA
ATOM      2  H   LIG    1        9.261 -13.026   0.000  0.00  0.00    +0.238 HD
ENDROOT
BRANCH   1   3
ATOM      3  N   LIG    1        7.902 -13.392   0.000  0.00  0.00    -0.115 NA
ATOM      4  H   LIG    1        7.589 -14.355   0.000  0.00  0.00    +0.176 HD
ENDBRANCH   1   3
TORSDOF 1
REMARK  Name = molecules/OWMZNFCDEHGFEP-NFBCVYDUSA-N.pdb
REMARK                            x       y       z     vdW  Elec       q    Type
REMARK                         _______ _______ _______ _____ _____    ______ ____
ROOT
ATOM      1  O   HOH    1        8.946  -9.495   0.000  0.00  0.00    -0.253 OA
ATOM      2  H   HOH    0        8.370  -9.758   0.000  0.00  0.00    +0.253 HD
ENDROOT
TORSDOF 0
REMARK  Name = molecules/OWMZNFCDEHGFEP-NFBCVYDUSA-N.pdb
REMARK                            x       y       z     vdW  Elec       q    Type
REMARK                         _______ _______ _______ _____ _____    ______ ____
ROOT
ATOM      1  C   LIG    1        6.897 -10.044   0.000  0.00  0.00    +0.000 C 
ENDROOT
TORSDOF 0
REMARK  Name = molecules/OWMZNFCDEHGFEP-NFBCVYDUSA-N.pdb
REMARK                            x       y       z     vdW  Elec       q    Type
REMARK                         _______ _______ _______ _____ _____    ______ ____
ROOT
ATOM      1  O   LIG    1        4.519 -10.336   0.000  0.00  0.00    -0.003 OA
ATOM      2  O   LIG    1        4.887 -10.951   0.000  0.00  0.00    -0.036 OA
ENDROOT
BRANCH   2   3
ATOM      3  O   LIG    1        5.094 -11.706   0.000  0.00  0.00    -0.218 OA
ATOM      4  H   LIG    1        5.651 -12.041   0.000  0.00  0.00    +0.256 HD
ENDBRANCH   2   3
TORSDOF 1
REMARK  Name = molecules/OWMZNFCDEHGFEP-NFBCVYDUSA-N.pdb
REMARK                            x       y       z     vdW  Elec       q    Type
REMARK                         _______ _______ _______ _____ _____    ______ ____
ROOT
ATOM      1  C   LIG    1        7.647  -8.343   0.000  0.00  0.00    +0.000 C 
ENDROOT
TORSDOF 0
REMARK  Name = molecules/OWMZNFCDEHGFEP-NFBCVYDUSA-N.pdb
REMARK                            x       y       z     vdW  Elec       q    Type
REMARK                         _______ _______ _______ _____ _____    ______ ____
ROOT
ATOM      1  C   LIG    1        6.147  -5.745   0.000  0.00  0.00    +0.000 C 
ENDROOT
TORSDOF 0
REMARK  Name = molecules/OWMZNFCDEHGFEP-NFBCVYDUSA-N.pdb
REMARK                            x       y       z     vdW  Elec       q    Type
REMARK                         _______ _______ _______ _____ _____    ______ ____
ROOT
ATOM      1  C   LIG    1        8.598 -10.392   0.000  0.00  0.00    +0.000 C 
ENDROOT
TORSDOF 0
REMARK  Name = molecules/OWMZNFCDEHGFEP-NFBCVYDUSA-N.pdb
REMARK                            x       y       z     vdW  Elec       q    Type
REMARK                         _______ _______ _______ _____ _____    ______ ____
ROOT
ATOM      1  C   LIG    1       11.196  -8.892   0.000  0.00  0.00    -0.000 C 
ENDROOT
TORSDOF 0
REMARK  Name = molecules/OWMZNFCDEHGFEP-NFBCVYDUSA-N.pdb
REMARK                            x       y       z     vdW  Elec       q    Type
REMARK                         _______ _______ _______ _____ _____    ______ ____
ROOT
ATOM      1  C   LIG    1       12.495  -8.142   0.000  0.00  0.00    +0.000 C 
ENDROOT
TORSDOF 0
REMARK  Name = molecules/OWMZNFCDEHGFEP-NFBCVYDUSA-N.pdb
REMARK                            x       y       z     vdW  Elec       q    Type
REMARK                         _______ _______ _______ _____ _____    ______ ____
ROOT
ATOM      1  C   LIG    1       13.794  -7.392   0.000  0.00  0.00    +0.000 C 
ENDROOT
TORSDOF 0
REMARK  Name = molecules/OWMZNFCDEHGFEP-NFBCVYDUSA-N.pdb
REMARK                            x       y       z     vdW  Elec       q    Type
REMARK                         _______ _______ _______ _____ _____    ______ ____
ROOT
ATOM      1  O   HOH    1       13.794  -5.892   0.000  0.00  0.00    +0.000 OA
ENDROOT
TORSDOF 0
REMARK  Name = molecules/OWMZNFCDEHGFEP-NFBCVYDUSA-N.pdb
REMARK                            x       y       z     vdW  Elec       q    Type
REMARK                         _______ _______ _______ _____ _____    ______ ____
ROOT
ATOM      1  O   LIG    1       15.175  -7.978   0.000  0.00  0.00    -0.379 OA
ATOM      2  C   LIG    1       15.495  -8.544   0.000  0.00  0.00    +0.169 C 
ATOM      3  H   LIG    1       14.745  -7.245   0.000  0.00  0.00    +0.211 HD
ENDROOT
TORSDOF 0
REMARK  Name = molecules/OWMZNFCDEHGFEP-NFBCVYDUSA-N.pdb
REMARK                            x       y       z     vdW  Elec       q    Type
REMARK                         _______ _______ _______ _____ _____    ______ ____
ROOT
ATOM      1  C   LIG    1        9.897  -9.642   0.000  0.00  0.00    +0.000 C 
ENDROOT
TORSDOF 0
REMARK  Name = molecules/OWMZNFCDEHGFEP-NFBCVYDUSA-N.pdb
REMARK                            x       y       z     vdW  Elec       q    Type
REMARK                         _______ _______ _______ _____ _____    ______ ____
ROOT
ATOM      1  C   LIG    1        6.549 -11.343   0.000  0.00  0.00    +0.000 C 
ENDROOT
TORSDOF 0
REMARK  Name = molecules/OWMZNFCDEHGFEP-NFBCVYDUSA-N.pdb
REMARK                            x       y       z     vdW  Elec       q    Type
REMARK                         _______ _______ _______ _____ _____    ______ ____
ROOT
ATOM      1  C   LIG    1        9.549 -16.539   0.000  0.00  0.00    +0.000 C 
ENDROOT
TORSDOF 0
REMARK  Name = molecules/OWMZNFCDEHGFEP-NFBCVYDUSA-N.pdb
REMARK                            x       y       z     vdW  Elec       q    Type
REMARK                         _______ _______ _______ _____ _____    ______ ____
ROOT
ATOM      1  C   LIG    1        8.049 -13.941   0.000  0.00  0.00    +0.000 C 
ENDROOT
TORSDOF 0
REMARK  Name = molecules/OWMZNFCDEHGFEP-NFBCVYDUSA-N.pdb
REMARK                            x       y       z     vdW  Elec       q    Type
REMARK                         _______ _______ _______ _____ _____    ______ ____
ROOT
ATOM      1  C   LIG    1        7.299 -12.642   0.000  0.00  0.00    +0.000 C 
ENDROOT
TORSDOF 0
REMARK  Name = molecules/OWMZNFCDEHGFEP-NFBCVYDUSA-N.pdb
REMARK                            x       y       z     vdW  Elec       q    Type
REMARK                         _______ _______ _______ _____ _____    ______ ____
ROOT
ATOM      1  C   LIG    1        7.500 -15.990   0.000  0.00  0.00    -0.000 C 
ENDROOT
TORSDOF 0
REMARK  Name = molecules/OWMZNFCDEHGFEP-NFBCVYDUSA-N.pdb
REMARK                            x       y       z     vdW  Elec       q    Type
REMARK                         _______ _______ _______ _____ _____    ______ ____
ROOT
ATOM      1  C   LIG    1        8.799 -15.240   0.000  0.00  0.00    +0.109 C 
ATOM      2  N   LIG    1        7.902 -15.990   0.000  0.00  0.00    -0.250 NA
ATOM      3  H   LIG    1        8.086 -17.371   0.000  0.00  0.00    +0.141 HD
ENDROOT
TORSDOF 0
REMARK  Name = molecules/OWMZNFCDEHGFEP-NFBCVYDUSA-N.pdb
REMARK                            x       y       z     vdW  Elec       q    Type
REMARK                         _______ _______ _______ _____ _____    ______ ____
ROOT
ATOM      1  C   LIG    1        5.250  -9.495   0.000  0.00  0.00    +0.000 C 
ENDROOT
TORSDOF 0
REMARK  Name = molecules/OWMZNFCDEHGFEP-NFBCVYDUSA-N.pdb
REMARK                            x       y       z     vdW  Elec       q    Type
REMARK                         _______ _______ _______ _____ _____    ______ ____
ROOT
ATOM      1  C   LIG    1        7.848  -7.995   0.000  0.00  0.00    -0.005 C 
ATOM      2  C   LIG    1        8.799  -7.446   0.000  0.00  0.00    +0.005 C 
ENDROOT
TORSDOF 0
REMARK  Name = molecules/OWMZNFCDEHGFEP-NFBCVYDUSA-N.pdb
REMARK                            x       y       z     vdW  Elec       q    Type
REMARK                         _______ _______ _______ _____ _____    ______ ____
ROOT
ATOM      1  O   HOH    1        9.147  -7.245   0.000  0.00  0.00    +0.000 OA
ENDROOT
TORSDOF 0
REMARK  Name = molecules/OWMZNFCDEHGFEP-NFBCVYDUSA-N.pdb
REMARK                            x       y       z     vdW  Elec       q    Type
REMARK                         _______ _______ _______ _____ _____    ______ ____
ROOT
ATOM      1  C   LIG    1        3.402 -10.794   0.000  0.00  0.00    +0.000 C 
ENDROOT
TORSDOF 0
REMARK  Name = molecules/OWMZNFCDEHGFEP-NFBCVYDUSA-N.pdb
REMARK                            x       y       z     vdW  Elec       q    Type
REMARK                         _______ _______ _______ _____ _____    ______ ____
ROOT
ATOM      1  C   LIG    1        7.152 -14.691   0.000  0.00  0.00    +0.000 C 
ENDROOT
TORSDOF 0
REMARK  Name = molecules/OWMZNFCDEHGFEP-NFBCVYDUSA-N.pdb
REMARK                            x       y       z     vdW  Elec       q    Type
REMARK                         _______ _______ _______ _____ _____    ______ ____
ROOT
ATOM      1  C   LIG    1        2.652  -9.495   0.000  0.00  0.00    +0.000 C 
ATOM      2  C   LIG    1        3.603  -8.946   0.000  0.00  0.00    +0.000 C 
ENDROOT
TORSDOF 0
REMARK  Name = molecules/OWMZNFCDEHGFEP-NFBCVYDUSA-N.pdb
REMARK                            x       y       z     vdW  Elec       q    Type
REMARK                         _______ _______ _______ _____ _____    ______ ____
ROOT
ATOM      1  O   HOH    1        2.136  -6.715   0.000  0.00  0.00    -0.253 OA
ATOM      2  H   HOH    0        2.909  -6.166   0.000  0.00  0.00    +0.253 HD
ENDROOT
TORSDOF 0
REMARK  Name = molecules/OWMZNFCDEHGFEP-NFBCVYDUSA-N.pdb
REMARK                            x       y       z     vdW  Elec       q    Type
REMARK                         _______ _______ _______ _____ _____    ______ ____
ROOT
ATOM      1  C   LIG    1        0.951  -6.147   0.000  0.00  0.00    +0.000 C 
ENDROOT
TORSDOF 0
REMARK  Name = molecules/OWMZNFCDEHGFEP-NFBCVYDUSA-N.pdb
REMARK                            x       y       z     vdW  Elec       q    Type
REMARK                         _______ _______ _______ _____ _____    ______ ____
ROOT
ATOM      1  C   LIG    1       -1.647  -7.647   0.000  0.00  0.00    +0.041 C 
ENDROOT
BRANCH   1   3
ATOM      2  C   LIG    1       -4.245  -9.147   0.000  0.00  0.00    +0.008 C 
ATOM      3  C   LIG    1       -2.946  -8.397   0.000  0.00  0.00    -0.009 C 
ENDBRANCH   1   3
BRANCH   1   4
ATOM      4  C   LIG    1       -0.348  -6.897   0.000  0.00  0.00    +0.188 C 
ATOM      5  O   LIG    1        0.054  -7.995   0.000  0.00  0.00    -0.228 OA
ENDBRANCH   1   4
TORSDOF 2
REMARK  Name = molecules/OWMZNFCDEHGFEP-NFBCVYDUSA-N.pdb
REMARK                            x       y       z     vdW  Elec       q    Type
REMARK                         _______ _______ _______ _____ _____    ______ ____
ROOT
ATOM      1  C   LIG    1       -2.196  -9.696   0.000  0.00  0.00    +0.000 C 
ENDROOT
TORSDOF 0
REMARK  Name = molecules/OWMZNFCDEHGFEP-NFBCVYDUSA-N.pdb
REMARK                            x       y       z     vdW  Elec       q    Type
REMARK                         _______ _______ _______ _____ _____    ______ ____
ROOT
ATOM      1  O   LIG    1        2.250  -6.897   0.000  0.00  0.00    +0.000 OA
ATOM      2  O   LIG    1        1.958  -6.275   0.000  0.00  0.00    +0.000 OA
ENDROOT
TORSDOF 0
REMARK  Name = molecules/OWMZNFCDEHGFEP-NFBCVYDUSA-N.pdb
REMARK                            x       y       z     vdW  Elec       q    Type
REMARK                         _______ _______ _______ _____ _____    ______ ____
ROOT
ATOM      1  C   LIG    1        3.000  -5.196   0.000  0.00  0.00    +0.000 C 
ENDROOT
TORSDOF 0
REMARK  Name = molecules/OWMZNFCDEHGFEP-NFBCVYDUSA-N.pdb
REMARK                            x       y       z     vdW  Elec       q    Type
REMARK                         _______ _______ _______ _____ _____    ______ ____
ROOT
ATOM      1  C   LIG    1        1.500  -2.598   0.000  0.00  0.00    +0.000 C 
ATOM      2  C   LIG    1        2.652  -1.701   0.000  0.00  0.00    +0.000 C 
ENDROOT
TORSDOF 0
REMARK  Name = molecules/OWMZNFCDEHGFEP-NFBCVYDUSA-N.pdb
REMARK                            x       y       z     vdW  Elec       q    Type
REMARK                         _______ _______ _______ _____ _____    ______ ____
ROOT
ATOM      1  C   LIG    1        0.750  -1.299   0.000  0.00  0.00    -0.008 C 
ATOM      2  C   LIG    1        1.902  -0.402   0.000  0.00  0.00    +0.008 C 
ENDROOT
TORSDOF 0
REMARK  Name = molecules/OWMZNFCDEHGFEP-NFBCVYDUSA-N.pdb
REMARK                            x       y       z     vdW  Elec       q    Type
REMARK                         _______ _______ _______ _____ _____    ______ ____
ROOT
ATOM      1  N   LIG    1        1.500   2.598   0.000  0.00  0.00    -0.201 NA
ATOM      2  C   LIG    1        2.799   2.946   0.000  0.00  0.00    +0.232 C 
ATOM      3  H   LIG    1        1.720   1.904   0.000  0.00  0.00    +0.265 HD
ENDROOT
BRANCH   1   4
ATOM      4  C   LIG    1        0.000   2.598   0.000  0.00  0.00    +0.419 C 
ATOM      5  N   LIG    1       -0.750   3.897   0.000  0.00  0.00    -0.127 NA
ATOM      6  H   LIG    1        0.549   4.245   0.000  0.00  0.00    +0.306 HD
BRANCH   4   8
ATOM      7  C   LIG    1        0.000   0.000   0.000  0.00  0.00    +0.291 C 
ATOM      8  N   LIG    1       -0.750   1.299   0.000  0.00  0.00    -0.114 NA
ENDBRANCH   4   8
ENDBRANCH   1   4
BRANCH   1   9
ATOM      9  N   LIG    1        2.049   4.245   0.000  0.00  0.00    +0.063 NA
BRANCH   9  10
ATOM     10  C   LIG    1        2.799   5.544   0.000  0.00  0.00    +0.568 C 
ATOM     11  N   LIG    1        4.299   5.544   0.000  0.00  0.00    +0.138 NA
ATOM     12  N   LIG    1        2.049   6.843   0.000  0.00  0.00    +0.138 NA
ENDBRANCH   9  10
ENDBRANCH   1   9
TORSDOF 4
REMARK  Name = molecules/OWMZNFCDEHGFEP-NFBCVYDUSA-N.pdb
REMARK                            x       y       z     vdW  Elec       q    Type
REMARK                         _______ _______ _______ _____ _____    ______ ____
ROOT
ATOM      1  C   LIG    1        6.549  -5.745   0.000  0.00  0.00    +0.000 C 
ENDROOT
TORSDOF 0
REMARK  Name = molecules/OWMZNFCDEHGFEP-NFBCVYDUSA-N.pdb
REMARK                            x       y       z     vdW  Elec       q    Type
REMARK                         _______ _______ _______ _____ _____    ______ ____
ROOT
ATOM      1  C   LIG    1        3.951  -7.245   0.000  0.00  0.00    +0.000 C 
ENDROOT
TORSDOF 0
REMARK  Name = molecules/OWMZNFCDEHGFEP-NFBCVYDUSA-N.pdb
REMARK                            x       y       z     vdW  Elec       q    Type
REMARK                         _______ _______ _______ _____ _____    ______ ____
ROOT
ATOM      1  C   LIG    1        2.652  -7.995   0.000  0.00  0.00    -0.000 C 
ENDROOT
TORSDOF 0
REMARK  Name = molecules/OWMZNFCDEHGFEP-NFBCVYDUSA-N.pdb
REMARK                            x       y       z     vdW  Elec       q    Type
REMARK                         _______ _______ _______ _____ _____    ______ ____
ROOT
ATOM      1  O   HOH    1        0.648 -10.069   0.000  0.00  0.00    -0.253 OA
ATOM      2  H   HOH    0       -0.114 -10.210   0.000  0.00  0.00    +0.253 HD
ENDROOT
TORSDOF 0
REMARK  Name = molecules/OWMZNFCDEHGFEP-NFBCVYDUSA-N.pdb
REMARK                            x       y       z     vdW  Elec       q    Type
REMARK                         _______ _______ _______ _____ _____    ______ ____
ROOT
ATOM      1  C   LIG    1        5.250  -6.495   0.000  0.00  0.00    +0.000 C 
ENDROOT
TORSDOF 0
REMARK  Name = molecules/OWMZNFCDEHGFEP-NFBCVYDUSA-N.pdb
REMARK                            x       y       z     vdW  Elec       q    Type
REMARK                         _______ _______ _______ _____ _____    ______ ____
ROOT
ATOM      1  C   LIG    1       10.446  -4.995   0.000  0.00  0.00    +0.000 C 
ENDROOT
TORSDOF 0
REMARK  Name = molecules/OWMZNFCDEHGFEP-NFBCVYDUSA-N.pdb
REMARK                            x       y       z     vdW  Elec       q    Type
REMARK                         _______ _______ _______ _____ _____    ______ ____
ROOT
ATOM      1  C   LIG    1        9.147  -5.745   0.000  0.00  0.00    +0.000 C 
ENDROOT
TORSDOF 0
REMARK  Name = molecules/OWMZNFCDEHGFEP-NFBCVYDUSA-N.pdb
REMARK                            x       y       z     vdW  Elec       q    Type
REMARK                         _______ _______ _______ _____ _____    ______ ____
ROOT
ATOM      1  C   LIG    1       12.294  -3.696   0.000  0.00  0.00    +0.026 C 
ATOM      2  C   LIG    1       11.946  -2.799   0.000  0.00  0.00    +0.026 C 
ATOM      3  C   LIG    1       11.397  -3.348   0.000  0.00  0.00    -0.052 C 
ATOM      4  C   LIG    1       10.647  -3.549   0.000  0.00  0.00    +0.000 C 
ENDROOT
TORSDOF 0
REMARK  Name = molecules/OWMZNFCDEHGFEP-NFBCVYDUSA-N.pdb
REMARK                            x       y       z     vdW  Elec       q    Type
REMARK                         _______ _______ _______ _____ _____    ______ ____
ROOT
ATOM      1  C   LIG    1       13.794  -6.294   0.000  0.00  0.00    +0.000 C 
ATOM      2  C   LIG    1       12.696  -6.696   0.000  0.00  0.00    +0.000 C 
ENDROOT
TORSDOF 0
REMARK  Name = molecules/OWMZNFCDEHGFEP-NFBCVYDUSA-N.pdb
REMARK                            x       y       z     vdW  Elec       q    Type
REMARK                         _______ _______ _______ _____ _____    ______ ____
ROOT
ATOM      1  C   LIG    1       13.044  -4.995   0.000  0.00  0.00    -0.000 C 
ENDROOT
TORSDOF 0
REMARK  Name = molecules/OWMZNFCDEHGFEP-NFBCVYDUSA-N.pdb
REMARK                            x       y       z     vdW  Elec       q    Type
REMARK                         _______ _______ _______ _____ _____    ______ ____
ROOT
ATOM      1  C   LIG    1       10.995  -1.848   0.000  0.00  0.00    -0.018 C 
ATOM      2  C   LIG    1       11.946  -1.299   0.000  0.00  0.00    +0.018 C 
ENDROOT
TORSDOF 0
REMARK  Name = molecules/OWMZNFCDEHGFEP-NFBCVYDUSA-N.pdb
REMARK                            x       y       z     vdW  Elec       q    Type
REMARK                         _______ _______ _______ _____ _____    ______ ____
ROOT
ATOM      1  C   LIG    1       13.593  -0.348   0.000  0.00  0.00    -0.000 C 
ENDROOT
TORSDOF 0
REMARK  Name = molecules/OWMZNFCDEHGFEP-NFBCVYDUSA-N.pdb
REMARK                            x       y       z     vdW  Elec       q    Type
REMARK                         _______ _______ _______ _____ _____    ______ ____
ROOT
ATOM      1  N   LIG    1       17.490   1.902   0.000  0.00  0.00    -0.099 NA
ENDROOT
BRANCH   1   2
ATOM      2  C   LIG    1       18.789   1.152   0.000  0.00  0.00    +0.534 C 
ATOM      3  N   LIG    1       18.789  -0.348   0.000  0.00  0.00    +0.135 NA
ATOM      4  N   LIG    1       20.088   1.902   0.000  0.00  0.00    +0.135 NA
ENDBRANCH   1   2
BRANCH   1   5
ATOM      5  C   LIG    1       16.191   1.152   0.000  0.00  0.00    +0.288 C 
BRANCH   5   6
ATOM      6  C   LIG    1       14.892   0.402   0.000  0.00  0.00    +0.213 C 
ATOM      7  O   LIG    1       14.224   1.463   0.000  0.00  0.00    -0.217 OA
ENDBRANCH   5   6
ENDBRANCH   1   5
TORSDOF 3
REMARK  Name = molecules/OWMZNFCDEHGFEP-NFBCVYDUSA-N.pdb
REMARK                            x       y       z     vdW  Elec       q    Type
REMARK                         _______ _______ _______ _____ _____    ______ ____
ROOT
ATOM      1  C   LIG    1       12.294  -1.098   0.000  0.00  0.00    +0.000 C 
ENDROOT
TORSDOF 0
REMARK  Name = molecules/OWMZNFCDEHGFEP-NFBCVYDUSA-N.pdb
REMARK                            x       y       z     vdW  Elec       q    Type
REMARK                         _______ _______ _______ _____ _____    ______ ____
ROOT
ATOM      1  C   LIG    1        8.946  -2.799   0.000  0.00  0.00    -0.005 C 
ATOM      2  C   LIG    1        8.049  -3.549   0.000  0.00  0.00    +0.005 C 
ENDROOT
TORSDOF 0
REMARK  Name = molecules/OWMZNFCDEHGFEP-NFBCVYDUSA-N.pdb
REMARK                            x       y       z     vdW  Elec       q    Type
REMARK                         _______ _______ _______ _____ _____    ______ ____
ROOT
ATOM      1  C   LIG    1       10.446  -5.397   0.000  0.00  0.00    +0.000 C 
ENDROOT
TORSDOF 0
REMARK  Name = molecules/OWMZNFCDEHGFEP-NFBCVYDUSA-N.pdb
REMARK                            x       y       z     vdW  Elec       q    Type
REMARK                         _______ _______ _______ _____ _____    ______ ____
ROOT
ATOM      1  C   LIG    1        9.696  -4.098   0.000  0.00  0.00    +0.000 C 
ENDROOT
TORSDOF 0
REMARK  Name = molecules/OWMZNFCDEHGFEP-NFBCVYDUSA-N.pdb
REMARK                            x       y       z     vdW  Elec       q    Type
REMARK                         _______ _______ _______ _____ _____    ______ ____
ROOT
ATOM      1  O   LIG    1        7.546  -3.337   0.000  0.00  0.00    +0.000 OA
ATOM      2  O   LIG    1        7.830  -2.440   0.000  0.00  0.00    +0.000 OA
ENDROOT
TORSDOF 0
REMARK  Name = molecules/OWMZNFCDEHGFEP-NFBCVYDUSA-N.pdb
REMARK                            x       y       z     vdW  Elec       q    Type
REMARK                         _______ _______ _______ _____ _____    ______ ____
ROOT
ATOM      1  C   LIG    1       10.245   0.549   0.000  0.00  0.00    +0.000 C 
ENDROOT
TORSDOF 0
REMARK  Name = molecules/OWMZNFCDEHGFEP-NFBCVYDUSA-N.pdb
REMARK                            x       y       z     vdW  Elec       q    Type
REMARK                         _______ _______ _______ _____ _____    ______ ____
ROOT
ATOM      1  C   LIG    1       11.544   1.299   0.000  0.00  0.00    +0.000 C 
ENDROOT
TORSDOF 0
REMARK  Name = molecules/OWMZNFCDEHGFEP-NFBCVYDUSA-N.pdb
REMARK                            x       y       z     vdW  Elec       q    Type
REMARK                         _______ _______ _______ _____ _____    ______ ____
ROOT
ATOM      1  C   LIG    1       12.843   2.049   0.000  0.00  0.00    +0.142 C 
ATOM      2  N   LIG    1       12.843   3.549   0.000  0.00  0.00    -0.142 NA
ENDROOT
TORSDOF 0
REMARK  Name = molecules/OWMZNFCDEHGFEP-NFBCVYDUSA-N.pdb
REMARK                            x       y       z     vdW  Elec       q    Type
REMARK                         _______ _______ _______ _____ _____    ______ ____
ROOT
ATOM      1  C   LIG    1        8.946  -0.201   0.000  0.00  0.00    -0.000 C 
ENDROOT
TORSDOF 0
REMARK  Name = molecules/OWMZNFCDEHGFEP-NFBCVYDUSA-N.pdb
REMARK                            x       y       z     vdW  Elec       q    Type
REMARK                         _______ _______ _______ _____ _____    ______ ____
ROOT
ATOM      1  C   LIG    1        5.799  -2.250   0.000  0.00  0.00    +0.000 C 
ENDROOT
TORSDOF 0
REMARK  Name = molecules/OWMZNFCDEHGFEP-NFBCVYDUSA-N.pdb
REMARK                            x       y       z     vdW  Elec       q    Type
REMARK                         _______ _______ _______ _____ _____    ______ ____
ROOT
ATOM      1  C   LIG    1        4.299   0.348   0.000  0.00  0.00    +0.005 C 
ATOM      2  C   LIG    1        3.951  -0.951   0.000  0.00  0.00    +0.001 C 
ATOM      3  C   LIG    1        5.049  -0.951   0.000  0.00  0.00    -0.005 C 
ENDROOT
TORSDOF 0
REMARK  Name = molecules/OWMZNFCDEHGFEP-NFBCVYDUSA-N.pdb
REMARK                            x       y       z     vdW  Elec       q    Type
REMARK                         _______ _______ _______ _____ _____    ______ ____
ROOT
ATOM      1  C   LIG    1        3.549   1.647   0.000  0.00  0.00    +0.000 C 
ENDROOT
TORSDOF 0
REMARK  Name = molecules/OWMZNFCDEHGFEP-NFBCVYDUSA-N.pdb
REMARK                            x       y       z     vdW  Elec       q    Type
REMARK                         _______ _______ _______ _____ _____    ______ ____
ROOT
ATOM      1  C   LIG    1        6.750  -4.299   0.000  0.00  0.00    +0.229 C 
ATOM      2  O   LIG    1        6.226  -4.894   0.000  0.00  0.00    -0.194 OA
ENDROOT
BRANCH   2   3
ATOM      3  O   LIG    1        6.046  -5.623   0.000  0.00  0.00    -0.033 OA
ATOM      4  O   LIG    1        5.497  -6.122   0.000  0.00  0.00    -0.002 OA
ENDBRANCH   2   3
TORSDOF 1
REMARK  Name = molecules/OWMZNFCDEHGFEP-NFBCVYDUSA-N.pdb
REMARK                            x       y       z     vdW  Elec       q    Type
REMARK                         _______ _______ _______ _____ _____    ______ ____
ROOT
ATOM      1  C   LIG    1        9.348  -2.799   0.000  0.00  0.00    +0.000 C 
ENDROOT
TORSDOF 0
REMARK  Name = molecules/OWMZNFCDEHGFEP-NFBCVYDUSA-N.pdb
REMARK                            x       y       z     vdW  Elec       q    Type
REMARK                         _______ _______ _______ _____ _____    ______ ____
ROOT
ATOM      1  C   LIG    1        4.902  -5.598   0.000  0.00  0.00    +0.000 C 
ENDROOT
TORSDOF 0
REMARK  Name = molecules/OWMZNFCDEHGFEP-NFBCVYDUSA-N.pdb
REMARK                            x       y       z     vdW  Elec       q    Type
REMARK                         _______ _______ _______ _____ _____    ______ ____
ROOT
ATOM      1  C   LIG    1        4.152  -4.299   0.000  0.00  0.00    +0.000 C 
ENDROOT
TORSDOF 0
REMARK  Name = molecules/OWMZNFCDEHGFEP-NFBCVYDUSA-N.pdb
REMARK                            x       y       z     vdW  Elec       q    Type
REMARK                         _______ _______ _______ _____ _____    ______ ____
ROOT
ATOM      1  O   HOH    1       -0.376  -9.860   0.000  0.00  0.00    -0.410 OA
ATOM      2  H   HOH    0        0.535 -10.198   0.000  0.00  0.00    +0.205 HD
ATOM      3  H   HOH    0       -0.815  -9.110   0.000  0.00  0.00    +0.205 HD
ENDROOT
TORSDOF 0
REMARK  Name = molecules/OWMZNFCDEHGFEP-NFBCVYDUSA-N.pdb
REMARK                            x       y       z     vdW  Elec       q    Type
REMARK                         _______ _______ _______ _____ _____    ______ ____
ROOT
ATOM      1  C   LIG    1       10.098  -6.696   0.000  0.00  0.00    +0.000 C 
ENDROOT
TORSDOF 0
REMARK  Name = molecules/OWMZNFCDEHGFEP-NFBCVYDUSA-N.pdb
REMARK                            x       y       z     vdW  Elec       q    Type
REMARK                         _______ _______ _______ _____ _____    ______ ____
ROOT
ATOM      1  O   HOH    1        8.966  -5.712   0.000  0.00  0.00    -0.253 OA
ATOM      2  H   HOH    0        8.799  -4.848   0.000  0.00  0.00    +0.253 HD
ENDROOT
TORSDOF 0
REMARK  Name = molecules/OWMZNFCDEHGFEP-NFBCVYDUSA-N.pdb
REMARK                            x       y       z     vdW  Elec       q    Type
REMARK                         _______ _______ _______ _____ _____    ______ ____
ROOT
ATOM      1  C   LIG    1       14.946 -10.593   0.000  0.00  0.00    +0.000 C 
ENDROOT
TORSDOF 0
REMARK  Name = molecules/OWMZNFCDEHGFEP-NFBCVYDUSA-N.pdb
REMARK                            x       y       z     vdW  Elec       q    Type
REMARK                         _______ _______ _______ _____ _____    ______ ____
ROOT
ATOM      1  C   LIG    1       13.446  -7.995   0.000  0.00  0.00    +0.000 C 
ENDROOT
TORSDOF 0
REMARK  Name = molecules/OWMZNFCDEHGFEP-NFBCVYDUSA-N.pdb
REMARK                            x       y       z     vdW  Elec       q    Type
REMARK                         _______ _______ _______ _____ _____    ______ ____
ROOT
ATOM      1  C   LIG    1       14.196  -9.294   0.000  0.00  0.00    +0.000 C 
ENDROOT
TORSDOF 0
REMARK  Name = molecules/OWMZNFCDEHGFEP-NFBCVYDUSA-N.pdb
REMARK                            x       y       z     vdW  Elec       q    Type
REMARK                         _______ _______ _______ _____ _____    ______ ____
ROOT
ATOM      1  O   HOH    1       10.457  -5.580   0.000  0.00  0.00    +0.000 OA
ENDROOT
TORSDOF 0
REMARK  Name = molecules/OWMZNFCDEHGFEP-NFBCVYDUSA-N.pdb
REMARK                            x       y       z     vdW  Elec       q    Type
REMARK                         _______ _______ _______ _____ _____    ______ ____
ROOT
ATOM      1  C   LIG    1       14.544  -1.299   0.000  0.00  0.00    +0.000 C 
ENDROOT
TORSDOF 0
REMARK  Name = molecules/OWMZNFCDEHGFEP-NFBCVYDUSA-N.pdb
REMARK                            x       y       z     vdW  Elec       q    Type
REMARK                         _______ _______ _______ _____ _____    ______ ____
ROOT
ATOM      1  C   LIG    1       13.995  -3.348   0.000  0.00  0.00    -0.000 C 
ENDROOT
TORSDOF 0
REMARK  Name = molecules/OWMZNFCDEHGFEP-NFBCVYDUSA-N.pdb
REMARK                            x       y       z     vdW  Elec       q    Type
REMARK                         _______ _______ _______ _____ _____    ______ ____
ROOT
ATOM      1  C   LIG    1       13.245  -2.049   0.000  0.00  0.00    +0.000 C 
ENDROOT
TORSDOF 0
REMARK  Name = molecules/OWMZNFCDEHGFEP-NFBCVYDUSA-N.pdb
REMARK                            x       y       z     vdW  Elec       q    Type
REMARK                         _______ _______ _______ _____ _____    ______ ____
ROOT
ATOM      1  H   UNK    1      -13.327 -20.072   0.000  0.00  0.00    +0.000 HD
ENDROOT
TORSDOF 0
REMARK  Name = molecules/OWMZNFCDEHGFEP-NFBCVYDUSA-N.pdb
REMARK                            x       y       z     vdW  Elec       q    Type
REMARK                         _______ _______ _______ _____ _____    ______ ____
ROOT
ATOM      1  H   UNK    1       -0.750 -18.387   0.000  0.00  0.00    +0.000 HD
ENDROOT
TORSDOF 0
REMARK  Name = molecules/OWMZNFCDEHGFEP-NFBCVYDUSA-N.pdb
REMARK                            x       y       z     vdW  Elec       q    Type
REMARK                         _______ _______ _______ _____ _____    ______ ____
ROOT
ATOM      1  H   UNK    1        4.485 -11.736   0.000  0.00  0.00    +0.000 HD
ENDROOT
TORSDOF 0
REMARK  Name = molecules/OWMZNFCDEHGFEP-NFBCVYDUSA-N.pdb
REMARK                            x       y       z     vdW  Elec       q    Type
REMARK                         _______ _______ _______ _____ _____    ______ ____
ROOT
ATOM      1  H   UNK    1       10.507  -7.710   0.000  0.00  0.00    +0.000 HD
ENDROOT
TORSDOF 0
REMARK  Name = molecules/OWMZNFCDEHGFEP-NFBCVYDUSA-N.pdb
REMARK                            x       y       z     vdW  Elec       q    Type
REMARK                         _______ _______ _______ _____ _____    ______ ____
ROOT
ATOM      1  H   UNK    1        8.699  -9.507   0.000  0.00  0.00    +0.000 HD
ENDROOT
TORSDOF 0
REMARK  Name = molecules/OWMZNFCDEHGFEP-NFBCVYDUSA-N.pdb
REMARK                            x       y       z     vdW  Elec       q    Type
REMARK                         _______ _______ _______ _____ _____    ______ ____
ROOT
ATOM      1  H   UNK    1       -0.184  -9.577   0.000  0.00  0.00    +0.000 HD
ENDROOT
TORSDOF 0
REMARK  Name = molecules/OWMZNFCDEHGFEP-NFBCVYDUSA-N.pdb
REMARK                            x       y       z     vdW  Elec       q    Type
REMARK                         _______ _______ _______ _____ _____    ______ ____
ROOT
ATOM      1  H   UNK    1       -0.430  -4.061   0.000  0.00  0.00    +0.000 HD
ENDROOT
TORSDOF 0
REMARK  Name = molecules/OWMZNFCDEHGFEP-NFBCVYDUSA-N.pdb
REMARK                            x       y       z     vdW  Elec       q    Type
REMARK                         _______ _______ _______ _____ _____    ______ ____
ROOT
ATOM      1  H   UNK    1       12.294  -4.098   0.000  0.00  0.00    +0.000 HD
ENDROOT
TORSDOF 0
REMARK  Name = molecules/OWMZNFCDEHGFEP-NFBCVYDUSA-N.pdb
REMARK                            x       y       z     vdW  Elec       q    Type
REMARK                         _______ _______ _______ _____ _____    ______ ____
ROOT
ATOM      1  H   UNK    1        6.531   1.288   0.000  0.00  0.00    +0.000 HD
ENDROOT
TORSDOF 0
REMARK  Name = molecules/OWMZNFCDEHGFEP-NFBCVYDUSA-N.pdb
REMARK                            x       y       z     vdW  Elec       q    Type
REMARK                         _______ _______ _______ _____ _____    ______ ____
ROOT
ATOM      1  H   UNK    1        2.663  -6.714   0.000  0.00  0.00    +0.000 HD
ENDROOT
TORSDOF 0
REMARK  Name = molecules/OWMZNFCDEHGFEP-NFBCVYDUSA-N.pdb
REMARK                            x       y       z     vdW  Elec       q    Type
REMARK                         _______ _______ _______ _____ _____    ______ ____
ROOT
ATOM      1  H   UNK    1      -12.495 -26.699   0.000  0.00  0.00    +0.000 HD
ENDROOT
TORSDOF 0
REMARK  Name = molecules/OWMZNFCDEHGFEP-NFBCVYDUSA-N.pdb
REMARK                            x       y       z     vdW  Elec       q    Type
REMARK                         _______ _______ _______ _____ _____    ______ ____
ROOT
ATOM      1  H   UNK    1      -10.245 -14.637   0.000  0.00  0.00    +0.000 HD
ENDROOT
TORSDOF 0
REMARK  Name = molecules/OWMZNFCDEHGFEP-NFBCVYDUSA-N.pdb
REMARK                            x       y       z     vdW  Elec       q    Type
REMARK                         _______ _______ _______ _____ _____    ______ ____
ROOT
ATOM      1  H   UNK    1       -5.250 -23.584   0.000  0.00  0.00    +0.000 HD
ENDROOT
TORSDOF 0
REMARK  Name = molecules/OWMZNFCDEHGFEP-NFBCVYDUSA-N.pdb
REMARK                            x       y       z     vdW  Elec       q    Type
REMARK                         _______ _______ _______ _____ _____    ______ ____
ROOT
ATOM      1  H   UNK    1       -1.729 -11.105   0.000  0.00  0.00    +0.000 HD
ENDROOT
TORSDOF 0
REMARK  Name = molecules/OWMZNFCDEHGFEP-NFBCVYDUSA-N.pdb
REMARK                            x       y       z     vdW  Elec       q    Type
REMARK                         _______ _______ _______ _____ _____    ______ ____
ROOT
ATOM      1  H   UNK    1       10.794 -12.294   0.000  0.00  0.00    +0.000 HD
ENDROOT
TORSDOF 0
REMARK  Name = molecules/OWMZNFCDEHGFEP-NFBCVYDUSA-N.pdb
REMARK                            x       y       z     vdW  Elec       q    Type
REMARK                         _______ _______ _______ _____ _____    ______ ____
ROOT
ATOM      1  H   UNK    1       10.767 -10.749   0.000  0.00  0.00    +0.000 HD
ENDROOT
TORSDOF 0
REMARK  Name = molecules/OWMZNFCDEHGFEP-NFBCVYDUSA-N.pdb
REMARK                            x       y       z     vdW  Elec       q    Type
REMARK                         _______ _______ _______ _____ _____    ______ ____
ROOT
ATOM      1  H   UNK    1       11.946 -10.191   0.000  0.00  0.00    +0.000 HD
ENDROOT
TORSDOF 0
REMARK  Name = molecules/OWMZNFCDEHGFEP-NFBCVYDUSA-N.pdb
REMARK                            x       y       z     vdW  Elec       q    Type
REMARK                         _______ _______ _______ _____ _____    ______ ____
ROOT
ATOM      1  H   UNK    1       15.093  -5.142   0.000  0.00  0.00    +0.000 HD
ENDROOT
TORSDOF 0
REMARK  Name = molecules/OWMZNFCDEHGFEP-NFBCVYDUSA-N.pdb
REMARK                            x       y       z     vdW  Elec       q    Type
REMARK                         _______ _______ _______ _____ _____    ______ ____
ROOT
ATOM      1  H   UNK    1        9.531 -13.707   0.000  0.00  0.00    +0.000 HD
ENDROOT
TORSDOF 0
REMARK  Name = molecules/OWMZNFCDEHGFEP-NFBCVYDUSA-N.pdb
REMARK                            x       y       z     vdW  Elec       q    Type
REMARK                         _______ _______ _______ _____ _____    ______ ____
ROOT
ATOM      1  H   UNK    1       10.098 -14.490   0.000  0.00  0.00    +0.000 HD
ENDROOT
TORSDOF 0
REMARK  Name = molecules/OWMZNFCDEHGFEP-NFBCVYDUSA-N.pdb
REMARK                            x       y       z     vdW  Elec       q    Type
REMARK                         _______ _______ _______ _____ _____    ______ ____
ROOT
ATOM      1  H   UNK    1        9.147  -5.745   0.000  0.00  0.00    +0.000 HD
ENDROOT
TORSDOF 0
REMARK  Name = molecules/OWMZNFCDEHGFEP-NFBCVYDUSA-N.pdb
REMARK                            x       y       z     vdW  Elec       q    Type
REMARK                         _______ _______ _______ _____ _____    ______ ____
ROOT
ATOM      1  H   UNK    1        4.901 -10.742   0.000  0.00  0.00    +0.000 HD
ENDROOT
TORSDOF 0
REMARK  Name = molecules/OWMZNFCDEHGFEP-NFBCVYDUSA-N.pdb
REMARK                            x       y       z     vdW  Elec       q    Type
REMARK                         _______ _______ _______ _____ _____    ______ ____
ROOT
ATOM      1  H   UNK    1        1.960 -11.208   0.000  0.00  0.00    +0.000 HD
ENDROOT
TORSDOF 0
REMARK  Name = molecules/OWMZNFCDEHGFEP-NFBCVYDUSA-N.pdb
REMARK                            x       y       z     vdW  Elec       q    Type
REMARK                         _______ _______ _______ _____ _____    ______ ____
ROOT
ATOM      1  H   UNK    1        3.704 -14.295   0.000  0.00  0.00    +0.000 HD
ENDROOT
TORSDOF 0
REMARK  Name = molecules/OWMZNFCDEHGFEP-NFBCVYDUSA-N.pdb
REMARK                            x       y       z     vdW  Elec       q    Type
REMARK                         _______ _______ _______ _____ _____    ______ ____
ROOT
ATOM      1  H   UNK    1        9.391 -13.575   0.000  0.00  0.00    +0.000 HD
ENDROOT
TORSDOF 0
REMARK  Name = molecules/OWMZNFCDEHGFEP-NFBCVYDUSA-N.pdb
REMARK                            x       y       z     vdW  Elec       q    Type
REMARK                         _______ _______ _______ _____ _____    ______ ____
ROOT
ATOM      1  H   UNK    1       -3.394 -10.599   0.000  0.00  0.00    +0.000 HD
ENDROOT
TORSDOF 0
REMARK  Name = molecules/OWMZNFCDEHGFEP-NFBCVYDUSA-N.pdb
REMARK                            x       y       z     vdW  Elec       q    Type
REMARK                         _______ _______ _______ _____ _____    ______ ____
ROOT
ATOM      1  H   UNK    1        0.119  -3.184   0.000  0.00  0.00    +0.000 HD
ENDROOT
TORSDOF 0
REMARK  Name = molecules/OWMZNFCDEHGFEP-NFBCVYDUSA-N.pdb
REMARK                            x       y       z     vdW  Elec       q    Type
REMARK                         _______ _______ _______ _____ _____    ______ ____
ROOT
ATOM      1  H   UNK    1        1.829  -0.257   0.000  0.00  0.00    +0.000 HD
ENDROOT
TORSDOF 0
REMARK  Name = molecules/OWMZNFCDEHGFEP-NFBCVYDUSA-N.pdb
REMARK                            x       y       z     vdW  Elec       q    Type
REMARK                         _______ _______ _______ _____ _____    ______ ____
ROOT
ATOM      1  H   UNK    1       -0.549  -2.049   0.000  0.00  0.00    +0.000 HD
ENDROOT
TORSDOF 0
REMARK  Name = molecules/OWMZNFCDEHGFEP-NFBCVYDUSA-N.pdb
REMARK                            x       y       z     vdW  Elec       q    Type
REMARK                         _______ _______ _______ _____ _____    ______ ____
ROOT
ATOM      1  H   UNK    1       -2.250   1.299   0.000  0.00  0.00    +0.000 HD
ENDROOT
TORSDOF 0
REMARK  Name = molecules/OWMZNFCDEHGFEP-NFBCVYDUSA-N.pdb
REMARK                            x       y       z     vdW  Elec       q    Type
REMARK                         _______ _______ _______ _____ _____    ______ ____
ROOT
ATOM      1  H   UNK    1        2.086   1.217   0.000  0.00  0.00    +0.000 HD
ENDROOT
TORSDOF 0
REMARK  Name = molecules/OWMZNFCDEHGFEP-NFBCVYDUSA-N.pdb
REMARK                            x       y       z     vdW  Elec       q    Type
REMARK                         _______ _______ _______ _____ _____    ______ ____
ROOT
ATOM      1  H   UNK    1        0.000   5.196   0.000  0.00  0.00    +0.000 HD
ENDROOT
TORSDOF 0
REMARK  Name = molecules/OWMZNFCDEHGFEP-NFBCVYDUSA-N.pdb
REMARK                            x       y       z     vdW  Elec       q    Type
REMARK                         _______ _______ _______ _____ _____    ______ ____
ROOT
ATOM      1  H   UNK    1        1.902  -6.696   0.000  0.00  0.00    +0.000 HD
ENDROOT
TORSDOF 0
REMARK  Name = molecules/OWMZNFCDEHGFEP-NFBCVYDUSA-N.pdb
REMARK                            x       y       z     vdW  Elec       q    Type
REMARK                         _______ _______ _______ _____ _____    ______ ____
ROOT
ATOM      1  H   UNK    1        3.694  -9.074   0.000  0.00  0.00    +0.000 HD
ENDROOT
TORSDOF 0
REMARK  Name = molecules/OWMZNFCDEHGFEP-NFBCVYDUSA-N.pdb
REMARK                            x       y       z     vdW  Elec       q    Type
REMARK                         _______ _______ _______ _____ _____    ______ ____
ROOT
ATOM      1  H   UNK    1       15.154  -6.928   0.000  0.00  0.00    +0.000 HD
ENDROOT
TORSDOF 0
REMARK  Name = molecules/OWMZNFCDEHGFEP-NFBCVYDUSA-N.pdb
REMARK                            x       y       z     vdW  Elec       q    Type
REMARK                         _______ _______ _______ _____ _____    ______ ____
ROOT
ATOM      1  H   UNK    1       15.175  -5.708   0.000  0.00  0.00    +0.000 HD
ENDROOT
TORSDOF 0
REMARK  Name = molecules/OWMZNFCDEHGFEP-NFBCVYDUSA-N.pdb
REMARK                            x       y       z     vdW  Elec       q    Type
REMARK                         _______ _______ _______ _____ _____    ______ ____
ROOT
ATOM      1  H   UNK    1       14.486  -4.582   0.000  0.00  0.00    +0.000 HD
ENDROOT
TORSDOF 0
REMARK  Name = molecules/OWMZNFCDEHGFEP-NFBCVYDUSA-N.pdb
REMARK                            x       y       z     vdW  Elec       q    Type
REMARK                         _______ _______ _______ _____ _____    ______ ____
ROOT
ATOM      1  H   UNK    1       14.759  -1.292   0.000  0.00  0.00    +0.000 HD
ENDROOT
TORSDOF 0
REMARK  Name = molecules/OWMZNFCDEHGFEP-NFBCVYDUSA-N.pdb
REMARK                            x       y       z     vdW  Elec       q    Type
REMARK                         _______ _______ _______ _____ _____    ______ ____
ROOT
ATOM      1  H   UNK    1       15.795  -0.796   0.000  0.00  0.00    +0.000 HD
ENDROOT
TORSDOF 0
REMARK  Name = molecules/OWMZNFCDEHGFEP-NFBCVYDUSA-N.pdb
REMARK                            x       y       z     vdW  Elec       q    Type
REMARK                         _______ _______ _______ _____ _____    ______ ____
ROOT
ATOM      1  H   UNK    1       17.490   3.402   0.000  0.00  0.00    +0.000 HD
ENDROOT
TORSDOF 0
REMARK  Name = molecules/OWMZNFCDEHGFEP-NFBCVYDUSA-N.pdb
REMARK                            x       y       z     vdW  Elec       q    Type
REMARK                         _______ _______ _______ _____ _____    ______ ____
ROOT
ATOM      1  H   UNK    1       20.088  -1.098   0.000  0.00  0.00    +0.000 HD
ENDROOT
TORSDOF 0
REMARK  Name = molecules/OWMZNFCDEHGFEP-NFBCVYDUSA-N.pdb
REMARK                            x       y       z     vdW  Elec       q    Type
REMARK                         _______ _______ _______ _____ _____    ______ ____
ROOT
ATOM      1  H   UNK    1       17.490  -1.098   0.000  0.00  0.00    +0.000 HD
ENDROOT
TORSDOF 0
REMARK  Name = molecules/OWMZNFCDEHGFEP-NFBCVYDUSA-N.pdb
REMARK                            x       y       z     vdW  Elec       q    Type
REMARK                         _______ _______ _______ _____ _____    ______ ____
ROOT
ATOM      1  H   UNK    1       21.387   1.152   0.000  0.00  0.00    +0.000 HD
ENDROOT
TORSDOF 0
REMARK  Name = molecules/OWMZNFCDEHGFEP-NFBCVYDUSA-N.pdb
REMARK                            x       y       z     vdW  Elec       q    Type
REMARK                         _______ _______ _______ _____ _____    ______ ____
ROOT
ATOM      1  H   UNK    1       12.181  -9.477   0.000  0.00  0.00    +0.000 HD
ENDROOT
TORSDOF 0
REMARK  Name = molecules/OWMZNFCDEHGFEP-NFBCVYDUSA-N.pdb
REMARK                            x       y       z     vdW  Elec       q    Type
REMARK                         _______ _______ _______ _____ _____    ______ ____
ROOT
ATOM      1  H   UNK    1        8.397  -4.848   0.000  0.00  0.00    +0.000 HD
ENDROOT
TORSDOF 0
REMARK  Name = molecules/OWMZNFCDEHGFEP-NFBCVYDUSA-N.pdb
REMARK                            x       y       z     vdW  Elec       q    Type
REMARK                         _______ _______ _______ _____ _____    ______ ____
ROOT
ATOM      1  H   UNK    1       13.922  -6.409   0.000  0.00  0.00    +0.000 HD
ENDROOT
TORSDOF 0
REMARK  Name = molecules/OWMZNFCDEHGFEP-NFBCVYDUSA-N.pdb
REMARK                            x       y       z     vdW  Elec       q    Type
REMARK                         _______ _______ _______ _____ _____    ______ ____
ROOT
ATOM      1  H   UNK    1        9.495   1.848   0.000  0.00  0.00    +0.000 HD
ENDROOT
TORSDOF 0
REMARK  Name = molecules/OWMZNFCDEHGFEP-NFBCVYDUSA-N.pdb
REMARK                            x       y       z     vdW  Elec       q    Type
REMARK                         _______ _______ _______ _____ _____    ______ ____
ROOT
ATOM      1  H   UNK    1       10.794   2.598   0.000  0.00  0.00    +0.000 HD
ENDROOT
TORSDOF 0
REMARK  Name = molecules/OWMZNFCDEHGFEP-NFBCVYDUSA-N.pdb
REMARK                            x       y       z     vdW  Elec       q    Type
REMARK                         _______ _______ _______ _____ _____    ______ ____
ROOT
ATOM      1  H   UNK    1       14.142   4.299   0.000  0.00  0.00    +0.000 HD
ENDROOT
TORSDOF 0
REMARK  Name = molecules/OWMZNFCDEHGFEP-NFBCVYDUSA-N.pdb
REMARK                            x       y       z     vdW  Elec       q    Type
REMARK                         _______ _______ _______ _____ _____    ______ ____
ROOT
ATOM      1  H   UNK    1       11.544   4.299   0.000  0.00  0.00    +0.000 HD
ENDROOT
TORSDOF 0
REMARK  Name = molecules/OWMZNFCDEHGFEP-NFBCVYDUSA-N.pdb
REMARK                            x       y       z     vdW  Elec       q    Type
REMARK                         _______ _______ _______ _____ _____    ______ ____
ROOT
ATOM      1  H   UNK    1        8.196   1.098   0.000  0.00  0.00    +0.000 HD
ENDROOT
TORSDOF 0
REMARK  Name = molecules/OWMZNFCDEHGFEP-NFBCVYDUSA-N.pdb
REMARK                            x       y       z     vdW  Elec       q    Type
REMARK                         _______ _______ _______ _____ _____    ______ ____
ROOT
ATOM      1  H   UNK    1        5.497   1.251   0.000  0.00  0.00    +0.000 HD
ENDROOT
TORSDOF 0
REMARK  Name = molecules/OWMZNFCDEHGFEP-NFBCVYDUSA-N.pdb
REMARK                            x       y       z     vdW  Elec       q    Type
REMARK                         _______ _______ _______ _____ _____    ______ ____
ROOT
ATOM      1  H   UNK    1        4.848   2.397   0.000  0.00  0.00    +0.000 HD
ENDROOT
TORSDOF 0
REMARK  Name = molecules/OWMZNFCDEHGFEP-NFBCVYDUSA-N.pdb
REMARK                            x       y       z     vdW  Elec       q    Type
REMARK                         _______ _______ _______ _____ _____    ______ ____
ROOT
ATOM      1  H   UNK    1        4.098   3.696   0.000  0.00  0.00    +0.000 HD
ENDROOT
TORSDOF 0
REMARK  Name = molecules/OWMZNFCDEHGFEP-NFBCVYDUSA-N.pdb
REMARK                            x       y       z     vdW  Elec       q    Type
REMARK                         _______ _______ _______ _____ _____    ______ ____
ROOT
ATOM      1  H   UNK    1        5.049   6.843   0.000  0.00  0.00    +0.000 HD
ENDROOT
TORSDOF 0
REMARK  Name = molecules/OWMZNFCDEHGFEP-NFBCVYDUSA-N.pdb
REMARK                            x       y       z     vdW  Elec       q    Type
REMARK                         _______ _______ _______ _____ _____    ______ ____
ROOT
ATOM      1  H   UNK    1        5.049   4.245   0.000  0.00  0.00    +0.000 HD
ENDROOT
TORSDOF 0
REMARK  Name = molecules/OWMZNFCDEHGFEP-NFBCVYDUSA-N.pdb
REMARK                            x       y       z     vdW  Elec       q    Type
REMARK                         _______ _______ _______ _____ _____    ______ ____
ROOT
ATOM      1  H   UNK    1        2.799   8.142   0.000  0.00  0.00    +0.000 HD
ENDROOT
TORSDOF 0
REMARK  Name = molecules/OWMZNFCDEHGFEP-NFBCVYDUSA-N.pdb
REMARK                            x       y       z     vdW  Elec       q    Type
REMARK                         _______ _______ _______ _____ _____    ______ ____
ROOT
ATOM      1  H   UNK    1       13.112  -2.243   0.000  0.00  0.00    +0.000 HD
ENDROOT
TORSDOF 0
REMARK  Name = molecules/OWMZNFCDEHGFEP-NFBCVYDUSA-N.pdb
REMARK                            x       y       z     vdW  Elec       q    Type
REMARK                         _______ _______ _______ _____ _____    ______ ____
ROOT
ATOM      1  H   UNK    1       12.824  -3.811   0.000  0.00  0.00    +0.000 HD
ENDROOT
TORSDOF 0
REMARK  Name = molecules/OWMZNFCDEHGFEP-NFBCVYDUSA-N.pdb
REMARK                            x       y       z     vdW  Elec       q    Type
REMARK                         _______ _______ _______ _____ _____    ______ ____
ROOT
ATOM      1  H   UNK    1        1.316   0.979   0.000  0.00  0.00    +0.000 HD
ENDROOT
TORSDOF 0
REMARK  Name = molecules/OWMZNFCDEHGFEP-NFBCVYDUSA-N.pdb
REMARK                            x       y       z     vdW  Elec       q    Type
REMARK                         _______ _______ _______ _____ _____    ______ ____
ROOT
ATOM      1  H   UNK    1        4.701  -2.250   0.000  0.00  0.00    +0.000 HD
ENDROOT
TORSDOF 0
REMARK  Name = molecules/OWMZNFCDEHGFEP-NFBCVYDUSA-N.pdb
REMARK                            x       y       z     vdW  Elec       q    Type
REMARK                         _______ _______ _______ _____ _____    ______ ____
ROOT
ATOM      1  H   UNK    1        2.890 -11.077   0.000  0.00  0.00    +0.000 HD
ENDROOT
TORSDOF 0
REMARK  Name = molecules/OWMZNFCDEHGFEP-NFBCVYDUSA-N.pdb
REMARK                            x       y       z     vdW  Elec       q    Type
REMARK                         _______ _______ _______ _____ _____    ______ ____
ROOT
ATOM      1  H   UNK    1        5.652  -9.495   0.000  0.00  0.00    +0.000 HD
ENDROOT
TORSDOF 0
REMARK  Name = molecules/OWMZNFCDEHGFEP-NFBCVYDUSA-N.pdb
REMARK                            x       y       z     vdW  Elec       q    Type
REMARK                         _______ _______ _______ _____ _____    ______ ____
ROOT
ATOM      1  H   UNK    1        7.896  -6.248   0.000  0.00  0.00    +0.000 HD
ENDROOT
TORSDOF 0
REMARK  Name = molecules/OWMZNFCDEHGFEP-NFBCVYDUSA-N.pdb
REMARK                            x       y       z     vdW  Elec       q    Type
REMARK                         _______ _______ _______ _____ _____    ______ ____
ROOT
ATOM      1  H   UNK    1       12.983  -9.422   0.000  0.00  0.00    +0.000 HD
ENDROOT
TORSDOF 0
REMARK  Name = molecules/OWMZNFCDEHGFEP-NFBCVYDUSA-N.pdb
REMARK                            x       y       z     vdW  Elec       q    Type
REMARK                         _______ _______ _______ _____ _____    ______ ____
ROOT
ATOM      1  H   UNK    1       14.077  -6.110   0.000  0.00  0.00    +0.000 HD
ENDROOT
TORSDOF 0
REMARK  Name = molecules/OWMZNFCDEHGFEP-NFBCVYDUSA-N.pdb
REMARK                            x       y       z     vdW  Elec       q    Type
REMARK                         _______ _______ _______ _____ _____    ______ ____
ROOT
ATOM      1  H   UNK    1       16.794  -7.794   0.000  0.00  0.00    +0.000 HD
ENDROOT
TORSDOF 0
REMARK  Name = molecules/OWMZNFCDEHGFEP-NFBCVYDUSA-N.pdb
REMARK                            x       y       z     vdW  Elec       q    Type
REMARK                         _______ _______ _______ _____ _____    ______ ____
ROOT
ATOM      1  H   UNK    1       16.398  -9.742   0.000  0.00  0.00    +0.000 HD
ENDROOT
TORSDOF 0
REMARK  Name = molecules/OWMZNFCDEHGFEP-NFBCVYDUSA-N.pdb
REMARK                            x       y       z     vdW  Elec       q    Type
REMARK                         _______ _______ _______ _____ _____    ______ ____
ROOT
ATOM      1  H   UNK    1       15.082  -7.102   0.000  0.00  0.00    +0.000 HD
ENDROOT
TORSDOF 0
REMARK  Name = molecules/OWMZNFCDEHGFEP-NFBCVYDUSA-N.pdb
REMARK                            x       y       z     vdW  Elec       q    Type
REMARK                         _______ _______ _______ _____ _____    ______ ____
ROOT
ATOM      1  H   UNK    1       13.117 -10.336   0.000  0.00  0.00    +0.000 HD
ENDROOT
TORSDOF 0
REMARK  Name = molecules/OWMZNFCDEHGFEP-NFBCVYDUSA-N.pdb
REMARK                            x       y       z     vdW  Elec       q    Type
REMARK                         _______ _______ _______ _____ _____    ______ ____
ROOT
ATOM      1  H   UNK    1       15.925  -0.713   0.000  0.00  0.00    +0.000 HD
ENDROOT
TORSDOF 0
REMARK  Name = molecules/OWMZNFCDEHGFEP-NFBCVYDUSA-N.pdb
REMARK                            x       y       z     vdW  Elec       q    Type
REMARK                         _______ _______ _______ _____ _____    ______ ____
ROOT
ATOM      1  H   UNK    1       15.586  -2.378   0.000  0.00  0.00    +0.000 HD
ENDROOT
TORSDOF 0
REMARK  Name = molecules/OWMZNFCDEHGFEP-NFBCVYDUSA-N.pdb
REMARK                            x       y       z     vdW  Elec       q    Type
REMARK                         _______ _______ _______ _____ _____    ______ ____
ROOT
ATOM      1  H   UNK    1       15.161  -4.292   0.000  0.00  0.00    +0.000 HD
ENDROOT
TORSDOF 0
REMARK  Name = molecules/OWMZNFCDEHGFEP-NFBCVYDUSA-N.pdb
REMARK                            x       y       z     vdW  Elec       q    Type
REMARK                         _______ _______ _______ _____ _____    ______ ____
ROOT
ATOM      1  H   UNK    1       15.437  -2.935   0.000  0.00  0.00    +0.000 HD
ENDROOT
TORSDOF 0
REMARK  Name = molecules/OWMZNFCDEHGFEP-NFBCVYDUSA-N.pdb
REMARK                            x       y       z     vdW  Elec       q    Type
REMARK                         _______ _______ _______ _____ _____    ______ ____
ROOT
ATOM      1  H   UNK    1       13.532  -4.775   0.000  0.00  0.00    +0.000 HD
ENDROOT
TORSDOF 0
